0
                    3D
 Structure written by MMmdl.
185195  0  0  1  0            999 V2000
  -30.7073  -14.4418   20.5996 C   0  0  0  0  0  0
  -30.4242  -12.2964   19.4140 C   0  0  0  0  0  0
  -29.4937  -12.5116   18.2028 C   0  0  0  0  0  0
  -28.0144  -12.3734   18.6141 C   0  0  0  0  0  0
  -27.6653  -13.2021   19.8792 C   0  0  2  0  0  0
  -28.7051  -12.9567   20.9959 C   0  0  0  0  0  0
  -25.2606  -13.8152   20.5682 C   0  0  0  0  0  0
  -24.1847  -13.0438   20.9170 C   0  0  0  0  0  0
  -24.6389  -11.6901   20.8723 C   0  0  0  0  0  0
  -23.9050  -10.4291   21.0397 C   0  0  0  0  0  0
  -24.3603   -9.4209   21.9174 C   0  0  0  0  0  0
  -23.6282   -8.2244   22.0749 C   0  0  0  0  0  0
  -22.4263   -8.0279   21.3545 C   0  0  0  0  0  0
  -21.9894   -9.0251   20.4647 C   0  0  0  0  0  0
  -22.7221  -10.2133   20.3051 C   0  0  0  0  0  0
  -21.6854   -6.0729   22.5276 C   0  0  0  0  0  0
  -21.4017   -6.5634   23.8209 C   0  0  0  0  0  0
  -21.3660   -5.6787   24.9171 C   0  0  0  0  0  0
  -21.6043   -4.3051   24.7223 C   0  0  0  0  0  0
  -21.8821   -3.8142   23.4347 C   0  0  0  0  0  0
  -21.9194   -4.6957   22.3401 C   0  0  0  0  0  0
  -22.7871  -13.5244   21.1834 C   0  0  0  0  0  0
  -22.1663   -4.2143   21.0977 F   0  0  0  0  0  0
  -21.5627   -3.4534   25.7739 F   0  0  0  0  0  0
  -30.0408  -13.2650   20.4524 N   0  0  0  0  0  0
  -26.3038  -12.9313   20.3376 N   0  0  0  0  0  0
  -25.9314  -11.6476   20.5753 N   0  0  0  0  0  0
  -22.0508  -12.8245   22.0396 N   0  0  0  0  0  0
  -25.4347  -15.1868   20.4104 N   0  0  0  0  0  0
  -31.8119  -14.6473   20.0871 O   0  0  0  0  0  0
  -21.6636   -6.8871   21.4239 O   0  0  0  0  0  0
  -22.3561  -14.5551   20.6682 O   0  0  0  0  0  0
  -24.6115  -31.8698   23.2126 C   0  0  0  0  0  0
  -25.9023  -32.4833   23.8411 C   0  0  1  0  0  0
  -27.2445  -27.4556   20.1023 C   0  0  0  0  0  0
  -25.5888  -33.8631   24.2344 N   0  0  0  0  0  0
  -23.3997  -30.4920   21.5513 C   0  0  2  0  0  0
  -24.8506  -28.9589   20.1187 C   0  0  0  0  0  0
  -22.7398  -29.4661   22.4999 C   0  0  0  0  0  0
  -18.0268  -28.1375   22.8491 C   0  0  0  0  0  0
  -24.1486  -36.7323   23.2636 C   0  0  0  0  0  0
  -25.9252  -30.8410   21.3648 C   0  0  0  0  0  0
  -26.0057  -29.4734   20.7214 C   0  0  0  0  0  0
  -27.2048  -28.7276   20.7210 C   0  0  0  0  0  0
  -26.0786  -26.9580   19.4877 C   0  0  0  0  0  0
  -24.8794  -27.6960   19.5013 C   0  0  0  0  0  0
  -23.6101  -29.8223   20.1662 C   0  0  0  0  0  0
  -25.4103  -36.3119   24.0342 C   0  0  1  0  0  0
  -20.5855  -28.3659   23.1326 C   0  0  2  0  0  0
  -20.6762  -26.9397   22.5426 C   0  0  0  0  0  0
  -19.5745  -26.6383   21.5215 C   0  0  0  0  0  0
  -18.1919  -26.7924   22.1619 C   0  0  0  0  0  0
  -19.1517  -28.8833   23.2907 C   0  0  0  0  0  0
  -18.9447  -30.1438   23.8922 C   0  0  0  0  0  0
  -17.6451  -30.6584   24.0566 C   0  0  0  0  0  0
  -25.9027  -34.9483   23.5138 C   0  0  0  0  0  0
  -16.5341  -29.9090   23.6321 C   0  0  0  0  0  0
  -16.7257  -28.6503   23.0346 C   0  0  0  0  0  0
  -26.4466  -31.6600   25.0723 C   0  0  0  0  0  0
  -25.3747  -31.3707   26.1485 C   0  0  0  0  0  0
  -27.0287  -30.3043   24.6076 C   0  0  0  0  0  0
  -27.6054  -32.4314   25.7472 C   0  0  0  0  0  0
  -27.5586  -37.1809   24.8458 C   0  0  0  0  0  0
  -21.4128  -29.3029   22.3735 N   0  0  0  0  0  0
  -26.4292  -37.3801   23.9411 N   0  0  0  0  0  0
  -24.6632  -31.0815   22.1018 N   0  0  0  0  0  0
  -23.4175  -28.8208   23.3040 O   0  0  0  0  0  0
  -28.3724  -26.6671   20.0320 O   0  0  0  0  0  0
  -26.5584  -34.8928   22.4697 O   0  0  0  0  0  0
  -23.5314  -32.1442   23.7531 O   0  0  0  0  0  0
  -29.2004  -19.0352   21.3372 C   0  0  0  0  0  0
  -29.0759  -17.6317   21.3480 C   0  0  0  0  0  0
  -31.4820  -17.4238   21.1610 C   0  0  0  0  0  0
  -31.6253  -18.8341   21.1436 C   0  0  0  0  0  0
  -30.4674  -19.6604   21.2413 C   0  0  0  0  0  0
  -30.2135  -16.8081   21.2462 C   0  0  0  0  0  0
  -35.3653  -19.2943   21.6540 C   0  0  0  0  0  0
  -35.2963  -18.9915   20.1523 C   0  0  0  0  0  0
  -30.2137  -24.2716   20.4891 C   0  0  0  0  0  0
  -28.2055  -24.2705   21.9894 C   0  0  0  0  0  0
  -30.4607  -25.7620   20.8100 C   0  0  0  0  0  0
  -28.4335  -25.7593   22.3242 C   0  0  0  0  0  0
  -33.0406  -19.4225   21.0258 C   0  0  1  0  0  0
  -29.5255  -23.5398   21.6618 C   0  0  1  0  0  0
  -33.9591  -19.0338   22.1960 C   0  0  2  0  0  0
  -33.8031  -18.9684   19.7592 C   0  0  1  0  0  0
  -29.1777  -26.5218   21.2035 C   0  0  2  0  0  0
  -33.6600  -19.7900   23.4986 C   0  0  0  0  0  0
  -30.5934  -21.1948   21.2606 C   0  0  0  0  0  0
  -29.2939  -22.0254   21.4095 C   0  0  0  0  0  0
  -33.4693  -19.8224   18.5159 C   0  0  0  0  0  0
  -30.0237  -15.3934   21.2649 N   0  0  0  0  0  0
  -34.0597  -19.2758   17.2810 N   0  3  0  0  0  0
  -31.4682  -12.3964   19.1115 H   0  0  0  0  0  0
  -30.3242  -11.2799   19.7976 H   0  0  0  0  0  0
  -29.7299  -11.7958   17.4144 H   0  0  0  0  0  0
  -29.6659  -13.5018   17.7777 H   0  0  0  0  0  0
  -27.8192  -11.3163   18.7992 H   0  0  0  0  0  0
  -27.3654  -12.6607   17.7860 H   0  0  0  0  0  0
  -27.7182  -14.2538   19.5967 H   0  0  0  0  0  0
  -28.6772  -11.9131   21.3128 H   0  0  0  0  0  0
  -28.4613  -13.5303   21.8908 H   0  0  0  0  0  0
  -25.2751   -9.5688   22.4744 H   0  0  0  0  0  0
  -23.9996   -7.4637   22.7466 H   0  0  0  0  0  0
  -21.0824   -8.8766   19.8956 H   0  0  0  0  0  0
  -22.3673  -10.9667   19.6159 H   0  0  0  0  0  0
  -21.2011   -7.6143   23.9710 H   0  0  0  0  0  0
  -21.1480   -6.0517   25.9073 H   0  0  0  0  0  0
  -22.0601   -2.7604   23.2849 H   0  0  0  0  0  0
  -22.4115  -11.9905   22.4786 H   0  0  0  0  0  0
  -21.1129  -13.1283   22.2598 H   0  0  0  0  0  0
  -24.6697  -15.8442   20.5169 H   0  0  0  0  0  0
  -26.2873  -15.6219   20.0819 H   0  0  0  0  0  0
  -26.7098  -32.5566   23.1186 H   0  0  0  0  0  0
  -25.0050  -33.9798   25.0495 H   0  0  0  0  0  0
  -22.6873  -31.3076   21.4114 H   0  0  0  0  0  0
  -23.3745  -35.9659   23.3304 H   0  0  0  0  0  0
  -24.3586  -36.8929   22.2050 H   0  0  0  0  0  0
  -23.7241  -37.6533   23.6644 H   0  0  0  0  0  0
  -26.0315  -31.6037   20.5923 H   0  0  0  0  0  0
  -26.8151  -30.9010   21.9791 H   0  0  0  0  0  0
  -28.0901  -29.1439   21.1785 H   0  0  0  0  0  0
  -26.1005  -25.9902   19.0065 H   0  0  0  0  0  0
  -23.9933  -27.2926   19.0306 H   0  0  0  0  0  0
  -23.7168  -30.5963   19.4049 H   0  0  0  0  0  0
  -22.7360  -29.2391   19.8711 H   0  0  0  0  0  0
  -25.1277  -36.1990   25.0835 H   0  0  0  0  0  0
  -20.9945  -28.3229   24.1447 H   0  0  0  0  0  0
  -20.5660  -26.2266   23.3611 H   0  0  0  0  0  0
  -21.6637  -26.7445   22.1224 H   0  0  0  0  0  0
  -19.6910  -25.6299   21.1237 H   0  0  0  0  0  0
  -19.6690  -27.3201   20.6752 H   0  0  0  0  0  0
  -17.4193  -26.6673   21.4016 H   0  0  0  0  0  0
  -18.0315  -26.0061   22.9009 H   0  0  0  0  0  0
  -19.7923  -30.7241   24.2310 H   0  0  0  0  0  0
  -17.5009  -31.6267   24.5162 H   0  0  0  0  0  0
  -15.5345  -30.3003   23.7632 H   0  0  0  0  0  0
  -15.8654  -28.0831   22.7055 H   0  0  0  0  0  0
  -24.5902  -30.7070   25.7832 H   0  0  0  0  0  0
  -24.8961  -32.2866   26.4963 H   0  0  0  0  0  0
  -25.8110  -30.8855   27.0225 H   0  0  0  0  0  0
  -26.2816  -29.6814   24.1139 H   0  0  0  0  0  0
  -27.4074  -29.7266   25.4518 H   0  0  0  0  0  0
  -27.8649  -30.4364   23.9204 H   0  0  0  0  0  0
  -27.2679  -33.3598   26.2094 H   0  0  0  0  0  0
  -28.3833  -32.6901   25.0276 H   0  0  0  0  0  0
  -28.0759  -31.8415   26.5348 H   0  0  0  0  0  0
  -28.2602  -38.0109   24.7519 H   0  0  0  0  0  0
  -28.1083  -36.2644   24.6259 H   0  0  0  0  0  0
  -27.2311  -37.1437   25.8862 H   0  0  0  0  0  0
  -20.9284  -29.8746   21.6956 H   0  0  0  0  0  0
  -26.0187  -38.2879   24.1422 H   0  0  0  0  0  0
  -28.2941  -19.6182   21.4068 H   0  0  0  0  0  0
  -28.0898  -17.1949   21.4262 H   0  0  0  0  0  0
  -32.3689  -16.8101   21.1135 H   0  0  0  0  0  0
  -35.6316  -20.3432   21.7966 H   0  0  0  0  0  0
  -36.1232  -18.6971   22.1632 H   0  0  0  0  0  0
  -35.7523  -18.0232   19.9398 H   0  0  0  0  0  0
  -35.8647  -19.7382   19.5959 H   0  0  0  0  0  0
  -31.1697  -23.8030   20.2564 H   0  0  0  0  0  0
  -29.6027  -24.1868   19.5894 H   0  0  0  0  0  0
  -27.5191  -24.1908   21.1449 H   0  0  0  0  0  0
  -27.7098  -23.7875   22.8324 H   0  0  0  0  0  0
  -30.9350  -26.2526   19.9594 H   0  0  0  0  0  0
  -31.1758  -25.8302   21.6310 H   0  0  0  0  0  0
  -29.0193  -25.8263   23.2419 H   0  0  0  0  0  0
  -27.4818  -26.2414   22.5490 H   0  0  0  0  0  0
  -33.0161  -20.5104   21.0022 H   0  0  0  0  0  0
  -30.1723  -23.6240   22.5371 H   0  0  0  0  0  0
  -33.8788  -17.9628   22.3862 H   0  0  0  0  0  0
  -33.5503  -17.9296   19.5451 H   0  0  0  0  0  0
  -29.4753  -27.5047   21.5683 H   0  0  0  0  0  0
  -33.7441  -20.8691   23.3646 H   0  0  0  0  0  0
  -34.3515  -19.4977   24.2891 H   0  0  0  0  0  0
  -32.6493  -19.5782   23.8493 H   0  0  0  0  0  0
  -31.0935  -21.4981   20.3410 H   0  0  0  0  0  0
  -31.2584  -21.4572   22.0845 H   0  0  0  0  0  0
  -28.6590  -21.8829   20.5340 H   0  0  0  0  0  0
  -28.7358  -21.6399   22.2638 H   0  0  0  0  0  0
  -33.8078  -20.8503   18.6545 H   0  0  0  0  0  0
  -32.3874  -19.8686   18.3825 H   0  0  0  0  0  0
  -29.1317  -15.0775   21.6133 H   0  0  0  0  0  0
  -35.0615  -19.2460   17.3397 H   0  0  0  0  0  0
  -33.8118  -19.8549   16.4982 H   0  0  0  0  0  0
  -33.7178  -18.3488   17.1015 H   0  0  0  0  0  0
  1 25  1  0  0  0
  1 30  2  0  0  0
  1 92  1  0  0  0
  2  3  1  0  0  0
  2 25  1  0  0  0
  2 94  1  0  0  0
  2 95  1  0  0  0
  3  4  1  0  0  0
  3 96  1  0  0  0
  3 97  1  0  0  0
  4  5  1  0  0  0
  4 98  1  0  0  0
  4 99  1  0  0  0
  5  6  1  0  0  0
  5 26  1  0  0  0
  5100  1  0  0  0
  6 25  1  0  0  0
  6101  1  0  0  0
  6102  1  0  0  0
  7  8  2  0  0  0
  7 26  1  0  0  0
  7 29  1  0  0  0
  8  9  1  0  0  0
  8 22  1  0  0  0
  9 10  1  0  0  0
  9 27  2  0  0  0
 10 11  2  0  0  0
 10 15  1  0  0  0
 11 12  1  0  0  0
 11103  1  0  0  0
 12 13  2  0  0  0
 12104  1  0  0  0
 13 14  1  0  0  0
 13 31  1  0  0  0
 14 15  2  0  0  0
 14105  1  0  0  0
 15106  1  0  0  0
 16 17  2  0  0  0
 16 21  1  0  0  0
 16 31  1  0  0  0
 17 18  1  0  0  0
 17107  1  0  0  0
 18 19  2  0  0  0
 18108  1  0  0  0
 19 20  1  0  0  0
 19 24  1  0  0  0
 20 21  2  0  0  0
 20109  1  0  0  0
 21 23  1  0  0  0
 22 28  1  0  0  0
 22 32  2  0  0  0
 26 27  1  0  0  0
 28110  1  0  0  0
 28111  1  0  0  0
 29112  1  0  0  0
 29113  1  0  0  0
 33 34  1  0  0  0
 33 66  1  0  0  0
 33 70  2  0  0  0
 34 36  1  0  0  0
 34 59  1  0  0  0
 34114  1  0  0  0
 35 44  2  0  0  0
 35 45  1  0  0  0
 35 68  1  0  0  0
 36 56  1  0  0  0
 36115  1  0  0  0
 37 39  1  0  0  0
 37 47  1  0  0  0
 37 66  1  0  0  0
 37116  1  0  0  0
 38 43  2  0  0  0
 38 46  1  0  0  0
 38 47  1  0  0  0
 39 64  1  0  0  0
 39 67  2  0  0  0
 40 52  1  0  0  0
 40 53  2  0  0  0
 40 58  1  0  0  0
 41117  1  0  0  0
 41118  1  0  0  0
 41119  1  0  0  0
 41 48  1  0  0  0
 42 43  1  0  0  0
 42 66  1  0  0  0
 42120  1  0  0  0
 42121  1  0  0  0
 43 44  1  0  0  0
 44122  1  0  0  0
 45 46  2  0  0  0
 45123  1  0  0  0
 46124  1  0  0  0
 47125  1  0  0  0
 47126  1  0  0  0
 48 56  1  0  0  0
 48 65  1  0  0  0
 48127  1  0  0  0
 49 50  1  0  0  0
 49 53  1  0  0  0
 49 64  1  0  0  0
 49128  1  0  0  0
 50 51  1  0  0  0
 50129  1  0  0  0
 50130  1  0  0  0
 51 52  1  0  0  0
 51131  1  0  0  0
 51132  1  0  0  0
 52133  1  0  0  0
 52134  1  0  0  0
 53 54  1  0  0  0
 54 55  2  0  0  0
 54135  1  0  0  0
 55 57  1  0  0  0
 55136  1  0  0  0
 56 69  2  0  0  0
 57 58  2  0  0  0
 57137  1  0  0  0
 58138  1  0  0  0
 59 60  1  0  0  0
 59 61  1  0  0  0
 59 62  1  0  0  0
 60139  1  0  0  0
 60140  1  0  0  0
 60141  1  0  0  0
 61142  1  0  0  0
 61143  1  0  0  0
 61144  1  0  0  0
 62145  1  0  0  0
 62146  1  0  0  0
 62147  1  0  0  0
 63 65  1  0  0  0
 63148  1  0  0  0
 63149  1  0  0  0
 63150  1  0  0  0
 64151  1  0  0  0
 65152  1  0  0  0
 68 87  1  0  0  0
 71 72  2  0  0  0
 71 75  1  0  0  0
 71153  1  0  0  0
 72 76  1  0  0  0
 72154  1  0  0  0
 73 74  1  0  0  0
 73 76  2  0  0  0
 73155  1  0  0  0
 74 75  2  0  0  0
 74 83  1  0  0  0
 75 89  1  0  0  0
 76 92  1  0  0  0
 77 78  1  0  0  0
 77 85  1  0  0  0
 77156  1  0  0  0
 77157  1  0  0  0
 78 86  1  0  0  0
 78158  1  0  0  0
 78159  1  0  0  0
 79 81  1  0  0  0
 79 84  1  0  0  0
 79160  1  0  0  0
 79161  1  0  0  0
 80 82  1  0  0  0
 80 84  1  0  0  0
 80162  1  0  0  0
 80163  1  0  0  0
 81 87  1  0  0  0
 81164  1  0  0  0
 81165  1  0  0  0
 82 87  1  0  0  0
 82166  1  0  0  0
 82167  1  0  0  0
 83 85  1  0  0  0
 83 86  1  0  0  0
 83168  1  0  0  0
 84 90  1  0  0  0
 84169  1  0  0  0
 85 88  1  0  0  0
 85170  1  0  0  0
 86 91  1  0  0  0
 86171  1  0  0  0
 87172  1  0  0  0
 88173  1  0  0  0
 88174  1  0  0  0
 88175  1  0  0  0
 89 90  1  0  0  0
 89176  1  0  0  0
 89177  1  0  0  0
 90178  1  0  0  0
 90179  1  0  0  0
 91 93  1  0  0  0
 91180  1  0  0  0
 91181  1  0  0  0
 92182  1  0  0  0
 93183  1  0  0  0
 93184  1  0  0  0
 93185  1  0  0  0
M  CHG  1  93   1
M  ISO  4   1 100  68 101  87 101  92 100
M  END
> <chiral flag>
0

> <version>
0

> <s_m_source_file>
/data/baiqing/PycharmProjects/Reinvent-master-3.2/result/LINK_invent/BTK/process_docking_weight1_custom_sum_contain_oxygen_bond_distance_aromatic_linkinvent_7_9_3/rearranged_h_0125.sdf

> <i_m_source_file_index>
1

> <r_mmod_Potential_Energy-OPLS-2005>
-182.246932983398

> <r_mmod_Stretch_Energy-OPLS-2005>
39.8601608276367

> <r_mmod_Bend_Energy-OPLS-2005>
130.855194091797

> <r_mmod_Torsional_Energy-OPLS-2005>
304.037750244141

> <r_mmod_Improper_Torsional_Energy-OPLS-2005>
3.33846139907837

> <r_mmod_Van_der_Waal_Energy-OPLS-2005>
152.578399658203

> <r_mmod_Electrostatic_Energy-OPLS-2005>
-361.065246582031

> <r_mmod_Solvation_Energy-OPLS-2005>
-460.760131835938

> <b_mmod_Minimization_Converged-OPLS-2005>
0

> <r_mmod_RMS_Derivative-OPLS-2005>
0.49822986125946

$$$$
1
                    3D
 Structure written by MMmdl.
162170  0  0  1  0            999 V2000
  -30.4212  -15.0636   20.2252 C   0  0  0  0  0  0
  -30.4209  -12.6454   19.4670 C   0  0  0  0  0  0
  -29.5004  -12.4872   18.2349 C   0  0  0  0  0  0
  -28.0557  -12.2331   18.6985 C   0  0  0  0  0  0
  -27.5997  -13.2125   19.8083 C   0  0  2  0  0  0
  -28.6428  -13.3270   20.9278 C   0  0  0  0  0  0
  -25.2233  -13.7563   20.5620 C   0  0  0  0  0  0
  -24.1586  -13.0006   20.9273 C   0  0  0  0  0  0
  -24.6304  -11.6581   20.8878 C   0  0  0  0  0  0
  -23.9011  -10.4044   21.0490 C   0  0  0  0  0  0
  -24.3577   -9.3996   21.9268 C   0  0  0  0  0  0
  -23.6223   -8.2075   22.0794 C   0  0  0  0  0  0
  -22.4214   -8.0183   21.3560 C   0  0  0  0  0  0
  -21.9862   -9.0147   20.4656 C   0  0  0  0  0  0
  -22.7212  -10.1991   20.3078 C   0  0  0  0  0  0
  -21.6806   -6.0680   22.5286 C   0  0  0  0  0  0
  -21.3980   -6.5599   23.8218 C   0  0  0  0  0  0
  -21.3645   -5.6762   24.9184 C   0  0  0  0  0  0
  -21.6037   -4.3026   24.7236 C   0  0  0  0  0  0
  -21.8817   -3.8110   23.4358 C   0  0  0  0  0  0
  -21.9171   -4.6916   22.3411 C   0  0  0  0  0  0
  -22.7658  -13.4950   21.1922 C   0  0  0  0  0  0
  -22.1646   -4.2103   21.0995 F   0  0  0  0  0  0
  -21.5638   -3.4516   25.7763 F   0  0  0  0  0  0
  -29.8829  -13.7761   20.2834 N   0  0  0  0  0  0
  -26.2763  -12.8978   20.3202 N   0  0  0  0  0  0
  -25.9255  -11.6167   20.5818 N   0  0  0  0  0  0
  -22.0296  -12.8054   22.0537 N   0  0  0  0  0  0
  -25.3395  -15.1033   20.3574 N   0  0  0  0  0  0
  -31.6315  -15.1315   19.9999 O   0  0  0  0  0  0
  -21.6563   -6.8808   21.4244 O   0  0  0  0  0  0
  -22.3427  -14.5290   20.6746 O   0  0  0  0  0  0
  -24.6339  -31.8855   23.1993 C   0  0  0  0  0  0
  -25.9347  -32.4788   23.8377 C   0  0  1  0  0  0
  -27.1808  -27.2318   20.1013 C   0  0  0  0  0  0
  -25.6359  -33.8604   24.2380 N   0  0  0  0  0  0
  -23.4271  -30.5266   21.5314 C   0  0  2  0  0  0
  -24.8422  -28.9299   20.1316 C   0  0  0  0  0  0
  -22.7411  -29.5023   22.4507 C   0  0  0  0  0  0
  -18.0430  -28.1453   22.8418 C   0  0  0  0  0  0
  -24.1589  -36.7291   23.2633 C   0  0  0  0  0  0
  -25.9835  -30.7082   21.4028 C   0  0  0  0  0  0
  -26.0162  -29.3196   20.7791 C   0  0  0  0  0  0
  -27.1651  -28.4852   20.8063 C   0  0  0  0  0  0
  -25.9926  -26.9190   19.3973 C   0  0  0  0  0  0
  -24.8352  -27.7073   19.4314 C   0  0  0  0  0  0
  -23.6645  -29.8885   20.1263 C   0  0  0  0  0  0
  -25.4192  -36.2927   24.0252 C   0  0  1  0  0  0
  -20.6099  -28.3972   23.0918 C   0  0  2  0  0  0
  -20.6925  -26.9631   22.5212 C   0  0  0  0  0  0
  -19.5910  -26.6443   21.5060 C   0  0  0  0  0  0
  -18.2117  -26.7960   22.1490 C   0  0  0  0  0  0
  -19.1757  -28.8928   23.2770 C   0  0  0  0  0  0
  -18.9597  -30.1479   23.8867 C   0  0  0  0  0  0
  -17.6633  -30.6652   24.0559 C   0  0  0  0  0  0
  -25.9149  -34.9415   23.5129 C   0  0  0  0  0  0
  -16.5522  -29.9155   23.6430 C   0  0  0  0  0  0
  -16.7392  -28.6610   23.0290 C   0  0  0  0  0  0
  -26.4694  -31.6476   25.0732 C   0  0  0  0  0  0
  -25.3934  -31.3552   26.1363 C   0  0  0  0  0  0
  -27.0497  -30.2905   24.6132 C   0  0  0  0  0  0
  -27.6195  -32.4298   25.7510 C   0  0  0  0  0  0
  -27.5546  -37.1731   24.8400 C   0  0  0  0  0  0
  -21.4157  -29.3384   22.3276 N   0  0  0  0  0  0
  -26.4188  -37.3683   23.9391 N   0  0  0  0  0  0
  -24.7009  -31.0753   22.1051 N   0  0  0  0  0  0
  -23.3986  -28.8547   23.2816 O   0  0  0  0  0  0
  -28.3295  -26.3936   20.0225 O   0  0  0  0  0  0
  -26.5575  -34.8850   22.4555 O   0  0  0  0  0  0
  -23.5624  -32.1996   23.7644 O   0  0  0  0  0  0
  -27.6687  -19.6937   20.3344 C   0  0  0  0  0  0
  -30.0363  -18.7464   19.2930 C   0  0  0  0  0  0
  -28.4452  -20.7246   19.7470 C   0  0  0  0  0  0
  -28.0150  -18.2870   20.4280 C   0  0  0  0  0  0
  -29.6213  -20.1755   19.1268 C   0  0  0  0  0  0
  -29.2586  -17.7042   19.9820 C   0  0  0  0  0  0
  -26.9211  -17.4371   20.9855 C   0  0  0  0  0  0
  -29.6352  -21.3422   16.8427 C   0  0  0  0  0  0
  -31.8281  -20.9557   18.0452 C   0  0  0  0  0  0
  -27.7900  -22.2136   19.7651 C   0  0  0  0  0  0
  -28.2177  -23.7234   19.2424 C   0  0  0  0  0  0
  -28.3249  -24.9251   20.3259 C   0  0  0  0  0  0
  -30.3438  -21.1780   18.2141 C   0  0  0  0  0  0
  -29.6646  -16.2645   20.4405 N   0  0  0  0  0  0
  -31.4506  -12.8170   19.1591 H   0  0  0  0  0  0
  -30.4260  -11.7290   20.0665 H   0  0  0  0  0  0
  -29.8484  -11.6686   17.6105 H   0  0  0  0  0  0
  -29.5308  -13.3797   17.6193 H   0  0  0  0  0  0
  -28.0268  -11.2111   19.0964 H   0  0  0  0  0  0
  -27.3660  -12.2387   17.8600 H   0  0  0  0  0  0
  -27.5370  -14.1857   19.3267 H   0  0  0  0  0  0
  -28.7994  -12.3710   21.4323 H   0  0  0  0  0  0
  -28.3323  -14.0468   21.6935 H   0  0  0  0  0  0
  -25.2719   -9.5450   22.4845 H   0  0  0  0  0  0
  -23.9893   -7.4441   22.7505 H   0  0  0  0  0  0
  -21.0792   -8.8672   19.8956 H   0  0  0  0  0  0
  -22.3722  -10.9555   19.6165 H   0  0  0  0  0  0
  -21.1972   -7.6105   23.9703 H   0  0  0  0  0  0
  -21.1483   -6.0501   25.9082 H   0  0  0  0  0  0
  -22.0624   -2.7573   23.2880 H   0  0  0  0  0  0
  -22.3924  -11.9711   22.4871 H   0  0  0  0  0  0
  -21.0965  -13.1167   22.2805 H   0  0  0  0  0  0
  -24.5676  -15.7531   20.4369 H   0  0  0  0  0  0
  -26.1918  -15.5347   20.0237 H   0  0  0  0  0  0
  -26.7545  -32.5283   23.1093 H   0  0  0  0  0  0
  -25.0263  -33.9676   25.0367 H   0  0  0  0  0  0
  -22.7598  -31.3716   21.3817 H   0  0  0  0  0  0
  -23.3703  -35.9683   23.3057 H   0  0  0  0  0  0
  -24.3705  -36.9231   22.2054 H   0  0  0  0  0  0
  -23.7309  -37.6479   23.6897 H   0  0  0  0  0  0
  -26.2312  -31.4039   20.6036 H   0  0  0  0  0  0
  -26.8192  -30.7074   22.0852 H   0  0  0  0  0  0
  -28.0213  -28.7571   21.3921 H   0  0  0  0  0  0
  -25.9550  -26.0858   18.7562 H   0  0  0  0  0  0
  -23.9455  -27.3495   18.9243 H   0  0  0  0  0  0
  -22.7552  -29.3798   19.7786 H   0  0  0  0  0  0
  -23.9317  -30.6839   19.4228 H   0  0  0  0  0  0
  -25.1299  -36.1666   25.0658 H   0  0  0  0  0  0
  -21.0413  -28.3645   24.0866 H   0  0  0  0  0  0
  -20.5757  -26.2644   23.3475 H   0  0  0  0  0  0
  -21.6860  -26.7539   22.1180 H   0  0  0  0  0  0
  -19.7123  -25.6283   21.1181 H   0  0  0  0  0  0
  -19.6846  -27.3245   20.6601 H   0  0  0  0  0  0
  -17.4333  -26.6680   21.3888 H   0  0  0  0  0  0
  -18.0616  -26.0029   22.8848 H   0  0  0  0  0  0
  -19.8082  -30.7296   24.2213 H   0  0  0  0  0  0
  -17.5194  -31.6284   24.5213 H   0  0  0  0  0  0
  -15.5576  -30.2953   23.7770 H   0  0  0  0  0  0
  -15.8759  -28.0823   22.6979 H   0  0  0  0  0  0
  -24.6117  -30.6914   25.7651 H   0  0  0  0  0  0
  -24.9075  -32.2731   26.4800 H   0  0  0  0  0  0
  -25.8304  -30.8713   27.0086 H   0  0  0  0  0  0
  -26.3000  -29.6520   24.1346 H   0  0  0  0  0  0
  -27.4685  -29.7329   25.4496 H   0  0  0  0  0  0
  -27.8813  -30.4156   23.9134 H   0  0  0  0  0  0
  -27.2630  -33.3495   26.2149 H   0  0  0  0  0  0
  -28.3988  -32.6938   25.0372 H   0  0  0  0  0  0
  -28.0850  -31.8323   26.5357 H   0  0  0  0  0  0
  -28.2378  -38.0221   24.7511 H   0  0  0  0  0  0
  -28.1239  -36.2694   24.6097 H   0  0  0  0  0  0
  -27.2317  -37.1234   25.8835 H   0  0  0  0  0  0
  -20.9302  -29.9007   21.6329 H   0  0  0  0  0  0
  -26.0033  -38.2703   24.1483 H   0  0  0  0  0  0
  -26.7081  -20.0206   20.6974 H   0  0  0  0  0  0
  -30.9708  -18.4453   18.8415 H   0  0  0  0  0  0
  -26.1547  -17.9635   21.5570 H   0  0  0  0  0  0
  -27.2743  -16.5986   21.5978 H   0  0  0  0  0  0
  -26.4514  -17.1292   20.0597 H   0  0  0  0  0  0
  -29.2151  -20.3898   16.4606 H   0  0  0  0  0  0
  -30.2803  -21.8226   16.0881 H   0  0  0  0  0  0
  -28.7619  -21.9739   16.9602 H   0  0  0  0  0  0
  -32.2376  -21.8079   17.4972 H   0  0  0  0  0  0
  -32.3274  -20.8997   19.0087 H   0  0  0  0  0  0
  -32.0750  -20.0882   17.4561 H   0  0  0  0  0  0
  -27.3854  -22.3149   20.7854 H   0  0  0  0  0  0
  -26.8987  -22.0157   19.1896 H   0  0  0  0  0  0
  -28.9349  -23.7280   18.4273 H   0  0  0  0  0  0
  -27.3345  -24.0815   18.6984 H   0  0  0  0  0  0
  -27.6432  -24.7535   21.1578 H   0  0  0  0  0  0
  -29.3097  -24.8167   20.8161 H   0  0  0  0  0  0
  -30.3078  -22.1363   18.7353 H   0  0  0  0  0  0
  -30.5499  -16.6066   20.7768 H   0  0  0  0  0  0
  1 25  1  0  0  0
  1 30  2  0  0  0
  1 84  1  0  0  0
  2  3  1  0  0  0
  2 25  1  0  0  0
  2 85  1  0  0  0
  2 86  1  0  0  0
  3  4  1  0  0  0
  3 87  1  0  0  0
  3 88  1  0  0  0
  4  5  1  0  0  0
  4 89  1  0  0  0
  4 90  1  0  0  0
  5  6  1  0  0  0
  5 26  1  0  0  0
  5 91  1  0  0  0
  6 25  1  0  0  0
  6 92  1  0  0  0
  6 93  1  0  0  0
  7  8  2  0  0  0
  7 26  1  0  0  0
  7 29  1  0  0  0
  8  9  1  0  0  0
  8 22  1  0  0  0
  9 10  1  0  0  0
  9 27  2  0  0  0
 10 11  2  0  0  0
 10 15  1  0  0  0
 11 12  1  0  0  0
 11 94  1  0  0  0
 12 13  2  0  0  0
 12 95  1  0  0  0
 13 14  1  0  0  0
 13 31  1  0  0  0
 14 15  2  0  0  0
 14 96  1  0  0  0
 15 97  1  0  0  0
 16 17  2  0  0  0
 16 21  1  0  0  0
 16 31  1  0  0  0
 17 18  1  0  0  0
 17 98  1  0  0  0
 18 19  2  0  0  0
 18 99  1  0  0  0
 19 20  1  0  0  0
 19 24  1  0  0  0
 20 21  2  0  0  0
 20100  1  0  0  0
 21 23  1  0  0  0
 22 28  1  0  0  0
 22 32  2  0  0  0
 26 27  1  0  0  0
 28101  1  0  0  0
 28102  1  0  0  0
 29103  1  0  0  0
 29104  1  0  0  0
 33 34  1  0  0  0
 33 66  1  0  0  0
 33 70  2  0  0  0
 34 36  1  0  0  0
 34 59  1  0  0  0
 34105  1  0  0  0
 35 44  2  0  0  0
 35 45  1  0  0  0
 35 68  1  0  0  0
 36 56  1  0  0  0
 36106  1  0  0  0
 37 39  1  0  0  0
 37 47  1  0  0  0
 37 66  1  0  0  0
 37107  1  0  0  0
 38 43  2  0  0  0
 38 46  1  0  0  0
 38 47  1  0  0  0
 39 64  1  0  0  0
 39 67  2  0  0  0
 40 52  1  0  0  0
 40 53  2  0  0  0
 40 58  1  0  0  0
 41108  1  0  0  0
 41109  1  0  0  0
 41110  1  0  0  0
 41 48  1  0  0  0
 42 43  1  0  0  0
 42 66  1  0  0  0
 42111  1  0  0  0
 42112  1  0  0  0
 43 44  1  0  0  0
 44113  1  0  0  0
 45 46  2  0  0  0
 45114  1  0  0  0
 46115  1  0  0  0
 47116  1  0  0  0
 47117  1  0  0  0
 48 56  1  0  0  0
 48 65  1  0  0  0
 48118  1  0  0  0
 49 50  1  0  0  0
 49 53  1  0  0  0
 49 64  1  0  0  0
 49119  1  0  0  0
 50 51  1  0  0  0
 50120  1  0  0  0
 50121  1  0  0  0
 51 52  1  0  0  0
 51122  1  0  0  0
 51123  1  0  0  0
 52124  1  0  0  0
 52125  1  0  0  0
 53 54  1  0  0  0
 54 55  2  0  0  0
 54126  1  0  0  0
 55 57  1  0  0  0
 55127  1  0  0  0
 56 69  2  0  0  0
 57 58  2  0  0  0
 57128  1  0  0  0
 58129  1  0  0  0
 59 60  1  0  0  0
 59 61  1  0  0  0
 59 62  1  0  0  0
 60130  1  0  0  0
 60131  1  0  0  0
 60132  1  0  0  0
 61133  1  0  0  0
 61134  1  0  0  0
 61135  1  0  0  0
 62136  1  0  0  0
 62137  1  0  0  0
 62138  1  0  0  0
 63 65  1  0  0  0
 63139  1  0  0  0
 63140  1  0  0  0
 63141  1  0  0  0
 64142  1  0  0  0
 65143  1  0  0  0
 68 82  1  0  0  0
 71 73  2  0  0  0
 71 74  1  0  0  0
 71144  1  0  0  0
 72 75  2  0  0  0
 72 76  1  0  0  0
 72145  1  0  0  0
 73 75  1  0  0  0
 73 80  1  0  0  0
 74 76  2  0  0  0
 74 77  1  0  0  0
 75 83  1  0  0  0
 76 84  1  0  0  0
 77146  1  0  0  0
 77147  1  0  0  0
 77148  1  0  0  0
 78149  1  0  0  0
 78150  1  0  0  0
 78151  1  0  0  0
 78 83  1  0  0  0
 79 83  1  0  0  0
 79152  1  0  0  0
 79153  1  0  0  0
 79154  1  0  0  0
 80 81  1  0  0  0
 80155  1  0  0  0
 80156  1  0  0  0
 81 82  1  0  0  0
 81157  1  0  0  0
 81158  1  0  0  0
 82159  1  0  0  0
 82160  1  0  0  0
 83161  1  0  0  0
 84162  1  0  0  0
M  ISO  4   1 100  68 101  82 101  84 100
M  END
> <chiral flag>
0

> <version>
0

> <s_m_source_file>
/data/baiqing/PycharmProjects/Reinvent-master-3.2/result/LINK_invent/BTK/process_docking_weight1_custom_sum_contain_oxygen_bond_distance_aromatic_linkinvent_7_9_3/rearranged_h_0125.sdf

> <i_m_source_file_index>
2

> <r_mmod_Potential_Energy-OPLS-2005>
780.174682617188

> <r_mmod_Stretch_Energy-OPLS-2005>
216.527481079102

> <r_mmod_Bend_Energy-OPLS-2005>
493.503051757812

> <r_mmod_Torsional_Energy-OPLS-2005>
288.899627685547

> <r_mmod_Improper_Torsional_Energy-OPLS-2005>
12.673412322998

> <r_mmod_Van_der_Waal_Energy-OPLS-2005>
153.524276733398

> <r_mmod_Electrostatic_Energy-OPLS-2005>
-437.178283691406

> <r_mmod_Solvation_Energy-OPLS-2005>
-181.191955566406

> <b_mmod_Minimization_Converged-OPLS-2005>
0

> <r_mmod_RMS_Derivative-OPLS-2005>
35.7263031005859

$$$$
2
                    3D
 Structure written by MMmdl.
166175  0  0  1  0            999 V2000
  -30.7303  -14.4149   20.8179 C   0  0  0  0  0  0
  -31.4598  -13.0706   19.0587 C   0  0  0  0  0  0
  -29.3149  -12.9603   17.1612 C   0  0  0  0  0  0
  -27.5182  -13.2225   18.1161 C   0  0  0  0  0  0
  -27.3911  -13.5180   20.1204 C   0  0  2  0  0  0
  -28.8474  -13.0491   21.5108 C   0  0  0  0  0  0
  -25.0688  -13.8752   20.6504 C   0  0  0  0  0  0
  -24.0552  -13.0370   20.9484 C   0  0  0  0  0  0
  -24.5815  -11.7059   20.8949 C   0  0  0  0  0  0
  -23.8920  -10.4234   21.0399 C   0  0  0  0  0  0
  -24.3575   -9.4195   21.9159 C   0  0  0  0  0  0
  -23.6302   -8.2192   22.0720 C   0  0  0  0  0  0
  -22.4280   -8.0212   21.3512 C   0  0  0  0  0  0
  -21.9877   -9.0142   20.4577 C   0  0  0  0  0  0
  -22.7145  -10.2029   20.2999 C   0  0  0  0  0  0
  -21.6860   -6.0717   22.5287 C   0  0  0  0  0  0
  -21.4011   -6.5629   23.8210 C   0  0  0  0  0  0
  -21.3646   -5.6778   24.9170 C   0  0  0  0  0  0
  -21.6060   -4.3045   24.7228 C   0  0  0  0  0  0
  -21.8812   -3.8135   23.4345 C   0  0  0  0  0  0
  -21.9194   -4.6953   22.3406 C   0  0  0  0  0  0
  -22.6611  -13.4874   21.1968 C   0  0  0  0  0  0
  -22.1665   -4.2136   21.0984 F   0  0  0  0  0  0
  -21.5624   -3.4537   25.7736 F   0  0  0  0  0  0
  -30.6917  -13.1773   20.8765 N   0  0  0  0  0  0
  -26.1412  -13.0569   20.5038 N   0  0  0  0  0  0
  -25.8848  -11.7338   20.6319 N   0  0  0  0  0  0
  -21.9466  -12.7820   22.0585 N   0  0  0  0  0  0
  -25.1652  -15.2590   20.4945 N   0  0  0  0  0  0
  -31.6718  -15.1728   20.5794 O   0  0  0  0  0  0
  -21.6628   -6.8838   21.4247 O   0  0  0  0  0  0
  -22.2326  -14.5198   20.6831 O   0  0  0  0  0  0
  -24.6645  -31.8263   23.1735 C   0  0  0  0  0  0
  -25.9344  -32.4591   23.8172 C   0  0  1  0  0  0
  -27.1899  -26.9587   20.0677 C   0  0  0  0  0  0
  -25.6014  -33.8406   24.2072 N   0  0  0  0  0  0
  -23.4727  -30.4468   21.5280 C   0  0  2  0  0  0
  -24.9118  -28.8496   20.1018 C   0  0  0  0  0  0
  -22.7653  -29.4476   22.4811 C   0  0  0  0  0  0
  -18.0330  -28.1411   22.8472 C   0  0  0  0  0  0
  -24.1510  -36.7195   23.2640 C   0  0  0  0  0  0
  -26.0470  -30.6279   21.4067 C   0  0  0  0  0  0
  -26.1060  -29.2281   20.7282 C   0  0  0  0  0  0
  -27.2416  -28.2980   20.7011 C   0  0  0  0  0  0
  -25.9617  -26.7403   19.4085 C   0  0  0  0  0  0
  -24.8612  -27.6219   19.4337 C   0  0  0  0  0  0
  -23.7031  -29.7770   20.1502 C   0  0  0  0  0  0
  -25.4152  -36.2961   24.0292 C   0  0  1  0  0  0
  -20.5954  -28.3761   23.1190 C   0  0  2  0  0  0
  -20.6814  -26.9445   22.5397 C   0  0  0  0  0  0
  -19.5780  -26.6384   21.5219 C   0  0  0  0  0  0
  -18.1963  -26.7947   22.1628 C   0  0  0  0  0  0
  -19.1590  -28.8907   23.2822 C   0  0  0  0  0  0
  -18.9496  -30.1499   23.8854 C   0  0  0  0  0  0
  -17.6487  -30.6599   24.0559 C   0  0  0  0  0  0
  -25.9124  -34.9350   23.4999 C   0  0  0  0  0  0
  -16.5381  -29.9085   23.6344 C   0  0  0  0  0  0
  -16.7312  -28.6508   23.0360 C   0  0  0  0  0  0
  -26.4577  -31.6530   25.0698 C   0  0  0  0  0  0
  -25.3674  -31.3786   26.1328 C   0  0  0  0  0  0
  -27.0472  -30.2886   24.6461 C   0  0  0  0  0  0
  -27.6075  -32.4334   25.7487 C   0  0  0  0  0  0
  -27.5591  -37.1744   24.8456 C   0  0  0  0  0  0
  -21.4330  -29.3053   22.3543 N   0  0  0  0  0  0
  -26.4291  -37.3704   23.9409 N   0  0  0  0  0  0
  -24.7501  -30.9928   22.0879 N   0  0  0  0  0  0
  -23.4219  -28.8034   23.3030 O   0  0  0  0  0  0
  -28.1544  -25.8228   20.0559 O   0  0  0  0  0  0
  -26.5727  -34.8886   22.4591 O   0  0  0  0  0  0
  -23.5720  -32.1253   23.6834 O   0  0  0  0  0  0
  -29.8063  -20.6664   18.6642 C   0  0  0  0  0  0
  -28.0282  -20.0873   19.9924 C   0  0  0  0  0  0
  -29.4816  -22.1115   18.8178 C   0  0  0  0  0  0
  -27.6992  -21.5340   20.1410 C   0  0  0  0  0  0
  -29.1183  -19.4989   19.2223 C   0  0  0  0  0  0
  -28.3938  -22.6976   19.5861 C   0  0  0  0  0  0
  -31.3759  -11.5929   17.0842 C   0  0  0  0  0  0
  -31.7065  -13.3024   16.5840 C   0  0  0  0  0  0
  -30.2371  -11.1608   18.4401 C   0  0  0  0  0  0
  -30.9884  -14.8117   17.2948 C   0  0  0  0  0  0
  -29.3536  -12.6382   19.2997 C   0  0  1  0  0  0
  -29.6594  -14.8027   18.5018 C   0  0  1  0  0  0
  -29.7086  -17.8489   19.1100 C   0  0  0  0  0  0
  -27.7511  -24.3206   19.5477 C   0  0  0  0  0  0
  -29.7810  -14.2534   19.8919 N   0  0  0  0  0  0
  -29.0246  -16.3654   18.8794 N   0  3  0  0  0  0
  -32.2970  -13.7589   18.9105 H   0  0  0  0  0  0
  -32.1424  -12.2262   19.2105 H   0  0  0  0  0  0
  -29.1174  -12.0446   16.5967 H   0  0  0  0  0  0
  -29.2934  -13.5991   16.2706 H   0  0  0  0  0  0
  -26.9502  -12.3127   17.9115 H   0  0  0  0  0  0
  -26.9317  -13.9887   17.6071 H   0  0  0  0  0  0
  -27.3856  -14.5980   20.2138 H   0  0  0  0  0  0
  -28.6939  -12.0328   21.8746 H   0  0  0  0  0  0
  -28.7200  -13.6816   22.3885 H   0  0  0  0  0  0
  -25.2680   -9.5755   22.4783 H   0  0  0  0  0  0
  -24.0016   -7.4613   22.7454 H   0  0  0  0  0  0
  -21.0811   -8.8639   19.8908 H   0  0  0  0  0  0
  -22.3563  -10.9582   19.6135 H   0  0  0  0  0  0
  -21.2001   -7.6139   23.9710 H   0  0  0  0  0  0
  -21.1473   -6.0511   25.9068 H   0  0  0  0  0  0
  -22.0608   -2.7604   23.2844 H   0  0  0  0  0  0
  -22.3266  -11.9585   22.5000 H   0  0  0  0  0  0
  -21.0050  -13.0692   22.2830 H   0  0  0  0  0  0
  -24.3425  -15.8455   20.5992 H   0  0  0  0  0  0
  -26.0146  -15.7964   20.4163 H   0  0  0  0  0  0
  -26.7400  -32.5106   23.0866 H   0  0  0  0  0  0
  -25.0093  -33.9481   25.0177 H   0  0  0  0  0  0
  -22.7867  -31.2806   21.3679 H   0  0  0  0  0  0
  -23.3801  -35.9493   23.3238 H   0  0  0  0  0  0
  -24.3600  -36.8908   22.2067 H   0  0  0  0  0  0
  -23.7235  -37.6349   23.6741 H   0  0  0  0  0  0
  -26.2458  -31.3801   20.6430 H   0  0  0  0  0  0
  -26.8999  -30.6603   22.0721 H   0  0  0  0  0  0
  -28.1446  -28.5797   21.2235 H   0  0  0  0  0  0
  -25.7975  -25.8240   18.8643 H   0  0  0  0  0  0
  -23.9534  -27.3294   18.9239 H   0  0  0  0  0  0
  -23.8557  -30.5517   19.3979 H   0  0  0  0  0  0
  -22.8084  -29.2370   19.8333 H   0  0  0  0  0  0
  -25.1352  -36.1742   25.0780 H   0  0  0  0  0  0
  -21.0055  -28.3369   24.1313 H   0  0  0  0  0  0
  -20.5720  -26.2375   23.3638 H   0  0  0  0  0  0
  -21.6672  -26.7438   22.1188 H   0  0  0  0  0  0
  -19.6938  -25.6285   21.1275 H   0  0  0  0  0  0
  -19.6713  -27.3173   20.6732 H   0  0  0  0  0  0
  -17.4233  -26.6699   21.4032 H   0  0  0  0  0  0
  -18.0353  -26.0101   22.9036 H   0  0  0  0  0  0
  -19.7968  -30.7336   24.2197 H   0  0  0  0  0  0
  -17.5034  -31.6273   24.5170 H   0  0  0  0  0  0
  -15.5377  -30.2966   23.7694 H   0  0  0  0  0  0
  -15.8718  -28.0811   22.7089 H   0  0  0  0  0  0
  -24.5890  -30.7116   25.7609 H   0  0  0  0  0  0
  -24.8827  -32.2987   26.4598 H   0  0  0  0  0  0
  -25.7874  -30.9037   27.0202 H   0  0  0  0  0  0
  -26.3143  -29.6542   24.1468 H   0  0  0  0  0  0
  -27.3980  -29.7280   25.5136 H   0  0  0  0  0  0
  -27.9102  -30.4047   23.9901 H   0  0  0  0  0  0
  -27.2663  -33.3690   26.1927 H   0  0  0  0  0  0
  -28.3945  -32.6800   25.0347 H   0  0  0  0  0  0
  -28.0675  -31.8544   26.5502 H   0  0  0  0  0  0
  -28.2542  -38.0104   24.7577 H   0  0  0  0  0  0
  -28.1155  -36.2636   24.6198 H   0  0  0  0  0  0
  -27.2310  -37.1273   25.8854 H   0  0  0  0  0  0
  -20.9582  -29.8739   21.6670 H   0  0  0  0  0  0
  -26.0133  -38.2752   24.1449 H   0  0  0  0  0  0
  -30.6805  -20.4532   18.0642 H   0  0  0  0  0  0
  -27.3781  -19.3998   20.5162 H   0  0  0  0  0  0
  -30.1068  -22.8054   18.2711 H   0  0  0  0  0  0
  -26.8058  -21.7545   20.7113 H   0  0  0  0  0  0
  -32.3389  -11.1196   17.2873 H   0  0  0  0  0  0
  -31.0454  -11.0540   16.1937 H   0  0  0  0  0  0
  -31.4903  -13.3410   15.5148 H   0  0  0  0  0  0
  -32.7884  -13.4374   16.5977 H   0  0  0  0  0  0
  -30.7574  -10.5568   19.1900 H   0  0  0  0  0  0
  -29.4921  -10.4583   18.0594 H   0  0  0  0  0  0
  -30.6634  -15.4203   16.4531 H   0  0  0  0  0  0
  -31.7914  -15.4295   17.6965 H   0  0  0  0  0  0
  -28.5959  -11.8900   19.6103 H   0  0  0  0  0  0
  -28.8796  -15.0570   17.7734 H   0  0  0  0  0  0
  -30.3011  -17.7316   20.0187 H   0  0  0  0  0  0
  -30.4615  -17.9011   18.3197 H   0  0  0  0  0  0
  -26.7559  -24.1684   19.9646 H   0  0  0  0  0  0
  -27.5856  -24.4630   18.4797 H   0  0  0  0  0  0
  -29.3676  -15.0936   19.5356 H   0  0  0  0  0  0
  -28.3514  -16.2810   19.6255 H   0  0  0  0  0  0
  -28.4581  -16.5587   18.0640 H   0  0  0  0  0  0
  1 25  1  0  0  0
  1 30  2  0  0  0
  1 85  1  0  0  0
  2  3  1  0  0  0
  2 25  1  0  0  0
  2 87  1  0  0  0
  2 88  1  0  0  0
  3  4  1  0  0  0
  3 89  1  0  0  0
  3 90  1  0  0  0
  4  5  1  0  0  0
  4 91  1  0  0  0
  4 92  1  0  0  0
  5  6  1  0  0  0
  5 26  1  0  0  0
  5 93  1  0  0  0
  6 25  1  0  0  0
  6 94  1  0  0  0
  6 95  1  0  0  0
  7  8  2  0  0  0
  7 26  1  0  0  0
  7 29  1  0  0  0
  8  9  1  0  0  0
  8 22  1  0  0  0
  9 10  1  0  0  0
  9 27  2  0  0  0
 10 11  2  0  0  0
 10 15  1  0  0  0
 11 12  1  0  0  0
 11 96  1  0  0  0
 12 13  2  0  0  0
 12 97  1  0  0  0
 13 14  1  0  0  0
 13 31  1  0  0  0
 14 15  2  0  0  0
 14 98  1  0  0  0
 15 99  1  0  0  0
 16 17  2  0  0  0
 16 21  1  0  0  0
 16 31  1  0  0  0
 17 18  1  0  0  0
 17100  1  0  0  0
 18 19  2  0  0  0
 18101  1  0  0  0
 19 20  1  0  0  0
 19 24  1  0  0  0
 20 21  2  0  0  0
 20102  1  0  0  0
 21 23  1  0  0  0
 22 28  1  0  0  0
 22 32  2  0  0  0
 26 27  1  0  0  0
 28103  1  0  0  0
 28104  1  0  0  0
 29105  1  0  0  0
 29106  1  0  0  0
 33 34  1  0  0  0
 33 66  1  0  0  0
 33 70  2  0  0  0
 34 36  1  0  0  0
 34 59  1  0  0  0
 34107  1  0  0  0
 35 44  2  0  0  0
 35 45  1  0  0  0
 35 68  1  0  0  0
 36 56  1  0  0  0
 36108  1  0  0  0
 37 39  1  0  0  0
 37 47  1  0  0  0
 37 66  1  0  0  0
 37109  1  0  0  0
 38 43  2  0  0  0
 38 46  1  0  0  0
 38 47  1  0  0  0
 39 64  1  0  0  0
 39 67  2  0  0  0
 40 52  1  0  0  0
 40 53  2  0  0  0
 40 58  1  0  0  0
 41110  1  0  0  0
 41111  1  0  0  0
 41112  1  0  0  0
 41 48  1  0  0  0
 42 43  1  0  0  0
 42 66  1  0  0  0
 42113  1  0  0  0
 42114  1  0  0  0
 43 44  1  0  0  0
 44115  1  0  0  0
 45 46  2  0  0  0
 45116  1  0  0  0
 46117  1  0  0  0
 47118  1  0  0  0
 47119  1  0  0  0
 48 56  1  0  0  0
 48 65  1  0  0  0
 48120  1  0  0  0
 49 50  1  0  0  0
 49 53  1  0  0  0
 49 64  1  0  0  0
 49121  1  0  0  0
 50 51  1  0  0  0
 50122  1  0  0  0
 50123  1  0  0  0
 51 52  1  0  0  0
 51124  1  0  0  0
 51125  1  0  0  0
 52126  1  0  0  0
 52127  1  0  0  0
 53 54  1  0  0  0
 54 55  2  0  0  0
 54128  1  0  0  0
 55 57  1  0  0  0
 55129  1  0  0  0
 56 69  2  0  0  0
 57 58  2  0  0  0
 57130  1  0  0  0
 58131  1  0  0  0
 59 60  1  0  0  0
 59 61  1  0  0  0
 59 62  1  0  0  0
 60132  1  0  0  0
 60133  1  0  0  0
 60134  1  0  0  0
 61135  1  0  0  0
 61136  1  0  0  0
 61137  1  0  0  0
 62138  1  0  0  0
 62139  1  0  0  0
 62140  1  0  0  0
 63 65  1  0  0  0
 63141  1  0  0  0
 63142  1  0  0  0
 63143  1  0  0  0
 64144  1  0  0  0
 65145  1  0  0  0
 68 84  1  0  0  0
 71 73  2  0  0  0
 71 75  1  0  0  0
 71146  1  0  0  0
 72 74  1  0  0  0
 72 75  2  0  0  0
 72147  1  0  0  0
 73 76  1  0  0  0
 73148  1  0  0  0
 74 76  2  0  0  0
 74149  1  0  0  0
 75 83  1  0  0  0
 76 84  1  0  0  0
 77 78  1  0  0  0
 77 79  1  0  0  0
 77150  1  0  0  0
 77151  1  0  0  0
 78 80  1  0  0  0
 78152  1  0  0  0
 78153  1  0  0  0
 79 81  1  0  0  0
 79154  1  0  0  0
 79155  1  0  0  0
 80 82  1  0  0  0
 80156  1  0  0  0
 80157  1  0  0  0
 81 82  1  0  0  0
 81 85  1  0  0  0
 81158  1  0  0  0
 82 86  1  0  0  0
 82159  1  0  0  0
 83 86  1  0  0  0
 83160  1  0  0  0
 83161  1  0  0  0
 84162  1  0  0  0
 84163  1  0  0  0
 85164  1  0  0  0
 86165  1  0  0  0
 86166  1  0  0  0
M  CHG  1  86   1
M  ISO  4   1 100  68 101  84 101  85 100
M  END
> <chiral flag>
0

> <version>
0

> <s_m_source_file>
/data/baiqing/PycharmProjects/Reinvent-master-3.2/result/LINK_invent/BTK/process_docking_weight1_custom_sum_contain_oxygen_bond_distance_aromatic_linkinvent_7_9_3/rearranged_h_0125.sdf

> <i_m_source_file_index>
3

> <r_mmod_Potential_Energy-OPLS-2005>
10505.3603515625

> <r_mmod_Stretch_Energy-OPLS-2005>
5609.45068359375

> <r_mmod_Bend_Energy-OPLS-2005>
1539.2568359375

> <r_mmod_Torsional_Energy-OPLS-2005>
451.748840332031

> <r_mmod_Improper_Torsional_Energy-OPLS-2005>
57.8767356872559

> <r_mmod_Van_der_Waal_Energy-OPLS-2005>
2846.59814453125

> <r_mmod_Electrostatic_Energy-OPLS-2005>
-313.988830566406

> <r_mmod_Solvation_Energy-OPLS-2005>
-486.411376953125

> <b_mmod_Minimization_Converged-OPLS-2005>
0

> <r_mmod_RMS_Derivative-OPLS-2005>
4.25090932846069

$$$$
3
                    3D
 Structure written by MMmdl.
150159  0  0  1  0            999 V2000
  -30.3016  -15.5907   20.3285 C   0  0  0  0  0  0
  -30.4315  -13.0411   19.5483 C   0  0  0  0  0  0
  -29.5523  -12.6482   18.3261 C   0  0  0  0  0  0
  -28.1217  -12.2999   18.7647 C   0  0  0  0  0  0
  -27.6012  -13.3023   19.8195 C   0  0  2  0  0  0
  -28.6185  -13.6066   20.9446 C   0  0  0  0  0  0
  -25.2340  -13.8278   20.5781 C   0  0  0  0  0  0
  -24.1723  -13.0434   20.9281 C   0  0  0  0  0  0
  -24.6417  -11.6942   20.8766 C   0  0  0  0  0  0
  -23.9115  -10.4291   21.0398 C   0  0  0  0  0  0
  -24.3651   -9.4205   21.9181 C   0  0  0  0  0  0
  -23.6314   -8.2247   22.0754 C   0  0  0  0  0  0
  -22.4295   -8.0288   21.3543 C   0  0  0  0  0  0
  -21.9937   -9.0264   20.4647 C   0  0  0  0  0  0
  -22.7278  -10.2136   20.3055 C   0  0  0  0  0  0
  -21.6858   -6.0744   22.5277 C   0  0  0  0  0  0
  -21.4019   -6.5646   23.8212 C   0  0  0  0  0  0
  -21.3659   -5.6796   24.9173 C   0  0  0  0  0  0
  -21.6041   -4.3058   24.7222 C   0  0  0  0  0  0
  -21.8818   -3.8154   23.4344 C   0  0  0  0  0  0
  -21.9195   -4.6972   22.3401 C   0  0  0  0  0  0
  -22.7737  -13.5172   21.1916 C   0  0  0  0  0  0
  -22.1663   -4.2155   21.0978 F   0  0  0  0  0  0
  -21.5625   -3.4541   25.7736 F   0  0  0  0  0  0
  -29.8056  -14.2168   20.3031 N   0  0  0  0  0  0
  -26.2791  -12.9600   20.3244 N   0  0  0  0  0  0
  -25.9364  -11.6676   20.5714 N   0  0  0  0  0  0
  -22.0402  -12.8152   22.0472 N   0  0  0  0  0  0
  -25.3935  -15.2019   20.4207 N   0  0  0  0  0  0
  -31.5283  -15.5669   20.1115 O   0  0  0  0  0  0
  -21.6650   -6.8891   21.4242 O   0  0  0  0  0  0
  -22.3410  -14.5469   20.6750 O   0  0  0  0  0  0
  -24.6842  -31.7999   23.1514 C   0  0  0  0  0  0
  -25.9425  -32.4465   23.8057 C   0  0  1  0  0  0
  -27.2288  -26.7113   20.2084 C   0  0  0  0  0  0
  -25.6008  -33.8288   24.1954 N   0  0  0  0  0  0
  -23.5100  -30.4030   21.5046 C   0  0  2  0  0  0
  -24.9682  -28.7462   20.1140 C   0  0  0  0  0  0
  -22.7771  -29.4324   22.4703 C   0  0  0  0  0  0
  -18.0346  -28.1435   22.8461 C   0  0  0  0  0  0
  -24.1489  -36.7139   23.2655 C   0  0  0  0  0  0
  -26.0903  -30.5342   21.4161 C   0  0  0  0  0  0
  -26.1559  -29.1009   20.7644 C   0  0  0  0  0  0
  -27.2704  -28.1104   20.7821 C   0  0  0  0  0  0
  -26.0100  -26.5661   19.4968 C   0  0  0  0  0  0
  -24.9342  -27.5041   19.4564 C   0  0  0  0  0  0
  -23.7637  -29.7004   20.1392 C   0  0  0  0  0  0
  -25.4139  -36.2888   24.0285 C   0  0  1  0  0  0
  -20.5984  -28.3790   23.1146 C   0  0  2  0  0  0
  -20.6808  -26.9449   22.5409 C   0  0  0  0  0  0
  -19.5779  -26.6385   21.5224 C   0  0  0  0  0  0
  -18.1964  -26.7962   22.1630 C   0  0  0  0  0  0
  -19.1613  -28.8936   23.2786 C   0  0  0  0  0  0
  -18.9517  -30.1522   23.8826 C   0  0  0  0  0  0
  -17.6507  -30.6613   24.0559 C   0  0  0  0  0  0
  -25.9124  -34.9282   23.4953 C   0  0  0  0  0  0
  -16.5397  -29.9096   23.6359 C   0  0  0  0  0  0
  -16.7326  -28.6522   23.0371 C   0  0  0  0  0  0
  -26.4602  -31.6499   25.0679 C   0  0  0  0  0  0
  -25.3665  -31.3822   26.1294 C   0  0  0  0  0  0
  -27.0538  -30.2836   24.6585 C   0  0  0  0  0  0
  -27.6048  -32.4364   25.7492 C   0  0  0  0  0  0
  -27.5556  -37.1729   24.8470 C   0  0  0  0  0  0
  -21.4418  -29.3030   22.3452 N   0  0  0  0  0  0
  -26.4261  -37.3654   23.9413 N   0  0  0  0  0  0
  -24.7847  -30.9459   22.0758 N   0  0  0  0  0  0
  -23.4213  -28.7933   23.3055 O   0  0  0  0  0  0
  -28.1786  -25.4862   20.3062 O   0  0  0  0  0  0
  -26.5761  -34.8862   22.4569 O   0  0  0  0  0  0
  -23.5866  -32.1071   23.6480 O   0  0  0  0  0  0
  -27.2302  -20.8201   23.5010 C   0  0  0  0  0  0
  -27.5219  -19.4519   23.5576 C   0  0  0  0  0  0
  -27.6316  -21.5895   22.3985 C   0  0  0  0  0  0
  -28.2202  -18.8268   22.5124 C   0  0  0  0  0  0
  -29.3401  -21.1514   19.3109 C   0  0  0  0  0  0
  -29.6719  -19.6560   19.3709 C   0  0  0  0  0  0
  -28.3445  -21.0407   21.3080 C   0  0  0  0  0  0
  -28.6654  -19.5264   21.3667 C   0  0  0  0  0  0
  -28.6327  -22.0653   20.2591 C   0  0  0  0  0  0
  -29.3702  -18.6227   20.4006 C   0  0  0  0  0  0
  -27.9201  -23.7813   20.0080 C   0  0  0  0  0  0
  -29.4778  -16.9000   20.4546 N   0  0  0  0  0  0
  -31.4293  -13.2968   19.1903 H   0  0  0  0  0  0
  -30.5797  -12.1851   20.2091 H   0  0  0  0  0  0
  -29.9966  -11.8095   17.7879 H   0  0  0  0  0  0
  -29.5226  -13.4834   17.6248 H   0  0  0  0  0  0
  -28.1398  -11.2979   19.1954 H   0  0  0  0  0  0
  -27.4524  -12.2542   17.9047 H   0  0  0  0  0  0
  -27.4748  -14.2327   19.2640 H   0  0  0  0  0  0
  -28.8632  -12.7135   21.5220 H   0  0  0  0  0  0
  -28.1927  -14.3198   21.6516 H   0  0  0  0  0  0
  -25.2789   -9.5682   22.4766 H   0  0  0  0  0  0
  -24.0014   -7.4641   22.7478 H   0  0  0  0  0  0
  -21.0865   -8.8795   19.8955 H   0  0  0  0  0  0
  -22.3733  -10.9683   19.6172 H   0  0  0  0  0  0
  -21.2015   -7.6153   23.9717 H   0  0  0  0  0  0
  -21.1478   -6.0526   25.9075 H   0  0  0  0  0  0
  -22.0598   -2.7616   23.2841 H   0  0  0  0  0  0
  -22.4043  -11.9823   22.4860 H   0  0  0  0  0  0
  -21.1017  -13.1158   22.2686 H   0  0  0  0  0  0
  -24.6156  -15.8449   20.5213 H   0  0  0  0  0  0
  -26.2259  -15.6434   20.0538 H   0  0  0  0  0  0
  -26.7508  -32.4943   23.0769 H   0  0  0  0  0  0
  -25.0073  -33.9316   25.0053 H   0  0  0  0  0  0
  -22.8355  -31.2406   21.3157 H   0  0  0  0  0  0
  -23.3772  -35.9447   23.3274 H   0  0  0  0  0  0
  -24.3553  -36.8838   22.2077 H   0  0  0  0  0  0
  -23.7224  -37.6299   23.6752 H   0  0  0  0  0  0
  -26.2982  -31.2610   20.6297 H   0  0  0  0  0  0
  -26.9386  -30.5972   22.0845 H   0  0  0  0  0  0
  -28.1605  -28.3856   21.3301 H   0  0  0  0  0  0
  -25.8438  -25.6250   18.9924 H   0  0  0  0  0  0
  -24.0384  -27.2258   18.9179 H   0  0  0  0  0  0
  -23.9385  -30.4604   19.3769 H   0  0  0  0  0  0
  -22.8678  -29.1674   19.8160 H   0  0  0  0  0  0
  -25.1352  -36.1642   25.0775 H   0  0  0  0  0  0
  -21.0076  -28.3416   24.1270 H   0  0  0  0  0  0
  -20.5680  -26.2414   23.3675 H   0  0  0  0  0  0
  -21.6668  -26.7392   22.1223 H   0  0  0  0  0  0
  -19.6929  -25.6277   21.1298 H   0  0  0  0  0  0
  -19.6719  -27.3156   20.6721 H   0  0  0  0  0  0
  -17.4239  -26.6721   21.4027 H   0  0  0  0  0  0
  -18.0339  -26.0122   22.9041 H   0  0  0  0  0  0
  -19.7990  -30.7364   24.2158 H   0  0  0  0  0  0
  -17.5057  -31.6282   24.5181 H   0  0  0  0  0  0
  -15.5395  -30.2978   23.7719 H   0  0  0  0  0  0
  -15.8729  -28.0818   22.7121 H   0  0  0  0  0  0
  -24.5869  -30.7151   25.7600 H   0  0  0  0  0  0
  -24.8838  -32.3050   26.4522 H   0  0  0  0  0  0
  -25.7847  -30.9118   27.0201 H   0  0  0  0  0  0
  -26.3259  -29.6446   24.1576 H   0  0  0  0  0  0
  -27.3960  -29.7289   25.5331 H   0  0  0  0  0  0
  -27.9243  -30.3963   24.0117 H   0  0  0  0  0  0
  -27.2584  -33.3733   26.1864 H   0  0  0  0  0  0
  -28.3961  -32.6816   25.0397 H   0  0  0  0  0  0
  -28.0599  -31.8630   26.5578 H   0  0  0  0  0  0
  -28.2561  -38.0036   24.7517 H   0  0  0  0  0  0
  -28.1070  -36.2565   24.6306 H   0  0  0  0  0  0
  -27.2278  -37.1374   25.8875 H   0  0  0  0  0  0
  -20.9728  -29.8669   21.6501 H   0  0  0  0  0  0
  -26.0089  -38.2701   24.1435 H   0  0  0  0  0  0
  -26.6924  -21.2884   24.3139 H   0  0  0  0  0  0
  -27.2076  -18.8712   24.4141 H   0  0  0  0  0  0
  -27.3846  -22.6414   22.4117 H   0  0  0  0  0  0
  -28.4190  -17.7706   22.6183 H   0  0  0  0  0  0
  -29.6285  -21.6239   18.3825 H   0  0  0  0  0  0
  -30.1606  -19.2734   18.4858 H   0  0  0  0  0  0
  -26.9036  -23.6508   20.3787 H   0  0  0  0  0  0
  -27.7869  -23.7844   18.9260 H   0  0  0  0  0  0
  -28.5666  -16.5592   20.7229 H   0  0  0  0  0  0
  1 25  1  0  0  0
  1 30  2  0  0  0
  1 82  1  0  0  0
  2  3  1  0  0  0
  2 25  1  0  0  0
  2 83  1  0  0  0
  2 84  1  0  0  0
  3  4  1  0  0  0
  3 85  1  0  0  0
  3 86  1  0  0  0
  4  5  1  0  0  0
  4 87  1  0  0  0
  4 88  1  0  0  0
  5  6  1  0  0  0
  5 26  1  0  0  0
  5 89  1  0  0  0
  6 25  1  0  0  0
  6 90  1  0  0  0
  6 91  1  0  0  0
  7  8  2  0  0  0
  7 26  1  0  0  0
  7 29  1  0  0  0
  8  9  1  0  0  0
  8 22  1  0  0  0
  9 10  1  0  0  0
  9 27  2  0  0  0
 10 11  2  0  0  0
 10 15  1  0  0  0
 11 12  1  0  0  0
 11 92  1  0  0  0
 12 13  2  0  0  0
 12 93  1  0  0  0
 13 14  1  0  0  0
 13 31  1  0  0  0
 14 15  2  0  0  0
 14 94  1  0  0  0
 15 95  1  0  0  0
 16 17  2  0  0  0
 16 21  1  0  0  0
 16 31  1  0  0  0
 17 18  1  0  0  0
 17 96  1  0  0  0
 18 19  2  0  0  0
 18 97  1  0  0  0
 19 20  1  0  0  0
 19 24  1  0  0  0
 20 21  2  0  0  0
 20 98  1  0  0  0
 21 23  1  0  0  0
 22 28  1  0  0  0
 22 32  2  0  0  0
 26 27  1  0  0  0
 28 99  1  0  0  0
 28100  1  0  0  0
 29101  1  0  0  0
 29102  1  0  0  0
 33 34  1  0  0  0
 33 66  1  0  0  0
 33 70  2  0  0  0
 34 36  1  0  0  0
 34 59  1  0  0  0
 34103  1  0  0  0
 35 44  2  0  0  0
 35 45  1  0  0  0
 35 68  1  0  0  0
 36 56  1  0  0  0
 36104  1  0  0  0
 37 39  1  0  0  0
 37 47  1  0  0  0
 37 66  1  0  0  0
 37105  1  0  0  0
 38 43  2  0  0  0
 38 46  1  0  0  0
 38 47  1  0  0  0
 39 64  1  0  0  0
 39 67  2  0  0  0
 40 52  1  0  0  0
 40 53  2  0  0  0
 40 58  1  0  0  0
 41106  1  0  0  0
 41107  1  0  0  0
 41108  1  0  0  0
 41 48  1  0  0  0
 42 43  1  0  0  0
 42 66  1  0  0  0
 42109  1  0  0  0
 42110  1  0  0  0
 43 44  1  0  0  0
 44111  1  0  0  0
 45 46  2  0  0  0
 45112  1  0  0  0
 46113  1  0  0  0
 47114  1  0  0  0
 47115  1  0  0  0
 48 56  1  0  0  0
 48 65  1  0  0  0
 48116  1  0  0  0
 49 50  1  0  0  0
 49 53  1  0  0  0
 49 64  1  0  0  0
 49117  1  0  0  0
 50 51  1  0  0  0
 50118  1  0  0  0
 50119  1  0  0  0
 51 52  1  0  0  0
 51120  1  0  0  0
 51121  1  0  0  0
 52122  1  0  0  0
 52123  1  0  0  0
 53 54  1  0  0  0
 54 55  2  0  0  0
 54124  1  0  0  0
 55 57  1  0  0  0
 55125  1  0  0  0
 56 69  2  0  0  0
 57 58  2  0  0  0
 57126  1  0  0  0
 58127  1  0  0  0
 59 60  1  0  0  0
 59 61  1  0  0  0
 59 62  1  0  0  0
 60128  1  0  0  0
 60129  1  0  0  0
 60130  1  0  0  0
 61131  1  0  0  0
 61132  1  0  0  0
 61133  1  0  0  0
 62134  1  0  0  0
 62135  1  0  0  0
 62136  1  0  0  0
 63 65  1  0  0  0
 63137  1  0  0  0
 63138  1  0  0  0
 63139  1  0  0  0
 64140  1  0  0  0
 65141  1  0  0  0
 68 81  1  0  0  0
 71 72  2  0  0  0
 71 73  1  0  0  0
 71142  1  0  0  0
 72 74  1  0  0  0
 72143  1  0  0  0
 73 77  2  0  0  0
 73144  1  0  0  0
 74 78  2  0  0  0
 74145  1  0  0  0
 75 76  1  0  0  0
 75 79  2  0  0  0
 75146  1  0  0  0
 76 80  2  0  0  0
 76147  1  0  0  0
 77 78  1  0  0  0
 77 79  1  0  0  0
 78 80  1  0  0  0
 79 81  1  0  0  0
 80 82  1  0  0  0
 81148  1  0  0  0
 81149  1  0  0  0
 82150  1  0  0  0
M  ISO  4   1 100  68 101  81 101  82 100
M  END
> <chiral flag>
0

> <version>
0

> <s_m_source_file>
/data/baiqing/PycharmProjects/Reinvent-master-3.2/result/LINK_invent/BTK/process_docking_weight1_custom_sum_contain_oxygen_bond_distance_aromatic_linkinvent_7_9_3/rearranged_h_0125.sdf

> <i_m_source_file_index>
4

> <r_mmod_Potential_Energy-OPLS-2005>
2279.20971679688

> <r_mmod_Stretch_Energy-OPLS-2005>
930.93212890625

> <r_mmod_Bend_Energy-OPLS-2005>
652.552001953125

> <r_mmod_Torsional_Energy-OPLS-2005>
248.398284912109

> <r_mmod_Improper_Torsional_Energy-OPLS-2005>
8.43902587890625

> <r_mmod_Van_der_Waal_Energy-OPLS-2005>
146.074157714844

> <r_mmod_Electrostatic_Energy-OPLS-2005>
-350.524597167969

> <r_mmod_Solvation_Energy-OPLS-2005>
-218.824676513672

> <b_mmod_Minimization_Converged-OPLS-2005>
0

> <r_mmod_RMS_Derivative-OPLS-2005>
0.767488300800323

$$$$
4
                    3D
 Structure written by MMmdl.
163172  0  0  1  0            999 V2000
  -30.6926  -14.5109   20.5673 C   0  0  0  0  0  0
  -30.4203  -12.3314   19.4303 C   0  0  0  0  0  0
  -29.4936  -12.5079   18.2100 C   0  0  0  0  0  0
  -28.0165  -12.3636   18.6255 C   0  0  0  0  0  0
  -27.6583  -13.2105   19.8762 C   0  0  2  0  0  0
  -28.7019  -13.0143   20.9980 C   0  0  0  0  0  0
  -25.2577  -13.8160   20.5723 C   0  0  0  0  0  0
  -24.1822  -13.0440   20.9199 C   0  0  0  0  0  0
  -24.6378  -11.6909   20.8754 C   0  0  0  0  0  0
  -23.9046  -10.4287   21.0414 C   0  0  0  0  0  0
  -24.3610   -9.4200   21.9189 C   0  0  0  0  0  0
  -23.6291   -8.2229   22.0748 C   0  0  0  0  0  0
  -22.4268   -8.0276   21.3540 C   0  0  0  0  0  0
  -21.9901   -9.0249   20.4641 C   0  0  0  0  0  0
  -22.7221  -10.2136   20.3058 C   0  0  0  0  0  0
  -21.6847   -6.0732   22.5274 C   0  0  0  0  0  0
  -21.4017   -6.5640   23.8205 C   0  0  0  0  0  0
  -21.3663   -5.6794   24.9173 C   0  0  0  0  0  0
  -21.6048   -4.3054   24.7222 C   0  0  0  0  0  0
  -21.8818   -3.8142   23.4341 C   0  0  0  0  0  0
  -21.9194   -4.6960   22.3399 C   0  0  0  0  0  0
  -22.7851  -13.5243   21.1853 C   0  0  0  0  0  0
  -22.1660   -4.2144   21.0976 F   0  0  0  0  0  0
  -21.5634   -3.4542   25.7734 F   0  0  0  0  0  0
  -30.0244  -13.3303   20.4359 N   0  0  0  0  0  0
  -26.3010  -12.9336   20.3394 N   0  0  0  0  0  0
  -25.9309  -11.6489   20.5788 N   0  0  0  0  0  0
  -22.0493  -12.8241   22.0417 N   0  0  0  0  0  0
  -25.4313  -15.1884   20.4148 N   0  0  0  0  0  0
  -31.8325  -14.6781   20.1226 O   0  0  0  0  0  0
  -21.6637   -6.8877   21.4227 O   0  0  0  0  0  0
  -22.3540  -14.5545   20.6691 O   0  0  0  0  0  0
  -24.6191  -31.8663   23.2084 C   0  0  0  0  0  0
  -25.9062  -32.4815   23.8415 C   0  0  1  0  0  0
  -27.2217  -27.3828   20.0980 C   0  0  0  0  0  0
  -25.5916  -33.8624   24.2349 N   0  0  0  0  0  0
  -23.4098  -30.4904   21.5516 C   0  0  2  0  0  0
  -24.8540  -28.9600   20.1099 C   0  0  0  0  0  0
  -22.7460  -29.4632   22.4981 C   0  0  0  0  0  0
  -18.0281  -28.1361   22.8501 C   0  0  0  0  0  0
  -24.1496  -36.7309   23.2641 C   0  0  0  0  0  0
  -25.9454  -30.8142   21.3720 C   0  0  0  0  0  0
  -26.0189  -29.4472   20.7151 C   0  0  0  0  0  0
  -27.2042  -28.6665   20.7070 C   0  0  0  0  0  0
  -26.0350  -26.9386   19.4639 C   0  0  0  0  0  0
  -24.8601  -27.7074   19.4800 C   0  0  0  0  0  0
  -23.6194  -29.8314   20.1631 C   0  0  0  0  0  0
  -25.4118  -36.3120   24.0345 C   0  0  1  0  0  0
  -20.5885  -28.3664   23.1301 C   0  0  2  0  0  0
  -20.6770  -26.9396   22.5416 C   0  0  0  0  0  0
  -19.5735  -26.6376   21.5226 C   0  0  0  0  0  0
  -18.1920  -26.7907   22.1641 C   0  0  0  0  0  0
  -19.1536  -28.8831   23.2893 C   0  0  0  0  0  0
  -18.9460  -30.1438   23.8906 C   0  0  0  0  0  0
  -17.6458  -30.6568   24.0564 C   0  0  0  0  0  0
  -25.9039  -34.9477   23.5145 C   0  0  0  0  0  0
  -16.5350  -29.9074   23.6317 C   0  0  0  0  0  0
  -16.7275  -28.6482   23.0354 C   0  0  0  0  0  0
  -26.4481  -31.6581   25.0740 C   0  0  0  0  0  0
  -25.3744  -31.3692   26.1485 C   0  0  0  0  0  0
  -27.0297  -30.3017   24.6104 C   0  0  0  0  0  0
  -27.6058  -32.4302   25.7499 C   0  0  0  0  0  0
  -27.5580  -37.1830   24.8477 C   0  0  0  0  0  0
  -21.4182  -29.3023   22.3711 N   0  0  0  0  0  0
  -26.4312  -37.3790   23.9394 N   0  0  0  0  0  0
  -24.6767  -31.0725   22.1009 N   0  0  0  0  0  0
  -23.4219  -28.8164   23.3023 O   0  0  0  0  0  0
  -28.3637  -26.5869   20.1496 O   0  0  0  0  0  0
  -26.5600  -34.8918   22.4706 O   0  0  0  0  0  0
  -23.5365  -32.1451   23.7423 O   0  0  0  0  0  0
  -29.8136  -21.5016   17.6734 C   0  0  0  0  0  0
  -29.5834  -20.3110   18.3857 C   0  0  0  0  0  0
  -29.7155  -22.7467   18.3186 C   0  0  0  0  0  0
  -29.1856  -21.6084   20.4088 C   0  0  0  0  0  0
  -29.2712  -20.3319   19.7632 C   0  0  0  0  0  0
  -29.3915  -22.8250   19.6880 C   0  0  0  0  0  0
  -29.5436  -18.7642   22.9461 C   0  0  0  0  0  0
  -28.4657  -19.0151   21.8868 C   0  0  0  0  0  0
  -30.0517  -17.3159   22.8512 C   0  0  0  0  0  0
  -30.2695  -17.9936   20.3331 C   0  0  0  0  0  0
  -29.0353  -18.9567   20.4526 C   0  0  2  0  0  0
  -30.5023  -16.8937   21.4301 C   0  0  1  0  0  0
  -29.3410  -24.2257   20.3455 C   0  0  0  0  0  0
  -28.2320  -25.1785   19.7986 C   0  0  0  0  0  0
  -29.9926  -15.5397   21.0984 N   0  0  0  0  0  0
  -31.4640  -12.4340   19.1306 H   0  0  0  0  0  0
  -30.3277  -11.3260   19.8454 H   0  0  0  0  0  0
  -29.7397  -11.7732   17.4421 H   0  0  0  0  0  0
  -29.6539  -13.4898   17.7615 H   0  0  0  0  0  0
  -27.8346  -11.3094   18.8360 H   0  0  0  0  0  0
  -27.3622  -12.6264   17.7929 H   0  0  0  0  0  0
  -27.6953  -14.2558   19.5689 H   0  0  0  0  0  0
  -28.6891  -11.9821   21.3535 H   0  0  0  0  0  0
  -28.4624  -13.6279   21.8671 H   0  0  0  0  0  0
  -25.2751   -9.5690   22.4777 H   0  0  0  0  0  0
  -24.0007   -7.4618   22.7470 H   0  0  0  0  0  0
  -21.0832   -8.8769   19.8945 H   0  0  0  0  0  0
  -22.3670  -10.9690   19.6185 H   0  0  0  0  0  0
  -21.2001   -7.6148   23.9710 H   0  0  0  0  0  0
  -21.1495   -6.0524   25.9080 H   0  0  0  0  0  0
  -22.0595   -2.7602   23.2840 H   0  0  0  0  0  0
  -22.4105  -11.9914   22.4826 H   0  0  0  0  0  0
  -21.1118  -13.1274   22.2616 H   0  0  0  0  0  0
  -24.6680  -15.8469   20.5254 H   0  0  0  0  0  0
  -26.2868  -15.6234   20.0937 H   0  0  0  0  0  0
  -26.7127  -32.5507   23.1172 H   0  0  0  0  0  0
  -25.0118  -33.9812   25.0528 H   0  0  0  0  0  0
  -22.7007  -31.3091   21.4150 H   0  0  0  0  0  0
  -23.3745  -35.9659   23.3355 H   0  0  0  0  0  0
  -24.3583  -36.8849   22.2042 H   0  0  0  0  0  0
  -23.7256  -37.6540   23.6609 H   0  0  0  0  0  0
  -26.0705  -31.5794   20.6045 H   0  0  0  0  0  0
  -26.8281  -30.8632   21.9975 H   0  0  0  0  0  0
  -28.0979  -29.0339   21.1921 H   0  0  0  0  0  0
  -25.9819  -25.9905   18.9499 H   0  0  0  0  0  0
  -23.9671  -27.3322   18.9992 H   0  0  0  0  0  0
  -23.7327  -30.6113   19.4087 H   0  0  0  0  0  0
  -22.7413  -29.2566   19.8615 H   0  0  0  0  0  0
  -25.1286  -36.2025   25.0840 H   0  0  0  0  0  0
  -20.9982  -28.3229   24.1419 H   0  0  0  0  0  0
  -20.5699  -26.2283   23.3617 H   0  0  0  0  0  0
  -21.6631  -26.7436   22.1191 H   0  0  0  0  0  0
  -19.6898  -25.6303   21.1217 H   0  0  0  0  0  0
  -19.6636  -27.3222   20.6784 H   0  0  0  0  0  0
  -17.4199  -26.6686   21.4028 H   0  0  0  0  0  0
  -18.0283  -26.0036   22.9019 H   0  0  0  0  0  0
  -19.7938  -30.7246   24.2276 H   0  0  0  0  0  0
  -17.5013  -31.6244   24.5171 H   0  0  0  0  0  0
  -15.5349  -30.2980   23.7601 H   0  0  0  0  0  0
  -15.8683  -28.0790   22.7067 H   0  0  0  0  0  0
  -24.5957  -30.6981   25.7840 H   0  0  0  0  0  0
  -24.8894  -32.2838   26.4907 H   0  0  0  0  0  0
  -25.8108  -30.8913   27.0264 H   0  0  0  0  0  0
  -26.2840  -29.6817   24.1112 H   0  0  0  0  0  0
  -27.4014  -29.7205   25.4552 H   0  0  0  0  0  0
  -27.8707  -30.4330   23.9290 H   0  0  0  0  0  0
  -27.2679  -33.3599   26.2095 H   0  0  0  0  0  0
  -28.3852  -32.6862   25.0307 H   0  0  0  0  0  0
  -28.0750  -31.8421   26.5398 H   0  0  0  0  0  0
  -28.2646  -38.0081   24.7462 H   0  0  0  0  0  0
  -28.1025  -36.2609   24.6385 H   0  0  0  0  0  0
  -27.2288  -37.1566   25.8881 H   0  0  0  0  0  0
  -20.9376  -29.8774   21.6935 H   0  0  0  0  0  0
  -26.0211  -38.2884   24.1345 H   0  0  0  0  0  0
  -30.0689  -21.4619   16.6233 H   0  0  0  0  0  0
  -29.6514  -19.3662   17.8636 H   0  0  0  0  0  0
  -29.9016  -23.6496   17.7511 H   0  0  0  0  0  0
  -28.9655  -21.6698   21.4640 H   0  0  0  0  0  0
  -29.1347  -18.9388   23.9415 H   0  0  0  0  0  0
  -30.3645  -19.4726   22.8237 H   0  0  0  0  0  0
  -27.8989  -19.9239   22.0790 H   0  0  0  0  0  0
  -27.7261  -18.2192   21.9896 H   0  0  0  0  0  0
  -29.2489  -16.6615   23.1950 H   0  0  0  0  0  0
  -30.8679  -17.1661   23.5609 H   0  0  0  0  0  0
  -31.1475  -18.6398   20.3933 H   0  0  0  0  0  0
  -30.3255  -17.5600   19.3347 H   0  0  0  0  0  0
  -28.2398  -18.4978   19.8611 H   0  0  0  0  0  0
  -31.5877  -16.7941   21.4927 H   0  0  0  0  0  0
  -30.3134  -24.6908   20.1847 H   0  0  0  0  0  0
  -29.2303  -24.1206   21.4259 H   0  0  0  0  0  0
  -27.2876  -24.7704   20.1618 H   0  0  0  0  0  0
  -28.2099  -25.1235   18.7106 H   0  0  0  0  0  0
  -29.0463  -15.3316   21.3788 H   0  0  0  0  0  0
  1 25  1  0  0  0
  1 30  2  0  0  0
  1 85  1  0  0  0
  2  3  1  0  0  0
  2 25  1  0  0  0
  2 86  1  0  0  0
  2 87  1  0  0  0
  3  4  1  0  0  0
  3 88  1  0  0  0
  3 89  1  0  0  0
  4  5  1  0  0  0
  4 90  1  0  0  0
  4 91  1  0  0  0
  5  6  1  0  0  0
  5 26  1  0  0  0
  5 92  1  0  0  0
  6 25  1  0  0  0
  6 93  1  0  0  0
  6 94  1  0  0  0
  7  8  2  0  0  0
  7 26  1  0  0  0
  7 29  1  0  0  0
  8  9  1  0  0  0
  8 22  1  0  0  0
  9 10  1  0  0  0
  9 27  2  0  0  0
 10 11  2  0  0  0
 10 15  1  0  0  0
 11 12  1  0  0  0
 11 95  1  0  0  0
 12 13  2  0  0  0
 12 96  1  0  0  0
 13 14  1  0  0  0
 13 31  1  0  0  0
 14 15  2  0  0  0
 14 97  1  0  0  0
 15 98  1  0  0  0
 16 17  2  0  0  0
 16 21  1  0  0  0
 16 31  1  0  0  0
 17 18  1  0  0  0
 17 99  1  0  0  0
 18 19  2  0  0  0
 18100  1  0  0  0
 19 20  1  0  0  0
 19 24  1  0  0  0
 20 21  2  0  0  0
 20101  1  0  0  0
 21 23  1  0  0  0
 22 28  1  0  0  0
 22 32  2  0  0  0
 26 27  1  0  0  0
 28102  1  0  0  0
 28103  1  0  0  0
 29104  1  0  0  0
 29105  1  0  0  0
 33 34  1  0  0  0
 33 66  1  0  0  0
 33 70  2  0  0  0
 34 36  1  0  0  0
 34 59  1  0  0  0
 34106  1  0  0  0
 35 44  2  0  0  0
 35 45  1  0  0  0
 35 68  1  0  0  0
 36 56  1  0  0  0
 36107  1  0  0  0
 37 39  1  0  0  0
 37 47  1  0  0  0
 37 66  1  0  0  0
 37108  1  0  0  0
 38 43  2  0  0  0
 38 46  1  0  0  0
 38 47  1  0  0  0
 39 64  1  0  0  0
 39 67  2  0  0  0
 40 52  1  0  0  0
 40 53  2  0  0  0
 40 58  1  0  0  0
 41109  1  0  0  0
 41110  1  0  0  0
 41111  1  0  0  0
 41 48  1  0  0  0
 42 43  1  0  0  0
 42 66  1  0  0  0
 42112  1  0  0  0
 42113  1  0  0  0
 43 44  1  0  0  0
 44114  1  0  0  0
 45 46  2  0  0  0
 45115  1  0  0  0
 46116  1  0  0  0
 47117  1  0  0  0
 47118  1  0  0  0
 48 56  1  0  0  0
 48 65  1  0  0  0
 48119  1  0  0  0
 49 50  1  0  0  0
 49 53  1  0  0  0
 49 64  1  0  0  0
 49120  1  0  0  0
 50 51  1  0  0  0
 50121  1  0  0  0
 50122  1  0  0  0
 51 52  1  0  0  0
 51123  1  0  0  0
 51124  1  0  0  0
 52125  1  0  0  0
 52126  1  0  0  0
 53 54  1  0  0  0
 54 55  2  0  0  0
 54127  1  0  0  0
 55 57  1  0  0  0
 55128  1  0  0  0
 56 69  2  0  0  0
 57 58  2  0  0  0
 57129  1  0  0  0
 58130  1  0  0  0
 59 60  1  0  0  0
 59 61  1  0  0  0
 59 62  1  0  0  0
 60131  1  0  0  0
 60132  1  0  0  0
 60133  1  0  0  0
 61134  1  0  0  0
 61135  1  0  0  0
 61136  1  0  0  0
 62137  1  0  0  0
 62138  1  0  0  0
 62139  1  0  0  0
 63 65  1  0  0  0
 63140  1  0  0  0
 63141  1  0  0  0
 63142  1  0  0  0
 64143  1  0  0  0
 65144  1  0  0  0
 68 84  1  0  0  0
 71 72  2  0  0  0
 71 73  1  0  0  0
 71145  1  0  0  0
 72 75  1  0  0  0
 72146  1  0  0  0
 73 76  2  0  0  0
 73147  1  0  0  0
 74 75  2  0  0  0
 74 76  1  0  0  0
 74148  1  0  0  0
 75 81  1  0  0  0
 76 83  1  0  0  0
 77 78  1  0  0  0
 77 79  1  0  0  0
 77149  1  0  0  0
 77150  1  0  0  0
 78 81  1  0  0  0
 78151  1  0  0  0
 78152  1  0  0  0
 79 82  1  0  0  0
 79153  1  0  0  0
 79154  1  0  0  0
 80 81  1  0  0  0
 80 82  1  0  0  0
 80155  1  0  0  0
 80156  1  0  0  0
 81157  1  0  0  0
 82 85  1  0  0  0
 82158  1  0  0  0
 83 84  1  0  0  0
 83159  1  0  0  0
 83160  1  0  0  0
 84161  1  0  0  0
 84162  1  0  0  0
 85163  1  0  0  0
M  ISO  4   1 100  68 101  84 101  85 100
M  END
> <chiral flag>
0

> <version>
0

> <s_m_source_file>
/data/baiqing/PycharmProjects/Reinvent-master-3.2/result/LINK_invent/BTK/process_docking_weight1_custom_sum_contain_oxygen_bond_distance_aromatic_linkinvent_7_9_3/rearranged_h_0125.sdf

> <i_m_source_file_index>
5

> <r_mmod_Potential_Energy-OPLS-2005>
31.5253467559814

> <r_mmod_Stretch_Energy-OPLS-2005>
52.8494682312012

> <r_mmod_Bend_Energy-OPLS-2005>
119.863525390625

> <r_mmod_Torsional_Energy-OPLS-2005>
234.563430786133

> <r_mmod_Improper_Torsional_Energy-OPLS-2005>
2.93774652481079

> <r_mmod_Van_der_Waal_Energy-OPLS-2005>
160.055297851562

> <r_mmod_Electrostatic_Energy-OPLS-2005>
-361.309753417969

> <r_mmod_Solvation_Energy-OPLS-2005>
-199.367752075195

> <b_mmod_Minimization_Converged-OPLS-2005>
0

> <r_mmod_RMS_Derivative-OPLS-2005>
2.15826511383057

$$$$
5
                    3D
 Structure written by MMmdl.
159167  0  0  1  0            999 V2000
  -29.2984  -16.7342   20.3882 C   0  0  0  0  0  0
  -30.1268  -13.9960   19.5692 C   0  0  0  0  0  0
  -29.5166  -13.0141   18.4670 C   0  0  0  0  0  0
  -28.2130  -12.3667   18.9324 C   0  0  0  0  0  0
  -27.4955  -13.3868   19.8224 C   0  0  2  0  0  0
  -28.3411  -14.0887   20.9196 C   0  0  0  0  0  0
  -25.1788  -13.8319   20.5865 C   0  0  0  0  0  0
  -24.1351  -13.0358   20.9362 C   0  0  0  0  0  0
  -24.6210  -11.6905   20.8811 C   0  0  0  0  0  0
  -23.9021  -10.4236   21.0413 C   0  0  0  0  0  0
  -24.3593   -9.4178   21.9201 C   0  0  0  0  0  0
  -23.6285   -8.2205   22.0761 C   0  0  0  0  0  0
  -22.4271   -8.0236   21.3540 C   0  0  0  0  0  0
  -21.9892   -9.0197   20.4635 C   0  0  0  0  0  0
  -22.7203  -10.2079   20.3054 C   0  0  0  0  0  0
  -21.6847   -6.0712   22.5272 C   0  0  0  0  0  0
  -21.4012   -6.5627   23.8202 C   0  0  0  0  0  0
  -21.3665   -5.6787   24.9172 C   0  0  0  0  0  0
  -21.6039   -4.3046   24.7231 C   0  0  0  0  0  0
  -21.8824   -3.8132   23.4357 C   0  0  0  0  0  0
  -21.9190   -4.6942   22.3405 C   0  0  0  0  0  0
  -22.7397  -13.5059   21.1990 C   0  0  0  0  0  0
  -22.1657   -4.2125   21.0984 F   0  0  0  0  0  0
  -21.5631   -3.4536   25.7750 F   0  0  0  0  0  0
  -29.1634  -15.1404   20.2274 N   0  0  0  0  0  0
  -26.2201  -12.9732   20.3266 N   0  0  0  0  0  0
  -25.9144  -11.6742   20.5656 N   0  0  0  0  0  0
  -22.0121  -12.8035   22.0559 N   0  0  0  0  0  0
  -25.3329  -15.2100   20.4292 N   0  0  0  0  0  0
  -30.5840  -16.6236   20.3081 O   0  0  0  0  0  0
  -21.6637   -6.8837   21.4228 O   0  0  0  0  0  0
  -22.3097  -14.5381   20.6832 O   0  0  0  0  0  0
  -24.5693  -31.4661   22.9852 C   0  0  0  0  0  0
  -25.8203  -32.2771   23.6429 C   0  0  1  0  0  0
  -28.5082  -27.6263   19.8160 C   0  0  0  0  0  0
  -25.4645  -33.6948   24.0159 N   0  0  0  0  0  0
  -23.2401  -29.3601   21.7211 C   0  0  2  0  0  0
  -26.1191  -27.2445   20.1564 C   0  0  0  0  0  0
  -22.4962  -29.2345   22.8922 C   0  0  0  0  0  0
  -17.9072  -28.1654   22.8179 C   0  0  0  0  0  0
  -24.1438  -36.6651   23.2776 C   0  0  0  0  0  0
  -26.0532  -30.1173   21.3470 C   0  0  0  0  0  0
  -26.7754  -28.6864   20.6579 C   0  0  0  0  0  0
  -28.0988  -28.6235   20.6799 C   0  0  0  0  0  0
  -27.8544  -26.4349   19.5251 C   0  0  0  0  0  0
  -26.6277  -26.6232   19.0869 C   0  0  0  0  0  0
  -23.1844  -27.3620   21.1130 C   0  0  0  0  0  0
  -25.4141  -36.2096   24.0165 C   0  0  1  0  0  0
  -20.3803  -28.2858   23.3490 C   0  0  2  0  0  0
  -20.4052  -26.8334   22.8328 C   0  0  0  0  0  0
  -19.5212  -26.6155   21.6129 C   0  0  0  0  0  0
  -18.0785  -26.8469   22.0683 C   0  0  0  0  0  0
  -19.0060  -28.8712   23.3574 C   0  0  0  0  0  0
  -18.8337  -30.1373   23.9481 C   0  0  0  0  0  0
  -17.5484  -30.6810   24.0674 C   0  0  0  0  0  0
  -25.8982  -34.8421   23.4475 C   0  0  0  0  0  0
  -16.4408  -29.9521   23.6006 C   0  0  0  0  0  0
  -16.6203  -28.7036   22.9759 C   0  0  0  0  0  0
  -26.4182  -31.6083   24.9715 C   0  0  0  0  0  0
  -25.3495  -31.3674   26.0661 C   0  0  0  0  0  0
  -27.0723  -30.2519   24.6579 C   0  0  0  0  0  0
  -27.5404  -32.4617   25.6293 C   0  0  0  0  0  0
  -27.5487  -37.1294   24.8443 C   0  0  0  0  0  0
  -21.2211  -29.1659   22.6139 N   0  0  0  0  0  0
  -26.4194  -37.3012   23.9354 N   0  0  0  0  0  0
  -24.6087  -30.3579   22.0373 N   0  0  0  0  0  0
  -23.0880  -28.8664   23.8969 O   0  0  0  0  0  0
  -28.5240  -28.1073   18.5707 O   0  0  0  0  0  0
  -26.6441  -34.8383   22.4675 O   0  0  0  0  0  0
  -23.4978  -31.8960   23.4462 O   0  0  0  0  0  0
  -24.4189  -25.3936   19.6216 C   0  0  0  0  0  0
  -24.0779  -26.9921   19.0066 C   0  0  0  0  0  0
  -25.0958  -27.6948   22.0018 C   0  0  0  0  0  0
  -25.3397  -25.8882   21.9787 C   0  0  0  0  0  0
  -25.3532  -24.5871   20.7976 C   0  0  0  0  0  0
  -24.4456  -28.5285   19.8401 C   0  0  0  0  0  0
  -25.9181  -25.3865   23.2547 C   0  0  0  0  0  0
  -26.8361  -26.3163   24.0472 C   0  0  0  0  0  0
  -26.1096  -22.3818   20.7188 C   0  0  0  0  0  0
  -27.6462  -20.4282   20.5878 C   0  0  0  0  0  0
  -25.9792  -29.2453   17.9543 C   0  0  0  0  0  0
  -27.6239  -29.2590   18.1131 C   0  0  0  0  0  0
  -28.3056  -18.3056   20.4877 N   0  0  0  0  0  0
  -25.7361  -24.2392   23.6715 O   0  0  0  0  0  0
  -24.9643  -29.5759   19.0276 O   0  0  0  0  0  0
  -30.9554  -14.5075   19.0770 H   0  0  0  0  0  0
  -30.6305  -13.4079   20.3404 H   0  0  0  0  0  0
  -30.2327  -12.2420   18.1853 H   0  0  0  0  0  0
  -29.3180  -13.5850   17.5596 H   0  0  0  0  0  0
  -28.4361  -11.4701   19.5132 H   0  0  0  0  0  0
  -27.5945  -12.0552   18.0884 H   0  0  0  0  0  0
  -27.2416  -14.1672   19.1022 H   0  0  0  0  0  0
  -28.8899  -13.3830   21.5449 H   0  0  0  0  0  0
  -27.7012  -14.6309   21.6166 H   0  0  0  0  0  0
  -25.2713   -9.5693   22.4807 H   0  0  0  0  0  0
  -23.9989   -7.4603   22.7497 H   0  0  0  0  0  0
  -21.0820   -8.8711   19.8940 H   0  0  0  0  0  0
  -22.3642  -10.9631   19.6188 H   0  0  0  0  0  0
  -21.2008   -7.6138   23.9697 H   0  0  0  0  0  0
  -21.1482   -6.0526   25.9075 H   0  0  0  0  0  0
  -22.0602   -2.7589   23.2866 H   0  0  0  0  0  0
  -22.3778  -11.9698   22.4919 H   0  0  0  0  0  0
  -21.0738  -13.1032   22.2785 H   0  0  0  0  0  0
  -24.5648  -15.8628   20.5445 H   0  0  0  0  0  0
  -26.1863  -15.6481   20.1053 H   0  0  0  0  0  0
  -26.6155  -32.3371   22.9015 H   0  0  0  0  0  0
  -24.7833  -33.7829   24.7558 H   0  0  0  0  0  0
  -22.6850  -29.9562   20.9934 H   0  0  0  0  0  0
  -23.3722  -35.8944   23.3138 H   0  0  0  0  0  0
  -24.3448  -36.8752   22.2261 H   0  0  0  0  0  0
  -23.7199  -37.5640   23.7259 H   0  0  0  0  0  0
  -26.1637  -30.9131   20.6089 H   0  0  0  0  0  0
  -26.8004  -30.3814   22.0801 H   0  0  0  0  0  0
  -28.7001  -29.4915   20.9145 H   0  0  0  0  0  0
  -28.4181  -25.7081   18.9572 H   0  0  0  0  0  0
  -26.2402  -25.9341   18.3519 H   0  0  0  0  0  0
  -22.3113  -27.1904   20.4728 H   0  0  0  0  0  0
  -23.0235  -26.6557   21.9191 H   0  0  0  0  0  0
  -25.1488  -36.0621   25.0659 H   0  0  0  0  0  0
  -20.6894  -28.2628   24.3974 H   0  0  0  0  0  0
  -19.9507  -26.2471   23.6346 H   0  0  0  0  0  0
  -21.3605  -26.3518   22.7919 H   0  0  0  0  0  0
  -19.6354  -25.6031   21.2284 H   0  0  0  0  0  0
  -19.7961  -27.3039   20.8134 H   0  0  0  0  0  0
  -17.4119  -26.8250   21.2047 H   0  0  0  0  0  0
  -17.7565  -26.0367   22.7228 H   0  0  0  0  0  0
  -19.6808  -30.6811   24.3407 H   0  0  0  0  0  0
  -17.4041  -31.6403   24.5434 H   0  0  0  0  0  0
  -15.4451  -30.3636   23.7014 H   0  0  0  0  0  0
  -15.7566  -28.1733   22.5931 H   0  0  0  0  0  0
  -24.5870  -30.6581   25.7436 H   0  0  0  0  0  0
  -24.8418  -32.2922   26.3413 H   0  0  0  0  0  0
  -25.7923  -30.9633   26.9777 H   0  0  0  0  0  0
  -26.3589  -29.5434   24.2506 H   0  0  0  0  0  0
  -27.4698  -29.7865   25.5612 H   0  0  0  0  0  0
  -27.9109  -30.3486   23.9684 H   0  0  0  0  0  0
  -27.1655  -33.4094   26.0187 H   0  0  0  0  0  0
  -28.3347  -32.6906   24.9168 H   0  0  0  0  0  0
  -28.0018  -31.9418   26.4715 H   0  0  0  0  0  0
  -28.2357  -37.9723   24.7513 H   0  0  0  0  0  0
  -28.1126  -36.2204   24.6261 H   0  0  0  0  0  0
  -27.2176  -37.0847   25.8838 H   0  0  0  0  0  0
  -20.8993  -29.4645   21.7039 H   0  0  0  0  0  0
  -25.9897  -38.2010   24.1315 H   0  0  0  0  0  0
  -24.1489  -24.6851   18.8490 H   0  0  0  0  0  0
  -23.7056  -27.0595   17.9921 H   0  0  0  0  0  0
  -25.4287  -28.2449   22.8658 H   0  0  0  0  0  0
  -27.7100  -25.7685   24.4002 H   0  0  0  0  0  0
  -26.3160  -26.7114   24.9181 H   0  0  0  0  0  0
  -27.1956  -27.1464   23.4395 H   0  0  0  0  0  0
  -25.4185  -21.9875   21.4651 H   0  0  0  0  0  0
  -25.6088  -22.1786   19.7714 H   0  0  0  0  0  0
  -28.2018  -20.7504   19.7056 H   0  0  0  0  0  0
  -28.3065  -20.7037   21.4112 H   0  0  0  0  0  0
  -25.6749  -28.3627   17.3939 H   0  0  0  0  0  0
  -25.7902  -30.0379   17.2293 H   0  0  0  0  0  0
  -27.9129  -30.1766   18.6290 H   0  0  0  0  0  0
  -27.9917  -29.4422   17.1025 H   0  0  0  0  0  0
  -29.2445  -18.6827   20.5259 H   0  0  0  0  0  0
  1 25  1  0  0  0
  1 30  2  0  0  0
  1 83  1  0  0  0
  2  3  1  0  0  0
  2 25  1  0  0  0
  2 86  1  0  0  0
  2 87  1  0  0  0
  3  4  1  0  0  0
  3 88  1  0  0  0
  3 89  1  0  0  0
  4  5  1  0  0  0
  4 90  1  0  0  0
  4 91  1  0  0  0
  5  6  1  0  0  0
  5 26  1  0  0  0
  5 92  1  0  0  0
  6 25  1  0  0  0
  6 93  1  0  0  0
  6 94  1  0  0  0
  7  8  2  0  0  0
  7 26  1  0  0  0
  7 29  1  0  0  0
  8  9  1  0  0  0
  8 22  1  0  0  0
  9 10  1  0  0  0
  9 27  2  0  0  0
 10 11  2  0  0  0
 10 15  1  0  0  0
 11 12  1  0  0  0
 11 95  1  0  0  0
 12 13  2  0  0  0
 12 96  1  0  0  0
 13 14  1  0  0  0
 13 31  1  0  0  0
 14 15  2  0  0  0
 14 97  1  0  0  0
 15 98  1  0  0  0
 16 17  2  0  0  0
 16 21  1  0  0  0
 16 31  1  0  0  0
 17 18  1  0  0  0
 17 99  1  0  0  0
 18 19  2  0  0  0
 18100  1  0  0  0
 19 20  1  0  0  0
 19 24  1  0  0  0
 20 21  2  0  0  0
 20101  1  0  0  0
 21 23  1  0  0  0
 22 28  1  0  0  0
 22 32  2  0  0  0
 26 27  1  0  0  0
 28102  1  0  0  0
 28103  1  0  0  0
 29104  1  0  0  0
 29105  1  0  0  0
 33 34  1  0  0  0
 33 66  1  0  0  0
 33 70  2  0  0  0
 34 36  1  0  0  0
 34 59  1  0  0  0
 34106  1  0  0  0
 35 44  2  0  0  0
 35 45  1  0  0  0
 35 68  1  0  0  0
 36 56  1  0  0  0
 36107  1  0  0  0
 37 39  1  0  0  0
 37 47  1  0  0  0
 37 66  1  0  0  0
 37108  1  0  0  0
 38 43  2  0  0  0
 38 46  1  0  0  0
 38 47  1  0  0  0
 39 64  1  0  0  0
 39 67  2  0  0  0
 40 52  1  0  0  0
 40 53  2  0  0  0
 40 58  1  0  0  0
 41109  1  0  0  0
 41110  1  0  0  0
 41111  1  0  0  0
 41 48  1  0  0  0
 42 43  1  0  0  0
 42 66  1  0  0  0
 42112  1  0  0  0
 42113  1  0  0  0
 43 44  1  0  0  0
 44114  1  0  0  0
 45 46  2  0  0  0
 45115  1  0  0  0
 46116  1  0  0  0
 47117  1  0  0  0
 47118  1  0  0  0
 48 56  1  0  0  0
 48 65  1  0  0  0
 48119  1  0  0  0
 49 50  1  0  0  0
 49 53  1  0  0  0
 49 64  1  0  0  0
 49120  1  0  0  0
 50 51  1  0  0  0
 50121  1  0  0  0
 50122  1  0  0  0
 51 52  1  0  0  0
 51123  1  0  0  0
 51124  1  0  0  0
 52125  1  0  0  0
 52126  1  0  0  0
 53 54  1  0  0  0
 54 55  2  0  0  0
 54127  1  0  0  0
 55 57  1  0  0  0
 55128  1  0  0  0
 56 69  2  0  0  0
 57 58  2  0  0  0
 57129  1  0  0  0
 58130  1  0  0  0
 59 60  1  0  0  0
 59 61  1  0  0  0
 59 62  1  0  0  0
 60131  1  0  0  0
 60132  1  0  0  0
 60133  1  0  0  0
 61134  1  0  0  0
 61135  1  0  0  0
 61136  1  0  0  0
 62137  1  0  0  0
 62138  1  0  0  0
 62139  1  0  0  0
 63 65  1  0  0  0
 63140  1  0  0  0
 63141  1  0  0  0
 63142  1  0  0  0
 64143  1  0  0  0
 65144  1  0  0  0
 68 82  1  0  0  0
 71 72  2  0  0  0
 71 75  1  0  0  0
 71145  1  0  0  0
 72 76  1  0  0  0
 72146  1  0  0  0
 73 74  1  0  0  0
 73 76  2  0  0  0
 73147  1  0  0  0
 74 75  2  0  0  0
 74 77  1  0  0  0
 75 79  1  0  0  0
 76 85  1  0  0  0
 77 78  1  0  0  0
 77 84  2  0  0  0
 78148  1  0  0  0
 78149  1  0  0  0
 78150  1  0  0  0
 79 80  1  0  0  0
 79151  1  0  0  0
 79152  1  0  0  0
 80 83  1  0  0  0
 80153  1  0  0  0
 80154  1  0  0  0
 81 82  1  0  0  0
 81 85  1  0  0  0
 81155  1  0  0  0
 81156  1  0  0  0
 82157  1  0  0  0
 82158  1  0  0  0
 83159  1  0  0  0
M  ISO  4   1 100  68 101  82 101  83 100
M  END
> <chiral flag>
0

> <version>
0

> <s_m_source_file>
/data/baiqing/PycharmProjects/Reinvent-master-3.2/result/LINK_invent/BTK/process_docking_weight1_custom_sum_contain_oxygen_bond_distance_aromatic_linkinvent_7_9_3/rearranged_h_0125.sdf

> <i_m_source_file_index>
6

> <r_mmod_Potential_Energy-OPLS-2005>
21594.0078125

> <r_mmod_Stretch_Energy-OPLS-2005>
11068.9658203125

> <r_mmod_Bend_Energy-OPLS-2005>
1767.61437988281

> <r_mmod_Torsional_Energy-OPLS-2005>
644.487487792969

> <r_mmod_Improper_Torsional_Energy-OPLS-2005>
73.9926528930664

> <r_mmod_Van_der_Waal_Energy-OPLS-2005>
3237.05590820312

> <r_mmod_Electrostatic_Energy-OPLS-2005>
-403.343902587891

> <r_mmod_Solvation_Energy-OPLS-2005>
-226.395797729492

> <b_mmod_Minimization_Converged-OPLS-2005>
0

> <r_mmod_RMS_Derivative-OPLS-2005>
8.47429084777832

$$$$
6
                    3D
 Structure written by MMmdl.
168177  0  0  1  0            999 V2000
  -30.7424  -14.4159   20.6555 C   0  0  0  0  0  0
  -30.4269  -12.3137   19.3982 C   0  0  0  0  0  0
  -29.4871  -12.5165   18.1935 C   0  0  0  0  0  0
  -28.0105  -12.3777   18.6110 C   0  0  0  0  0  0
  -27.6658  -13.2043   19.8769 C   0  0  2  0  0  0
  -28.7077  -12.9583   20.9899 C   0  0  0  0  0  0
  -25.2605  -13.8154   20.5669 C   0  0  0  0  0  0
  -24.1856  -13.0436   20.9174 C   0  0  0  0  0  0
  -24.6412  -11.6901   20.8739 C   0  0  0  0  0  0
  -23.9087  -10.4287   21.0412 C   0  0  0  0  0  0
  -24.3630   -9.4201   21.9192 C   0  0  0  0  0  0
  -23.6298   -8.2243   22.0761 C   0  0  0  0  0  0
  -22.4278   -8.0290   21.3544 C   0  0  0  0  0  0
  -21.9929   -9.0268   20.4649 C   0  0  0  0  0  0
  -22.7264  -10.2143   20.3061 C   0  0  0  0  0  0
  -21.6849   -6.0749   22.5275 C   0  0  0  0  0  0
  -21.4006   -6.5649   23.8214 C   0  0  0  0  0  0
  -21.3651   -5.6790   24.9173 C   0  0  0  0  0  0
  -21.6041   -4.3057   24.7221 C   0  0  0  0  0  0
  -21.8824   -3.8160   23.4343 C   0  0  0  0  0  0
  -21.9196   -4.6974   22.3397 C   0  0  0  0  0  0
  -22.7875  -13.5236   21.1826 C   0  0  0  0  0  0
  -22.1664   -4.2162   21.0973 F   0  0  0  0  0  0
  -21.5633   -3.4539   25.7742 F   0  0  0  0  0  0
  -30.0426  -13.2693   20.4468 N   0  0  0  0  0  0
  -26.3052  -12.9324   20.3381 N   0  0  0  0  0  0
  -25.9339  -11.6481   20.5784 N   0  0  0  0  0  0
  -22.0515  -12.8237   22.0373 N   0  0  0  0  0  0
  -25.4322  -15.1864   20.4033 N   0  0  0  0  0  0
  -31.8027  -14.6752   20.0795 O   0  0  0  0  0  0
  -21.6633   -6.8893   21.4242 O   0  0  0  0  0  0
  -22.3570  -14.5541   20.6659 O   0  0  0  0  0  0
  -24.6158  -31.8702   23.2108 C   0  0  0  0  0  0
  -25.9062  -32.4817   23.8403 C   0  0  1  0  0  0
  -27.2282  -27.4475   20.0947 C   0  0  0  0  0  0
  -25.5926  -33.8616   24.2346 N   0  0  0  0  0  0
  -23.3998  -30.4978   21.5504 C   0  0  2  0  0  0
  -24.8424  -28.9670   20.1141 C   0  0  0  0  0  0
  -22.7414  -29.4680   22.4966 C   0  0  0  0  0  0
  -18.0278  -28.1338   22.8464 C   0  0  0  0  0  0
  -24.1484  -36.7317   23.2638 C   0  0  0  0  0  0
  -25.9276  -30.8442   21.3575 C   0  0  0  0  0  0
  -26.0040  -29.4796   20.7040 C   0  0  0  0  0  0
  -27.2005  -28.7298   20.6850 C   0  0  0  0  0  0
  -26.0444  -26.9444   19.5033 C   0  0  0  0  0  0
  -24.8574  -27.6984   19.5114 C   0  0  0  0  0  0
  -23.6072  -29.8350   20.1626 C   0  0  0  0  0  0
  -25.4099  -36.3099   24.0346 C   0  0  1  0  0  0
  -20.5867  -28.3653   23.1277 C   0  0  2  0  0  0
  -20.6767  -26.9378   22.5399 C   0  0  0  0  0  0
  -19.5747  -26.6351   21.5187 C   0  0  0  0  0  0
  -18.1919  -26.7879   22.1588 C   0  0  0  0  0  0
  -19.1521  -28.8805   23.2864 C   0  0  0  0  0  0
  -18.9468  -30.1406   23.8876 C   0  0  0  0  0  0
  -17.6475  -30.6546   24.0561 C   0  0  0  0  0  0
  -25.9032  -34.9471   23.5139 C   0  0  0  0  0  0
  -16.5367  -29.9055   23.6316 C   0  0  0  0  0  0
  -16.7269  -28.6476   23.0324 C   0  0  0  0  0  0
  -26.4485  -31.6580   25.0725 C   0  0  0  0  0  0
  -25.3740  -31.3690   26.1471 C   0  0  0  0  0  0
  -27.0357  -30.3033   24.6097 C   0  0  0  0  0  0
  -27.6069  -32.4285   25.7487 C   0  0  0  0  0  0
  -27.5566  -37.1809   24.8453 C   0  0  0  0  0  0
  -21.4142  -29.3051   22.3710 N   0  0  0  0  0  0
  -26.4272  -37.3794   23.9408 N   0  0  0  0  0  0
  -24.6664  -31.0854   22.0980 N   0  0  0  0  0  0
  -23.4201  -28.8213   23.2989 O   0  0  0  0  0  0
  -28.4053  -26.7296   20.1113 O   0  0  0  0  0  0
  -26.5580  -34.8916   22.4684 O   0  0  0  0  0  0
  -23.5363  -32.1432   23.7535 O   0  0  0  0  0  0
  -27.1184  -18.8208   19.9433 C   0  0  0  0  0  0
  -29.0926  -20.2171   20.2537 C   0  0  0  0  0  0
  -26.4581  -19.8815   19.2954 C   0  0  0  0  0  0
  -27.1250  -21.1166   19.1157 C   0  0  0  0  0  0
  -28.4365  -18.9698   20.4175 C   0  0  0  0  0  0
  -28.4356  -21.2949   19.6083 C   0  0  0  0  0  0
  -25.0275  -19.6925   18.8132 C   0  0  0  0  0  0
  -24.6451  -20.7352   17.7558 C   0  0  0  0  0  0
  -25.0724  -22.1363   18.2092 C   0  0  0  0  0  0
  -29.6398  -24.6582   20.4355 C   0  0  0  0  0  0
  -30.4594  -17.7349   21.2081 C   0  0  0  0  0  0
  -30.8254  -16.4920   22.0416 C   0  0  0  0  0  0
  -28.2924  -25.3041   20.0745 C   0  0  0  0  0  0
  -29.5824  -23.1239   20.5927 C   0  0  0  0  0  0
  -26.5068  -22.1904   18.4597 N   0  0  0  0  0  0
  -29.0173  -17.8566   21.0478 N   0  0  0  0  0  0
  -30.2052  -15.2608   21.5457 N   0  0  0  0  0  0
  -29.0259  -22.5279   19.4261 O   0  0  0  0  0  0
  -31.4658  -12.4343   19.0860 H   0  0  0  0  0  0
  -30.3526  -11.2956   19.7831 H   0  0  0  0  0  0
  -29.7205  -11.7910   17.4127 H   0  0  0  0  0  0
  -29.6527  -13.5027   17.7556 H   0  0  0  0  0  0
  -27.8153  -11.3204   18.7946 H   0  0  0  0  0  0
  -27.3593  -12.6702   17.7865 H   0  0  0  0  0  0
  -27.7183  -14.2567   19.5963 H   0  0  0  0  0  0
  -28.6858  -11.9141   21.3029 H   0  0  0  0  0  0
  -28.4545  -13.5307   21.8823 H   0  0  0  0  0  0
  -25.2781   -9.5667   22.4763 H   0  0  0  0  0  0
  -24.0003   -7.4635   22.7479 H   0  0  0  0  0  0
  -21.0867   -8.8804   19.8946 H   0  0  0  0  0  0
  -22.3748  -10.9689   19.6169 H   0  0  0  0  0  0
  -21.1983   -7.6152   23.9722 H   0  0  0  0  0  0
  -21.1466   -6.0520   25.9073 H   0  0  0  0  0  0
  -22.0612   -2.7624   23.2842 H   0  0  0  0  0  0
  -22.4141  -11.9903   22.4760 H   0  0  0  0  0  0
  -21.1127  -13.1265   22.2570 H   0  0  0  0  0  0
  -24.6613  -15.8395   20.4885 H   0  0  0  0  0  0
  -26.2806  -15.6104   20.0526 H   0  0  0  0  0  0
  -26.7153  -32.5556   23.1193 H   0  0  0  0  0  0
  -25.0098  -33.9775   25.0509 H   0  0  0  0  0  0
  -22.6871  -31.3136   21.4134 H   0  0  0  0  0  0
  -23.3729  -35.9663   23.3289 H   0  0  0  0  0  0
  -24.3577  -36.8948   22.2049 H   0  0  0  0  0  0
  -23.7266  -37.6533   23.6666 H   0  0  0  0  0  0
  -26.0358  -31.6102   20.5889 H   0  0  0  0  0  0
  -26.8182  -30.9009   21.9718 H   0  0  0  0  0  0
  -28.1004  -29.1261   21.1341 H   0  0  0  0  0  0
  -26.0160  -25.9735   19.0306 H   0  0  0  0  0  0
  -23.9626  -27.2991   19.0540 H   0  0  0  0  0  0
  -23.7194  -30.6129   19.4055 H   0  0  0  0  0  0
  -22.7297  -29.2607   19.8612 H   0  0  0  0  0  0
  -25.1272  -36.1963   25.0841 H   0  0  0  0  0  0
  -20.9951  -28.3233   24.1395 H   0  0  0  0  0  0
  -20.5635  -26.2278   23.3608 H   0  0  0  0  0  0
  -21.6649  -26.7397   22.1220 H   0  0  0  0  0  0
  -19.6925  -25.6266   21.1210 H   0  0  0  0  0  0
  -19.6667  -27.3168   20.6718 H   0  0  0  0  0  0
  -17.4200  -26.6626   21.3972 H   0  0  0  0  0  0
  -18.0305  -25.9995   22.8948 H   0  0  0  0  0  0
  -19.7956  -30.7217   24.2213 H   0  0  0  0  0  0
  -17.5050  -31.6208   24.5183 H   0  0  0  0  0  0
  -15.5372  -30.2976   23.7634 H   0  0  0  0  0  0
  -15.8662  -28.0826   22.7006 H   0  0  0  0  0  0
  -24.5895  -30.7060   25.7800 H   0  0  0  0  0  0
  -24.8947  -32.2859   26.4915 H   0  0  0  0  0  0
  -25.8068  -30.8841   27.0230 H   0  0  0  0  0  0
  -26.2928  -29.6734   24.1194 H   0  0  0  0  0  0
  -27.4217  -29.7317   25.4554 H   0  0  0  0  0  0
  -27.8702  -30.4373   23.9205 H   0  0  0  0  0  0
  -27.2720  -33.3610   26.2037 H   0  0  0  0  0  0
  -28.3901  -32.6793   25.0315 H   0  0  0  0  0  0
  -28.0710  -31.8405   26.5417 H   0  0  0  0  0  0
  -28.2575  -38.0107   24.7519 H   0  0  0  0  0  0
  -28.1076  -36.2653   24.6267 H   0  0  0  0  0  0
  -27.2293  -37.1454   25.8854 H   0  0  0  0  0  0
  -20.9314  -29.8837   21.6980 H   0  0  0  0  0  0
  -26.0157  -38.2869   24.1411 H   0  0  0  0  0  0
  -26.5996  -17.8824   20.0744 H   0  0  0  0  0  0
  -30.1019  -20.3609   20.6079 H   0  0  0  0  0  0
  -24.3692  -19.7937   19.6773 H   0  0  0  0  0  0
  -24.8824  -18.6838   18.4239 H   0  0  0  0  0  0
  -23.5736  -20.6989   17.5576 H   0  0  0  0  0  0
  -25.1413  -20.4947   16.8142 H   0  0  0  0  0  0
  -24.5310  -22.4215   19.1137 H   0  0  0  0  0  0
  -24.8156  -22.8720   17.4454 H   0  0  0  0  0  0
  -29.9954  -25.0869   21.3732 H   0  0  0  0  0  0
  -30.3771  -24.9262   19.6789 H   0  0  0  0  0  0
  -30.9285  -17.6815   20.2240 H   0  0  0  0  0  0
  -30.8635  -18.6183   21.7061 H   0  0  0  0  0  0
  -30.4930  -16.6348   23.0701 H   0  0  0  0  0  0
  -31.9108  -16.3814   22.0938 H   0  0  0  0  0  0
  -27.5252  -24.9703   20.7763 H   0  0  0  0  0  0
  -27.9953  -24.9767   19.0772 H   0  0  0  0  0  0
  -28.9948  -22.8690   21.4775 H   0  0  0  0  0  0
  -30.5897  -22.7358   20.7491 H   0  0  0  0  0  0
  -26.9934  -23.0836   18.4594 H   0  0  0  0  0  0
  -28.4975  -16.9856   21.0455 H   0  0  0  0  0  0
  -29.3359  -14.9783   21.9728 H   0  0  0  0  0  0
  1 25  1  0  0  0
  1 30  2  0  0  0
  1 87  1  0  0  0
  2  3  1  0  0  0
  2 25  1  0  0  0
  2 89  1  0  0  0
  2 90  1  0  0  0
  3  4  1  0  0  0
  3 91  1  0  0  0
  3 92  1  0  0  0
  4  5  1  0  0  0
  4 93  1  0  0  0
  4 94  1  0  0  0
  5  6  1  0  0  0
  5 26  1  0  0  0
  5 95  1  0  0  0
  6 25  1  0  0  0
  6 96  1  0  0  0
  6 97  1  0  0  0
  7  8  2  0  0  0
  7 26  1  0  0  0
  7 29  1  0  0  0
  8  9  1  0  0  0
  8 22  1  0  0  0
  9 10  1  0  0  0
  9 27  2  0  0  0
 10 11  2  0  0  0
 10 15  1  0  0  0
 11 12  1  0  0  0
 11 98  1  0  0  0
 12 13  2  0  0  0
 12 99  1  0  0  0
 13 14  1  0  0  0
 13 31  1  0  0  0
 14 15  2  0  0  0
 14100  1  0  0  0
 15101  1  0  0  0
 16 17  2  0  0  0
 16 21  1  0  0  0
 16 31  1  0  0  0
 17 18  1  0  0  0
 17102  1  0  0  0
 18 19  2  0  0  0
 18103  1  0  0  0
 19 20  1  0  0  0
 19 24  1  0  0  0
 20 21  2  0  0  0
 20104  1  0  0  0
 21 23  1  0  0  0
 22 28  1  0  0  0
 22 32  2  0  0  0
 26 27  1  0  0  0
 28105  1  0  0  0
 28106  1  0  0  0
 29107  1  0  0  0
 29108  1  0  0  0
 33 34  1  0  0  0
 33 66  1  0  0  0
 33 70  2  0  0  0
 34 36  1  0  0  0
 34 59  1  0  0  0
 34109  1  0  0  0
 35 44  2  0  0  0
 35 45  1  0  0  0
 35 68  1  0  0  0
 36 56  1  0  0  0
 36110  1  0  0  0
 37 39  1  0  0  0
 37 47  1  0  0  0
 37 66  1  0  0  0
 37111  1  0  0  0
 38 43  2  0  0  0
 38 46  1  0  0  0
 38 47  1  0  0  0
 39 64  1  0  0  0
 39 67  2  0  0  0
 40 52  1  0  0  0
 40 53  2  0  0  0
 40 58  1  0  0  0
 41112  1  0  0  0
 41113  1  0  0  0
 41114  1  0  0  0
 41 48  1  0  0  0
 42 43  1  0  0  0
 42 66  1  0  0  0
 42115  1  0  0  0
 42116  1  0  0  0
 43 44  1  0  0  0
 44117  1  0  0  0
 45 46  2  0  0  0
 45118  1  0  0  0
 46119  1  0  0  0
 47120  1  0  0  0
 47121  1  0  0  0
 48 56  1  0  0  0
 48 65  1  0  0  0
 48122  1  0  0  0
 49 50  1  0  0  0
 49 53  1  0  0  0
 49 64  1  0  0  0
 49123  1  0  0  0
 50 51  1  0  0  0
 50124  1  0  0  0
 50125  1  0  0  0
 51 52  1  0  0  0
 51126  1  0  0  0
 51127  1  0  0  0
 52128  1  0  0  0
 52129  1  0  0  0
 53 54  1  0  0  0
 54 55  2  0  0  0
 54130  1  0  0  0
 55 57  1  0  0  0
 55131  1  0  0  0
 56 69  2  0  0  0
 57 58  2  0  0  0
 57132  1  0  0  0
 58133  1  0  0  0
 59 60  1  0  0  0
 59 61  1  0  0  0
 59 62  1  0  0  0
 60134  1  0  0  0
 60135  1  0  0  0
 60136  1  0  0  0
 61137  1  0  0  0
 61138  1  0  0  0
 61139  1  0  0  0
 62140  1  0  0  0
 62141  1  0  0  0
 62142  1  0  0  0
 63 65  1  0  0  0
 63143  1  0  0  0
 63144  1  0  0  0
 63145  1  0  0  0
 64146  1  0  0  0
 65147  1  0  0  0
 68 83  1  0  0  0
 71 73  2  0  0  0
 71 75  1  0  0  0
 71148  1  0  0  0
 72 75  2  0  0  0
 72 76  1  0  0  0
 72149  1  0  0  0
 73 74  1  0  0  0
 73 77  1  0  0  0
 74 76  2  0  0  0
 74 85  1  0  0  0
 75 86  1  0  0  0
 76 88  1  0  0  0
 77 78  1  0  0  0
 77150  1  0  0  0
 77151  1  0  0  0
 78 79  1  0  0  0
 78152  1  0  0  0
 78153  1  0  0  0
 79 85  1  0  0  0
 79154  1  0  0  0
 79155  1  0  0  0
 80 83  1  0  0  0
 80 84  1  0  0  0
 80156  1  0  0  0
 80157  1  0  0  0
 81 82  1  0  0  0
 81 86  1  0  0  0
 81158  1  0  0  0
 81159  1  0  0  0
 82 87  1  0  0  0
 82160  1  0  0  0
 82161  1  0  0  0
 83162  1  0  0  0
 83163  1  0  0  0
 84 88  1  0  0  0
 84164  1  0  0  0
 84165  1  0  0  0
 85166  1  0  0  0
 86167  1  0  0  0
 87168  1  0  0  0
M  ISO  4   1 100  68 101  83 101  87 100
M  END
> <chiral flag>
0

> <version>
0

> <s_m_source_file>
/data/baiqing/PycharmProjects/Reinvent-master-3.2/result/LINK_invent/BTK/process_docking_weight1_custom_sum_contain_oxygen_bond_distance_aromatic_linkinvent_7_9_3/rearranged_h_0125.sdf

> <i_m_source_file_index>
7

> <r_mmod_Potential_Energy-OPLS-2005>
-182.54264831543

> <r_mmod_Stretch_Energy-OPLS-2005>
34.6438026428223

> <r_mmod_Bend_Energy-OPLS-2005>
109.838195800781

> <r_mmod_Torsional_Energy-OPLS-2005>
225.429626464844

> <r_mmod_Improper_Torsional_Energy-OPLS-2005>
4.39426231384277

> <r_mmod_Van_der_Waal_Energy-OPLS-2005>
161.483993530273

> <r_mmod_Electrostatic_Energy-OPLS-2005>
-492.457916259766

> <r_mmod_Solvation_Energy-OPLS-2005>
-234.974563598633

> <b_mmod_Minimization_Converged-OPLS-2005>
0

> <r_mmod_RMS_Derivative-OPLS-2005>
2.28238296508789

$$$$
7
                    3D
 Structure written by MMmdl.
180189  0  0  1  0            999 V2000
  -29.7818  -16.1998   20.4201 C   0  0  0  0  0  0
  -30.3060  -13.5522   19.5759 C   0  0  0  0  0  0
  -29.5564  -12.8250   18.4013 C   0  0  0  0  0  0
  -28.1796  -12.3147   18.8435 C   0  0  0  0  0  0
  -27.5383  -13.3385   19.7973 C   0  0  2  0  0  0
  -28.4626  -13.8559   20.9209 C   0  0  0  0  0  0
  -25.2038  -13.8263   20.5779 C   0  0  0  0  0  0
  -24.1517  -13.0376   20.9335 C   0  0  0  0  0  0
  -24.6286  -11.6903   20.8782 C   0  0  0  0  0  0
  -23.9048  -10.4260   21.0427 C   0  0  0  0  0  0
  -24.3618   -9.4192   21.9206 C   0  0  0  0  0  0
  -23.6291   -8.2230   22.0776 C   0  0  0  0  0  0
  -22.4269   -8.0277   21.3555 C   0  0  0  0  0  0
  -21.9904   -9.0246   20.4654 C   0  0  0  0  0  0
  -22.7232  -10.2113   20.3067 C   0  0  0  0  0  0
  -21.6843   -6.0742   22.5288 C   0  0  0  0  0  0
  -21.4009   -6.5645   23.8226 C   0  0  0  0  0  0
  -21.3654   -5.6791   24.9184 C   0  0  0  0  0  0
  -21.6044   -4.3055   24.7221 C   0  0  0  0  0  0
  -21.8812   -3.8149   23.4338 C   0  0  0  0  0  0
  -21.9188   -4.6974   22.3402 C   0  0  0  0  0  0
  -22.7547  -13.5110   21.1949 C   0  0  0  0  0  0
  -22.1656   -4.2173   21.0977 F   0  0  0  0  0  0
  -21.5634   -3.4535   25.7726 F   0  0  0  0  0  0
  -29.4781  -14.7119   20.2564 N   0  0  0  0  0  0
  -26.2423  -12.9604   20.3075 N   0  0  0  0  0  0
  -25.9200  -11.6659   20.5566 N   0  0  0  0  0  0
  -22.0211  -12.8135   22.0523 N   0  0  0  0  0  0
  -25.3592  -15.2029   20.4208 N   0  0  0  0  0  0
  -31.0479  -16.1374   20.3674 O   0  0  0  0  0  0
  -21.6618   -6.8882   21.4248 O   0  0  0  0  0  0
  -22.3263  -14.5421   20.6764 O   0  0  0  0  0  0
  -24.7394  -31.8376   23.1363 C   0  0  0  0  0  0
  -25.9870  -32.4616   23.8117 C   0  0  1  0  0  0
  -27.0675  -26.5300   20.3113 C   0  0  0  0  0  0
  -25.6368  -33.8393   24.2057 N   0  0  0  0  0  0
  -23.5853  -30.4934   21.4697 C   0  0  2  0  0  0
  -24.9612  -28.7374   20.1273 C   0  0  0  0  0  0
  -22.9109  -29.5658   22.4766 C   0  0  0  0  0  0
  -18.0058  -27.7513   23.0807 C   0  0  0  0  0  0
  -24.1508  -36.7151   23.2635 C   0  0  0  0  0  0
  -26.1482  -30.4936   21.4224 C   0  0  0  0  0  0
  -26.1521  -29.0304   20.7996 C   0  0  0  0  0  0
  -27.2011  -27.9559   20.8453 C   0  0  0  0  0  0
  -25.8767  -26.4903   19.5487 C   0  0  0  0  0  0
  -24.8701  -27.4974   19.4751 C   0  0  0  0  0  0
  -23.8149  -29.7574   20.1193 C   0  0  0  0  0  0
  -25.4171  -36.2939   24.0264 C   0  0  1  0  0  0
  -20.9738  -28.4079   23.0284 C   0  0  2  0  0  0
  -21.4484  -27.0880   21.6199 C   0  0  0  0  0  0
  -19.8435  -25.9402   20.9305 C   0  0  0  0  0  0
  -18.1095  -26.3163   21.8974 C   0  0  0  0  0  0
  -19.2552  -28.6109   23.5961 C   0  0  0  0  0  0
  -18.9764  -29.9275   24.0652 C   0  0  0  0  0  0
  -17.6791  -30.4756   24.0934 C   0  0  0  0  0  0
  -25.9221  -34.9370   23.4945 C   0  0  0  0  0  0
  -16.5810  -29.7224   23.6500 C   0  0  0  0  0  0
  -16.7444  -28.4083   23.1561 C   0  0  0  0  0  0
  -26.4714  -31.6522   25.0752 C   0  0  0  0  0  0
  -25.3593  -31.3905   26.1188 C   0  0  0  0  0  0
  -27.0613  -30.2842   24.6684 C   0  0  0  0  0  0
  -27.6119  -32.4293   25.7704 C   0  0  0  0  0  0
  -27.5567  -37.1775   24.8468 C   0  0  0  0  0  0
  -21.5848  -29.5845   22.5132 N   0  0  0  0  0  0
  -26.4275  -37.3716   23.9417 N   0  0  0  0  0  0
  -24.8553  -30.9920   22.0520 N   0  0  0  0  0  0
  -23.5890  -28.8342   23.2060 O   0  0  0  0  0  0
  -27.9557  -25.2317   20.3049 O   0  0  0  0  0  0
  -26.5724  -34.8942   22.4483 O   0  0  0  0  0  0
  -23.6371  -32.1546   23.6224 O   0  0  0  0  0  0
  -27.4519  -19.4121   22.0956 C   0  0  0  0  0  0
  -26.0357  -20.1031   21.8621 C   0  0  0  0  0  0
  -19.2586  -25.7375   24.5022 C   0  0  0  0  0  0
  -19.2764  -24.2240   24.5715 C   0  0  0  0  0  0
  -27.5660  -21.4829   20.5644 C   0  0  1  0  0  0
  -28.4744  -19.5405   20.9090 C   0  0  2  0  0  0
  -26.1837  -21.6272   21.5754 C   0  0  1  0  0  0
  -20.0771  -26.1990   23.2146 C   0  0  2  0  0  0
  -20.5387  -23.7060   23.8792 C   0  0  1  0  0  0
  -19.4450  -28.1557   21.2510 C   0  0  0  0  0  0
  -19.9564  -21.2409   24.2326 C   0  0  0  0  0  0
  -19.3170  -22.2846   22.0067 C   0  0  0  0  0  0
  -28.0393  -23.4413   20.7119 C   0  0  0  0  0  0
  -22.3265  -24.1980   22.1190 C   0  0  0  0  0  0
  -23.7344  -23.1424   22.4247 C   0  0  0  0  0  0
  -20.3112  -22.3129   23.1920 C   0  0  0  0  0  0
  -21.0645  -24.7931   23.0372 N   0  0  0  0  0  0
  -28.8422  -17.6225   20.4780 N   0  0  0  0  0  0
  -24.8168  -22.5327   21.3351 N   0  3  0  0  0  0
  -31.2298  -13.9647   19.1707 H   0  0  0  0  0  0
  -30.6465  -12.8268   20.3164 H   0  0  0  0  0  0
  -30.1593  -12.0072   18.0028 H   0  0  0  0  0  0
  -29.4264  -13.5335   17.5838 H   0  0  0  0  0  0
  -28.3150  -11.3666   19.3668 H   0  0  0  0  0  0
  -27.5409  -12.1145   17.9823 H   0  0  0  0  0  0
  -27.3363  -14.1900   19.1446 H   0  0  0  0  0  0
  -28.8726  -13.0500   21.5316 H   0  0  0  0  0  0
  -27.8979  -14.4891   21.6068 H   0  0  0  0  0  0
  -25.2759   -9.5673   22.4792 H   0  0  0  0  0  0
  -24.0000   -7.4617   22.7496 H   0  0  0  0  0  0
  -21.0848   -8.8749   19.8957 H   0  0  0  0  0  0
  -22.3697  -10.9655   19.6183 H   0  0  0  0  0  0
  -21.1994   -7.6153   23.9740 H   0  0  0  0  0  0
  -21.1487   -6.0514   25.9091 H   0  0  0  0  0  0
  -22.0594   -2.7620   23.2814 H   0  0  0  0  0  0
  -22.3801  -11.9793   22.4914 H   0  0  0  0  0  0
  -21.0834  -13.1200   22.2711 H   0  0  0  0  0  0
  -24.5728  -15.8357   20.5171 H   0  0  0  0  0  0
  -26.1646  -15.6341   19.9909 H   0  0  0  0  0  0
  -26.8062  -32.5024   23.0934 H   0  0  0  0  0  0
  -25.0529  -33.9392   25.0229 H   0  0  0  0  0  0
  -22.9228  -31.3392   21.2696 H   0  0  0  0  0  0
  -23.3826  -35.9424   23.3253 H   0  0  0  0  0  0
  -24.3574  -36.8870   22.2059 H   0  0  0  0  0  0
  -23.7213  -37.6293   23.6747 H   0  0  0  0  0  0
  -26.3954  -31.1899   20.6197 H   0  0  0  0  0  0
  -26.9920  -30.5506   22.0973 H   0  0  0  0  0  0
  -28.1101  -28.1848   21.3831 H   0  0  0  0  0  0
  -25.6754  -25.5749   19.0114 H   0  0  0  0  0  0
  -23.9750  -27.2724   18.9118 H   0  0  0  0  0  0
  -24.0640  -30.4979   19.3579 H   0  0  0  0  0  0
  -22.8948  -29.2872   19.7730 H   0  0  0  0  0  0
  -25.1381  -36.1686   25.0748 H   0  0  0  0  0  0
  -21.4800  -28.2476   23.9855 H   0  0  0  0  0  0
  -22.3238  -26.6583   22.0749 H   0  0  0  0  0  0
  -21.9398  -27.5410   20.7592 H   0  0  0  0  0  0
  -20.0229  -24.8714   20.8598 H   0  0  0  0  0  0
  -19.7017  -26.1520   19.8682 H   0  0  0  0  0  0
  -17.7684  -25.4105   22.3951 H   0  0  0  0  0  0
  -17.3199  -26.4366   21.1520 H   0  0  0  0  0  0
  -19.7997  -30.5711   24.3365 H   0  0  0  0  0  0
  -17.5265  -31.4908   24.4361 H   0  0  0  0  0  0
  -15.5930  -30.1628   23.6580 H   0  0  0  0  0  0
  -15.8764  -27.9055   22.7540 H   0  0  0  0  0  0
  -24.5804  -30.7317   25.7320 H   0  0  0  0  0  0
  -24.8767  -32.3172   26.4311 H   0  0  0  0  0  0
  -25.7563  -30.9161   27.0172 H   0  0  0  0  0  0
  -26.3374  -29.6477   24.1576 H   0  0  0  0  0  0
  -27.3925  -29.7263   25.5452 H   0  0  0  0  0  0
  -27.9412  -30.3941   24.0340 H   0  0  0  0  0  0
  -27.2674  -33.3677   26.2063 H   0  0  0  0  0  0
  -28.4125  -32.6707   25.0694 H   0  0  0  0  0  0
  -28.0551  -31.8510   26.5822 H   0  0  0  0  0  0
  -28.2542  -38.0106   24.7551 H   0  0  0  0  0  0
  -28.1112  -36.2642   24.6271 H   0  0  0  0  0  0
  -27.2290  -37.1379   25.8869 H   0  0  0  0  0  0
  -21.0511  -30.2125   21.9302 H   0  0  0  0  0  0
  -26.0091  -38.2748   24.1487 H   0  0  0  0  0  0
  -27.3162  -18.3692   22.3760 H   0  0  0  0  0  0
  -27.9041  -19.8841   22.9713 H   0  0  0  0  0  0
  -25.3967  -19.9438   22.7323 H   0  0  0  0  0  0
  -25.5387  -19.6184   21.0201 H   0  0  0  0  0  0
  -19.7333  -26.1343   25.4023 H   0  0  0  0  0  0
  -18.2156  -26.0188   24.6157 H   0  0  0  0  0  0
  -18.3777  -23.8514   24.0845 H   0  0  0  0  0  0
  -19.2162  -23.8763   25.6040 H   0  0  0  0  0  0
  -27.2088  -21.3883   19.5401 H   0  0  0  0  0  0
  -29.4498  -19.8158   21.3094 H   0  0  0  0  0  0
  -26.5649  -22.0457   22.5051 H   0  0  0  0  0  0
  -20.9037  -26.4430   23.8724 H   0  0  0  0  0  0
  -21.2948  -23.5692   24.6545 H   0  0  0  0  0  0
  -18.5786  -28.0570   20.5867 H   0  0  0  0  0  0
  -20.1005  -28.3645   20.3962 H   0  0  0  0  0  0
  -19.2690  -29.2219   21.4488 H   0  0  0  0  0  0
  -20.7429  -21.1556   24.9810 H   0  0  0  0  0  0
  -19.8555  -20.2597   23.7675 H   0  0  0  0  0  0
  -19.0216  -21.4623   24.7428 H   0  0  0  0  0  0
  -19.7961  -22.6058   21.0811 H   0  0  0  0  0  0
  -18.4365  -22.9065   22.1525 H   0  0  0  0  0  0
  -18.9661  -21.2685   21.8269 H   0  0  0  0  0  0
  -29.0748  -23.3369   20.3870 H   0  0  0  0  0  0
  -28.1299  -23.5385   21.7931 H   0  0  0  0  0  0
  -21.7915  -23.6573   21.3413 H   0  0  0  0  0  0
  -22.7994  -24.9549   21.5095 H   0  0  0  0  0  0
  -23.3777  -22.2683   22.9634 H   0  0  0  0  0  0
  -24.3415  -23.6692   23.1602 H   0  0  0  0  0  0
  -21.2494  -21.9510   22.7831 H   0  0  0  0  0  0
  -27.9304  -17.2540   20.2463 H   0  0  0  0  0  0
  -24.2731  -22.0246   20.6544 H   0  0  0  0  0  0
  -25.1375  -23.3522   20.8459 H   0  0  0  0  0  0
  1 25  1  0  0  0
  1 30  2  0  0  0
  1 88  1  0  0  0
  2  3  1  0  0  0
  2 25  1  0  0  0
  2 90  1  0  0  0
  2 91  1  0  0  0
  3  4  1  0  0  0
  3 92  1  0  0  0
  3 93  1  0  0  0
  4  5  1  0  0  0
  4 94  1  0  0  0
  4 95  1  0  0  0
  5  6  1  0  0  0
  5 26  1  0  0  0
  5 96  1  0  0  0
  6 25  1  0  0  0
  6 97  1  0  0  0
  6 98  1  0  0  0
  7  8  2  0  0  0
  7 26  1  0  0  0
  7 29  1  0  0  0
  8  9  1  0  0  0
  8 22  1  0  0  0
  9 10  1  0  0  0
  9 27  2  0  0  0
 10 11  2  0  0  0
 10 15  1  0  0  0
 11 12  1  0  0  0
 11 99  1  0  0  0
 12 13  2  0  0  0
 12100  1  0  0  0
 13 14  1  0  0  0
 13 31  1  0  0  0
 14 15  2  0  0  0
 14101  1  0  0  0
 15102  1  0  0  0
 16 17  2  0  0  0
 16 21  1  0  0  0
 16 31  1  0  0  0
 17 18  1  0  0  0
 17103  1  0  0  0
 18 19  2  0  0  0
 18104  1  0  0  0
 19 20  1  0  0  0
 19 24  1  0  0  0
 20 21  2  0  0  0
 20105  1  0  0  0
 21 23  1  0  0  0
 22 28  1  0  0  0
 22 32  2  0  0  0
 26 27  1  0  0  0
 28106  1  0  0  0
 28107  1  0  0  0
 29108  1  0  0  0
 29109  1  0  0  0
 33 34  1  0  0  0
 33 66  1  0  0  0
 33 70  2  0  0  0
 34 36  1  0  0  0
 34 59  1  0  0  0
 34110  1  0  0  0
 35 44  2  0  0  0
 35 45  1  0  0  0
 35 68  1  0  0  0
 36 56  1  0  0  0
 36111  1  0  0  0
 37 39  1  0  0  0
 37 47  1  0  0  0
 37 66  1  0  0  0
 37112  1  0  0  0
 38 43  2  0  0  0
 38 46  1  0  0  0
 38 47  1  0  0  0
 39 64  1  0  0  0
 39 67  2  0  0  0
 40 52  1  0  0  0
 40 53  2  0  0  0
 40 58  1  0  0  0
 41113  1  0  0  0
 41114  1  0  0  0
 41115  1  0  0  0
 41 48  1  0  0  0
 42 43  1  0  0  0
 42 66  1  0  0  0
 42116  1  0  0  0
 42117  1  0  0  0
 43 44  1  0  0  0
 44118  1  0  0  0
 45 46  2  0  0  0
 45119  1  0  0  0
 46120  1  0  0  0
 47121  1  0  0  0
 47122  1  0  0  0
 48 56  1  0  0  0
 48 65  1  0  0  0
 48123  1  0  0  0
 49 50  1  0  0  0
 49 53  1  0  0  0
 49 64  1  0  0  0
 49124  1  0  0  0
 50 51  1  0  0  0
 50125  1  0  0  0
 50126  1  0  0  0
 51 52  1  0  0  0
 51127  1  0  0  0
 51128  1  0  0  0
 52129  1  0  0  0
 52130  1  0  0  0
 53 54  1  0  0  0
 54 55  2  0  0  0
 54131  1  0  0  0
 55 57  1  0  0  0
 55132  1  0  0  0
 56 69  2  0  0  0
 57 58  2  0  0  0
 57133  1  0  0  0
 58134  1  0  0  0
 59 60  1  0  0  0
 59 61  1  0  0  0
 59 62  1  0  0  0
 60135  1  0  0  0
 60136  1  0  0  0
 60137  1  0  0  0
 61138  1  0  0  0
 61139  1  0  0  0
 61140  1  0  0  0
 62141  1  0  0  0
 62142  1  0  0  0
 62143  1  0  0  0
 63 65  1  0  0  0
 63144  1  0  0  0
 63145  1  0  0  0
 63146  1  0  0  0
 64147  1  0  0  0
 65148  1  0  0  0
 68 83  1  0  0  0
 71 72  1  0  0  0
 71 76  1  0  0  0
 71149  1  0  0  0
 71150  1  0  0  0
 72 77  1  0  0  0
 72151  1  0  0  0
 72152  1  0  0  0
 73 74  1  0  0  0
 73 78  1  0  0  0
 73153  1  0  0  0
 73154  1  0  0  0
 74155  1  0  0  0
 74156  1  0  0  0
 74 79  1  0  0  0
 75 76  1  0  0  0
 75 77  1  0  0  0
 75 83  1  0  0  0
 75157  1  0  0  0
 76 88  1  0  0  0
 76158  1  0  0  0
 77 89  1  0  0  0
 77159  1  0  0  0
 78 80  1  0  0  0
 78 87  1  0  0  0
 78160  1  0  0  0
 79 86  1  0  0  0
 79 87  1  0  0  0
 79161  1  0  0  0
 80162  1  0  0  0
 80163  1  0  0  0
 80164  1  0  0  0
 81165  1  0  0  0
 81166  1  0  0  0
 81167  1  0  0  0
 81 86  1  0  0  0
 82 86  1  0  0  0
 82168  1  0  0  0
 82169  1  0  0  0
 82170  1  0  0  0
 83171  1  0  0  0
 83172  1  0  0  0
 84 85  1  0  0  0
 84 87  1  0  0  0
 84173  1  0  0  0
 84174  1  0  0  0
 85 89  1  0  0  0
 85175  1  0  0  0
 85176  1  0  0  0
 86177  1  0  0  0
 88178  1  0  0  0
 89179  1  0  0  0
 89180  1  0  0  0
M  CHG  1  89   1
M  ISO  4   1 100  68 101  83 101  88 100
M  END
> <chiral flag>
0

> <version>
0

> <s_m_source_file>
/data/baiqing/PycharmProjects/Reinvent-master-3.2/result/LINK_invent/BTK/process_docking_weight1_custom_sum_contain_oxygen_bond_distance_aromatic_linkinvent_7_9_3/rearranged_h_0125.sdf

> <i_m_source_file_index>
8

> <r_mmod_Potential_Energy-OPLS-2005>
10757.859375

> <r_mmod_Stretch_Energy-OPLS-2005>
5581.728515625

> <r_mmod_Bend_Energy-OPLS-2005>
1565.08264160156

> <r_mmod_Torsional_Energy-OPLS-2005>
442.780151367188

> <r_mmod_Improper_Torsional_Energy-OPLS-2005>
16.1604061126709

> <r_mmod_Van_der_Waal_Energy-OPLS-2005>
1747.68408203125

> <r_mmod_Electrostatic_Energy-OPLS-2005>
-288.554534912109

> <r_mmod_Solvation_Energy-OPLS-2005>
-481.921325683594

> <b_mmod_Minimization_Converged-OPLS-2005>
0

> <r_mmod_RMS_Derivative-OPLS-2005>
4.79272127151489

$$$$
8
                    3D
 Structure written by MMmdl.
155163  0  0  1  0            999 V2000
  -30.4525  -15.1956   20.3698 C   0  0  0  0  0  0
  -30.4478  -12.7490   19.5267 C   0  0  0  0  0  0
  -29.5381  -12.5702   18.2845 C   0  0  0  0  0  0
  -28.0815  -12.3044   18.7051 C   0  0  0  0  0  0
  -27.6211  -13.2682   19.8275 C   0  0  2  0  0  0
  -28.6587  -13.4035   20.9645 C   0  0  0  0  0  0
  -25.2420  -13.8237   20.5724 C   0  0  0  0  0  0
  -24.1766  -13.0439   20.9233 C   0  0  0  0  0  0
  -24.6408  -11.6931   20.8750 C   0  0  0  0  0  0
  -23.9096  -10.4293   21.0392 C   0  0  0  0  0  0
  -24.3638   -9.4206   21.9171 C   0  0  0  0  0  0
  -23.6304   -8.2243   22.0746 C   0  0  0  0  0  0
  -22.4284   -8.0277   21.3535 C   0  0  0  0  0  0
  -21.9922   -9.0254   20.4634 C   0  0  0  0  0  0
  -22.7264  -10.2131   20.3046 C   0  0  0  0  0  0
  -21.6856   -6.0735   22.5279 C   0  0  0  0  0  0
  -21.4018   -6.5636   23.8211 C   0  0  0  0  0  0
  -21.3665   -5.6789   24.9173 C   0  0  0  0  0  0
  -21.6048   -4.3049   24.7220 C   0  0  0  0  0  0
  -21.8819   -3.8144   23.4340 C   0  0  0  0  0  0
  -21.9191   -4.6961   22.3399 C   0  0  0  0  0  0
  -22.7780  -13.5187   21.1882 C   0  0  0  0  0  0
  -22.1662   -4.2146   21.0980 F   0  0  0  0  0  0
  -21.5629   -3.4536   25.7737 F   0  0  0  0  0  0
  -29.9093  -13.8849   20.3546 N   0  0  0  0  0  0
  -26.2862  -12.9509   20.3223 N   0  0  0  0  0  0
  -25.9348  -11.6618   20.5716 N   0  0  0  0  0  0
  -22.0453  -12.8173   22.0444 N   0  0  0  0  0  0
  -25.4040  -15.1974   20.4145 N   0  0  0  0  0  0
  -31.6629  -15.2343   20.1020 O   0  0  0  0  0  0
  -21.6646   -6.8876   21.4239 O   0  0  0  0  0  0
  -22.3451  -14.5482   20.6714 O   0  0  0  0  0  0
  -24.6580  -31.8285   23.1727 C   0  0  0  0  0  0
  -25.9302  -32.4588   23.8150 C   0  0  1  0  0  0
  -27.2257  -26.9743   20.1792 C   0  0  0  0  0  0
  -25.5988  -33.8401   24.2062 N   0  0  0  0  0  0
  -23.4675  -30.4400   21.5208 C   0  0  2  0  0  0
  -24.9227  -28.8322   20.1100 C   0  0  0  0  0  0
  -22.7618  -29.4470   22.4796 C   0  0  0  0  0  0
  -18.0318  -28.1385   22.8433 C   0  0  0  0  0  0
  -24.1504  -36.7220   23.2643 C   0  0  0  0  0  0
  -26.0331  -30.6510   21.3940 C   0  0  0  0  0  0
  -26.1039  -29.2436   20.7397 C   0  0  0  0  0  0
  -27.2498  -28.3355   20.7509 C   0  0  0  0  0  0
  -26.0162  -26.7034   19.5025 C   0  0  0  0  0  0
  -24.9001  -27.5793   19.4750 C   0  0  0  0  0  0
  -23.7045  -29.7541   20.1464 C   0  0  0  0  0  0
  -25.4139  -36.2950   24.0288 C   0  0  1  0  0  0
  -20.5935  -28.3730   23.1190 C   0  0  2  0  0  0
  -20.6793  -26.9411   22.5403 C   0  0  0  0  0  0
  -19.5774  -26.6358   21.5200 C   0  0  0  0  0  0
  -18.1952  -26.7911   22.1601 C   0  0  0  0  0  0
  -19.1579  -28.8877   23.2785 C   0  0  0  0  0  0
  -18.9500  -30.1469   23.8817 C   0  0  0  0  0  0
  -17.6501  -30.6577   24.0537 C   0  0  0  0  0  0
  -25.9099  -34.9340   23.4990 C   0  0  0  0  0  0
  -16.5385  -29.9066   23.6331 C   0  0  0  0  0  0
  -16.7307  -28.6492   23.0331 C   0  0  0  0  0  0
  -26.4578  -31.6511   25.0651 C   0  0  0  0  0  0
  -25.3715  -31.3791   26.1316 C   0  0  0  0  0  0
  -27.0471  -30.2861   24.6385 C   0  0  0  0  0  0
  -27.6033  -32.4348   25.7480 C   0  0  0  0  0  0
  -27.5569  -37.1762   24.8458 C   0  0  0  0  0  0
  -21.4304  -29.3033   22.3537 N   0  0  0  0  0  0
  -26.4281  -37.3686   23.9400 N   0  0  0  0  0  0
  -24.7398  -30.9987   22.0825 N   0  0  0  0  0  0
  -23.4188  -28.8027   23.3007 O   0  0  0  0  0  0
  -28.2515  -25.9062   20.2599 O   0  0  0  0  0  0
  -26.5693  -34.8874   22.4576 O   0  0  0  0  0  0
  -23.5673  -32.1246   23.6856 O   0  0  0  0  0  0
  -28.6836  -18.7710   21.2793 C   0  0  0  0  0  0
  -30.0056  -20.3252   19.5740 C   0  0  0  0  0  0
  -28.4636  -20.2374   21.2703 C   0  0  0  0  0  0
  -29.1093  -21.1729   20.3638 C   0  0  0  0  0  0
  -29.5892  -17.9977   20.4537 C   0  0  0  0  0  0
  -28.2816  -20.7365   23.7235 C   0  0  0  0  0  0
  -26.1889  -20.1265   22.4111 C   0  0  0  0  0  0
  -29.1335  -22.9201   20.4286 C   0  0  0  0  0  0
  -28.0445  -24.2907   20.0987 C   0  0  0  0  0  0
  -27.5671  -20.8058   22.3648 C   0  0  0  0  0  0
  -30.2231  -18.9114   19.6082 N   0  0  0  0  0  0
  -29.6257  -16.3963   20.5534 N   0  0  0  0  0  0
  -31.4727  -12.9394   19.2046 H   0  0  0  0  0  0
  -30.4896  -11.8290   20.1114 H   0  0  0  0  0  0
  -29.9030  -11.7600   17.6509 H   0  0  0  0  0  0
  -29.5768  -13.4776   17.6789 H   0  0  0  0  0  0
  -28.0223  -11.2748   19.0587 H   0  0  0  0  0  0
  -27.4153  -12.3717   17.8439 H   0  0  0  0  0  0
  -27.5473  -14.2436   19.3449 H   0  0  0  0  0  0
  -28.8011  -12.4586   21.4897 H   0  0  0  0  0  0
  -28.3130  -14.1210   21.7106 H   0  0  0  0  0  0
  -25.2790   -9.5676   22.4738 H   0  0  0  0  0  0
  -24.0010   -7.4637   22.7476 H   0  0  0  0  0  0
  -21.0849   -8.8774   19.8948 H   0  0  0  0  0  0
  -22.3722  -10.9660   19.6144 H   0  0  0  0  0  0
  -21.2018   -7.6142   23.9710 H   0  0  0  0  0  0
  -21.1489   -6.0522   25.9075 H   0  0  0  0  0  0
  -22.0592   -2.7602   23.2849 H   0  0  0  0  0  0
  -22.4107  -11.9861   22.4845 H   0  0  0  0  0  0
  -21.1058  -13.1163   22.2643 H   0  0  0  0  0  0
  -24.6214  -15.8367   20.5010 H   0  0  0  0  0  0
  -26.2353  -15.6425   20.0497 H   0  0  0  0  0  0
  -26.7350  -32.5161   23.0845 H   0  0  0  0  0  0
  -25.0100  -33.9477   25.0188 H   0  0  0  0  0  0
  -22.7751  -31.2676   21.3501 H   0  0  0  0  0  0
  -23.3747  -35.9571   23.3293 H   0  0  0  0  0  0
  -24.3569  -36.8884   22.2055 H   0  0  0  0  0  0
  -23.7298  -37.6419   23.6730 H   0  0  0  0  0  0
  -26.2068  -31.3972   20.6165 H   0  0  0  0  0  0
  -26.8948  -30.7053   22.0474 H   0  0  0  0  0  0
  -28.1438  -28.6495   21.2701 H   0  0  0  0  0  0
  -25.9015  -25.7491   19.0105 H   0  0  0  0  0  0
  -24.0006  -27.2538   18.9693 H   0  0  0  0  0  0
  -23.8473  -30.5217   19.3843 H   0  0  0  0  0  0
  -22.8156  -29.2021   19.8356 H   0  0  0  0  0  0
  -25.1339  -36.1734   25.0775 H   0  0  0  0  0  0
  -21.0030  -28.3355   24.1312 H   0  0  0  0  0  0
  -20.5677  -26.2345   23.3639 H   0  0  0  0  0  0
  -21.6660  -26.7376   22.1218 H   0  0  0  0  0  0
  -19.6946  -25.6265   21.1252 H   0  0  0  0  0  0
  -19.6740  -27.3134   20.6702 H   0  0  0  0  0  0
  -17.4228  -26.6642   21.3998 H   0  0  0  0  0  0
  -18.0339  -26.0062   22.9005 H   0  0  0  0  0  0
  -19.7995  -30.7269   24.2163 H   0  0  0  0  0  0
  -17.5069  -31.6251   24.5146 H   0  0  0  0  0  0
  -15.5388  -30.2930   23.7723 H   0  0  0  0  0  0
  -15.8702  -28.0797   22.7079 H   0  0  0  0  0  0
  -24.5885  -30.7150   25.7650 H   0  0  0  0  0  0
  -24.8935  -32.3021   26.4606 H   0  0  0  0  0  0
  -25.7940  -30.9048   27.0176 H   0  0  0  0  0  0
  -26.3144  -29.6512   24.1394 H   0  0  0  0  0  0
  -27.3992  -29.7241   25.5049 H   0  0  0  0  0  0
  -27.9075  -30.3996   23.9782 H   0  0  0  0  0  0
  -27.2547  -33.3687   26.1904 H   0  0  0  0  0  0
  -28.3932  -32.6866   25.0387 H   0  0  0  0  0  0
  -28.0597  -31.8589   26.5540 H   0  0  0  0  0  0
  -28.2553  -38.0077   24.7456 H   0  0  0  0  0  0
  -28.1092  -36.2600   24.6345 H   0  0  0  0  0  0
  -27.2272  -37.1446   25.8852 H   0  0  0  0  0  0
  -20.9557  -29.8745   21.6690 H   0  0  0  0  0  0
  -26.0125  -38.2743   24.1401 H   0  0  0  0  0  0
  -28.1383  -18.1970   22.0146 H   0  0  0  0  0  0
  -30.6602  -20.8282   18.8776 H   0  0  0  0  0  0
  -29.2273  -21.2793   23.6941 H   0  0  0  0  0  0
  -28.5060  -19.7082   24.0076 H   0  0  0  0  0  0
  -27.6732  -21.1715   24.5155 H   0  0  0  0  0  0
  -25.6710  -20.2312   21.4583 H   0  0  0  0  0  0
  -25.5635  -20.5834   23.1763 H   0  0  0  0  0  0
  -26.2482  -19.0633   22.6400 H   0  0  0  0  0  0
  -30.0145  -23.1587   19.8340 H   0  0  0  0  0  0
  -29.4631  -23.1041   21.4521 H   0  0  0  0  0  0
  -27.1322  -24.0792   20.6564 H   0  0  0  0  0  0
  -27.7534  -24.1748   19.0538 H   0  0  0  0  0  0
  -27.3802  -21.8574   22.1467 H   0  0  0  0  0  0
  -28.7226  -16.0688   20.8553 H   0  0  0  0  0  0
  1 25  1  0  0  0
  1 30  2  0  0  0
  1 82  1  0  0  0
  2  3  1  0  0  0
  2 25  1  0  0  0
  2 83  1  0  0  0
  2 84  1  0  0  0
  3  4  1  0  0  0
  3 85  1  0  0  0
  3 86  1  0  0  0
  4  5  1  0  0  0
  4 87  1  0  0  0
  4 88  1  0  0  0
  5  6  1  0  0  0
  5 26  1  0  0  0
  5 89  1  0  0  0
  6 25  1  0  0  0
  6 90  1  0  0  0
  6 91  1  0  0  0
  7  8  2  0  0  0
  7 26  1  0  0  0
  7 29  1  0  0  0
  8  9  1  0  0  0
  8 22  1  0  0  0
  9 10  1  0  0  0
  9 27  2  0  0  0
 10 11  2  0  0  0
 10 15  1  0  0  0
 11 12  1  0  0  0
 11 92  1  0  0  0
 12 13  2  0  0  0
 12 93  1  0  0  0
 13 14  1  0  0  0
 13 31  1  0  0  0
 14 15  2  0  0  0
 14 94  1  0  0  0
 15 95  1  0  0  0
 16 17  2  0  0  0
 16 21  1  0  0  0
 16 31  1  0  0  0
 17 18  1  0  0  0
 17 96  1  0  0  0
 18 19  2  0  0  0
 18 97  1  0  0  0
 19 20  1  0  0  0
 19 24  1  0  0  0
 20 21  2  0  0  0
 20 98  1  0  0  0
 21 23  1  0  0  0
 22 28  1  0  0  0
 22 32  2  0  0  0
 26 27  1  0  0  0
 28 99  1  0  0  0
 28100  1  0  0  0
 29101  1  0  0  0
 29102  1  0  0  0
 33 34  1  0  0  0
 33 66  1  0  0  0
 33 70  2  0  0  0
 34 36  1  0  0  0
 34 59  1  0  0  0
 34103  1  0  0  0
 35 44  2  0  0  0
 35 45  1  0  0  0
 35 68  1  0  0  0
 36 56  1  0  0  0
 36104  1  0  0  0
 37 39  1  0  0  0
 37 47  1  0  0  0
 37 66  1  0  0  0
 37105  1  0  0  0
 38 43  2  0  0  0
 38 46  1  0  0  0
 38 47  1  0  0  0
 39 64  1  0  0  0
 39 67  2  0  0  0
 40 52  1  0  0  0
 40 53  2  0  0  0
 40 58  1  0  0  0
 41106  1  0  0  0
 41107  1  0  0  0
 41108  1  0  0  0
 41 48  1  0  0  0
 42 43  1  0  0  0
 42 66  1  0  0  0
 42109  1  0  0  0
 42110  1  0  0  0
 43 44  1  0  0  0
 44111  1  0  0  0
 45 46  2  0  0  0
 45112  1  0  0  0
 46113  1  0  0  0
 47114  1  0  0  0
 47115  1  0  0  0
 48 56  1  0  0  0
 48 65  1  0  0  0
 48116  1  0  0  0
 49 50  1  0  0  0
 49 53  1  0  0  0
 49 64  1  0  0  0
 49117  1  0  0  0
 50 51  1  0  0  0
 50118  1  0  0  0
 50119  1  0  0  0
 51 52  1  0  0  0
 51120  1  0  0  0
 51121  1  0  0  0
 52122  1  0  0  0
 52123  1  0  0  0
 53 54  1  0  0  0
 54 55  2  0  0  0
 54124  1  0  0  0
 55 57  1  0  0  0
 55125  1  0  0  0
 56 69  2  0  0  0
 57 58  2  0  0  0
 57126  1  0  0  0
 58127  1  0  0  0
 59 60  1  0  0  0
 59 61  1  0  0  0
 59 62  1  0  0  0
 60128  1  0  0  0
 60129  1  0  0  0
 60130  1  0  0  0
 61131  1  0  0  0
 61132  1  0  0  0
 61133  1  0  0  0
 62134  1  0  0  0
 62135  1  0  0  0
 62136  1  0  0  0
 63 65  1  0  0  0
 63137  1  0  0  0
 63138  1  0  0  0
 63139  1  0  0  0
 64140  1  0  0  0
 65141  1  0  0  0
 68 79  1  0  0  0
 71 73  2  0  0  0
 71 75  1  0  0  0
 71142  1  0  0  0
 72 74  2  0  0  0
 72 81  1  0  0  0
 72143  1  0  0  0
 73 74  1  0  0  0
 73 80  1  0  0  0
 74 78  1  0  0  0
 75 81  2  0  0  0
 75 82  1  0  0  0
 76144  1  0  0  0
 76145  1  0  0  0
 76146  1  0  0  0
 76 80  1  0  0  0
 77 80  1  0  0  0
 77147  1  0  0  0
 77148  1  0  0  0
 77149  1  0  0  0
 78 79  1  0  0  0
 78150  1  0  0  0
 78151  1  0  0  0
 79152  1  0  0  0
 79153  1  0  0  0
 80154  1  0  0  0
 82155  1  0  0  0
M  ISO  4   1 100  68 101  79 101  82 100
M  END
> <chiral flag>
0

> <version>
0

> <s_m_source_file>
/data/baiqing/PycharmProjects/Reinvent-master-3.2/result/LINK_invent/BTK/process_docking_weight1_custom_sum_contain_oxygen_bond_distance_aromatic_linkinvent_7_9_3/rearranged_h_0125.sdf

> <i_m_source_file_index>
9

> <r_mmod_Potential_Energy-OPLS-2005>
864.943176269531

> <r_mmod_Stretch_Energy-OPLS-2005>
469.998901367188

> <r_mmod_Bend_Energy-OPLS-2005>
419.845886230469

> <r_mmod_Torsional_Energy-OPLS-2005>
216.761428833008

> <r_mmod_Improper_Torsional_Energy-OPLS-2005>
6.01169061660767

> <r_mmod_Van_der_Waal_Energy-OPLS-2005>
130.119064331055

> <r_mmod_Electrostatic_Energy-OPLS-2005>
-532.376770019531

> <r_mmod_Solvation_Energy-OPLS-2005>
-231.744384765625

> <b_mmod_Minimization_Converged-OPLS-2005>
0

> <r_mmod_RMS_Derivative-OPLS-2005>
2.44142603874207

$$$$
9
                    3D
 Structure written by MMmdl.
151159  0  0  1  0            999 V2000
  -30.5369  -14.9692   20.4084 C   0  0  0  0  0  0
  -30.4400  -12.6010   19.5020 C   0  0  0  0  0  0
  -29.5245  -12.5329   18.2581 C   0  0  0  0  0  0
  -28.0574  -12.3164   18.6743 C   0  0  0  0  0  0
  -27.6292  -13.2506   19.8359 C   0  0  2  0  0  0
  -28.6699  -13.2912   20.9746 C   0  0  0  0  0  0
  -25.2466  -13.8221   20.5703 C   0  0  0  0  0  0
  -24.1787  -13.0446   20.9215 C   0  0  0  0  0  0
  -24.6401  -11.6928   20.8741 C   0  0  0  0  0  0
  -23.9082  -10.4299   21.0399 C   0  0  0  0  0  0
  -24.3637   -9.4213   21.9179 C   0  0  0  0  0  0
  -23.6308   -8.2248   22.0755 C   0  0  0  0  0  0
  -22.4287   -8.0281   21.3546 C   0  0  0  0  0  0
  -21.9921   -9.0251   20.4645 C   0  0  0  0  0  0
  -22.7249  -10.2132   20.3048 C   0  0  0  0  0  0
  -21.6858   -6.0732   22.5273 C   0  0  0  0  0  0
  -21.4015   -6.5637   23.8203 C   0  0  0  0  0  0
  -21.3664   -5.6792   24.9168 C   0  0  0  0  0  0
  -21.6053   -4.3053   24.7221 C   0  0  0  0  0  0
  -21.8820   -3.8138   23.4343 C   0  0  0  0  0  0
  -21.9198   -4.6957   22.3400 C   0  0  0  0  0  0
  -22.7806  -13.5210   21.1867 C   0  0  0  0  0  0
  -22.1668   -4.2143   21.0976 F   0  0  0  0  0  0
  -21.5634   -3.4541   25.7736 F   0  0  0  0  0  0
  -29.9439  -13.7065   20.3741 N   0  0  0  0  0  0
  -26.2890  -12.9455   20.3224 N   0  0  0  0  0  0
  -25.9337  -11.6580   20.5728 N   0  0  0  0  0  0
  -22.0463  -12.8202   22.0426 N   0  0  0  0  0  0
  -25.4120  -15.1957   20.4120 N   0  0  0  0  0  0
  -31.7397  -15.0269   20.1333 O   0  0  0  0  0  0
  -21.6655   -6.8874   21.4236 O   0  0  0  0  0  0
  -22.3474  -14.5509   20.6704 O   0  0  0  0  0  0
  -24.6455  -31.8423   23.1881 C   0  0  0  0  0  0
  -25.9214  -32.4694   23.8277 C   0  0  1  0  0  0
  -27.2124  -27.1096   20.1556 C   0  0  0  0  0  0
  -25.5952  -33.8501   24.2192 N   0  0  0  0  0  0
  -23.4514  -30.4618   21.5339 C   0  0  2  0  0  0
  -24.9021  -28.8874   20.1138 C   0  0  0  0  0  0
  -22.7590  -29.4528   22.4850 C   0  0  0  0  0  0
  -18.0309  -28.1389   22.8487 C   0  0  0  0  0  0
  -24.1494  -36.7249   23.2645 C   0  0  0  0  0  0
  -26.0111  -30.7081   21.3932 C   0  0  0  0  0  0
  -26.0822  -29.3168   20.7355 C   0  0  0  0  0  0
  -27.2399  -28.4448   20.7383 C   0  0  0  0  0  0
  -26.0106  -26.7992   19.4822 C   0  0  0  0  0  0
  -24.8809  -27.6426   19.4714 C   0  0  0  0  0  0
  -23.6809  -29.7929   20.1539 C   0  0  0  0  0  0
  -25.4128  -36.3030   24.0315 C   0  0  1  0  0  0
  -20.5930  -28.3708   23.1240 C   0  0  2  0  0  0
  -20.6789  -26.9404   22.5410 C   0  0  0  0  0  0
  -19.5757  -26.6371   21.5224 C   0  0  0  0  0  0
  -18.1941  -26.7929   22.1635 C   0  0  0  0  0  0
  -19.1568  -28.8869   23.2857 C   0  0  0  0  0  0
  -18.9477  -30.1470   23.8876 C   0  0  0  0  0  0
  -17.6468  -30.6585   24.0556 C   0  0  0  0  0  0
  -25.9069  -34.9404   23.5057 C   0  0  0  0  0  0
  -16.5362  -29.9072   23.6339 C   0  0  0  0  0  0
  -16.7291  -28.6492   23.0363 C   0  0  0  0  0  0
  -26.4525  -31.6571   25.0726 C   0  0  0  0  0  0
  -25.3697  -31.3765   26.1412 C   0  0  0  0  0  0
  -27.0398  -30.2965   24.6327 C   0  0  0  0  0  0
  -27.6049  -32.4345   25.7510 C   0  0  0  0  0  0
  -27.5574  -37.1787   24.8467 C   0  0  0  0  0  0
  -21.4277  -29.3035   22.3612 N   0  0  0  0  0  0
  -26.4294  -37.3740   23.9399 N   0  0  0  0  0  0
  -24.7226  -31.0260   22.0927 N   0  0  0  0  0  0
  -23.4229  -28.8069   23.2999 O   0  0  0  0  0  0
  -28.2465  -26.0948   20.1906 O   0  0  0  0  0  0
  -26.5656  -34.8899   22.4637 O   0  0  0  0  0  0
  -23.5566  -32.1303   23.7085 O   0  0  0  0  0  0
  -28.4895  -21.8193   20.5068 C   0  0  0  0  0  0
  -30.5307  -21.0285   19.5536 C   0  0  0  0  0  0
  -29.3451  -20.6386   20.2112 C   0  0  0  0  0  0
  -28.8198  -23.2341   20.1779 C   0  0  0  0  0  0
  -30.7957  -22.3874   19.2568 C   0  0  0  0  0  0
  -29.0416  -19.0253   20.4969 C   0  0  0  0  0  0
  -27.8834  -24.5830   20.4305 C   0  0  0  0  0  0
  -30.1138  -17.7093   20.3431 C   0  0  0  0  0  0
  -30.0015  -23.4419   19.5514 N   0  0  0  0  0  0
  -31.9651  -22.7250   18.6007 N   0  0  0  0  0  0
  -29.7638  -16.1642   20.5384 N   0  0  0  0  0  0
  -31.4747  -12.7581   19.1916 H   0  0  0  0  0  0
  -30.4325  -11.6528   20.0424 H   0  0  0  0  0  0
  -29.8482  -11.7330   17.5911 H   0  0  0  0  0  0
  -29.6107  -13.4602   17.6895 H   0  0  0  0  0  0
  -27.9554  -11.2760   18.9857 H   0  0  0  0  0  0
  -27.3950  -12.4439   17.8169 H   0  0  0  0  0  0
  -27.5891  -14.2505   19.4027 H   0  0  0  0  0  0
  -28.7623  -12.3204   21.4635 H   0  0  0  0  0  0
  -28.3662  -14.0022   21.7445 H   0  0  0  0  0  0
  -25.2788   -9.5696   22.4739 H   0  0  0  0  0  0
  -24.0029   -7.4647   22.7479 H   0  0  0  0  0  0
  -21.0847   -8.8760   19.8960 H   0  0  0  0  0  0
  -22.3697  -10.9667   19.6152 H   0  0  0  0  0  0
  -21.1997   -7.6142   23.9701 H   0  0  0  0  0  0
  -21.1490   -6.0525   25.9075 H   0  0  0  0  0  0
  -22.0596   -2.7600   23.2846 H   0  0  0  0  0  0
  -22.4114  -11.9892   22.4844 H   0  0  0  0  0  0
  -21.1062  -13.1188   22.2612 H   0  0  0  0  0  0
  -24.6384  -15.8430   20.5143 H   0  0  0  0  0  0
  -26.2486  -15.6355   20.0512 H   0  0  0  0  0  0
  -26.7283  -32.5300   23.1010 H   0  0  0  0  0  0
  -25.0081  -33.9622   25.0327 H   0  0  0  0  0  0
  -22.7537  -31.2874   21.3781 H   0  0  0  0  0  0
  -23.3756  -35.9581   23.3313 H   0  0  0  0  0  0
  -24.3573  -36.8871   22.2057 H   0  0  0  0  0  0
  -23.7251  -37.6448   23.6675 H   0  0  0  0  0  0
  -26.1721  -31.4626   20.6226 H   0  0  0  0  0  0
  -26.8796  -30.7593   22.0377 H   0  0  0  0  0  0
  -28.1394  -28.7673   21.2436 H   0  0  0  0  0  0
  -25.9111  -25.8655   18.9515 H   0  0  0  0  0  0
  -23.9856  -27.3122   18.9629 H   0  0  0  0  0  0
  -23.8214  -30.5678   19.3990 H   0  0  0  0  0  0
  -22.7952  -29.2364   19.8413 H   0  0  0  0  0  0
  -25.1322  -36.1859   25.0807 H   0  0  0  0  0  0
  -21.0029  -28.3287   24.1358 H   0  0  0  0  0  0
  -20.5692  -26.2305   23.3626 H   0  0  0  0  0  0
  -21.6648  -26.7403   22.1197 H   0  0  0  0  0  0
  -19.6905  -25.6279   21.1259 H   0  0  0  0  0  0
  -19.6699  -27.3179   20.6755 H   0  0  0  0  0  0
  -17.4211  -26.6691   21.4037 H   0  0  0  0  0  0
  -18.0319  -26.0080   22.9035 H   0  0  0  0  0  0
  -19.7947  -30.7301   24.2233 H   0  0  0  0  0  0
  -17.5011  -31.6267   24.5150 H   0  0  0  0  0  0
  -15.5357  -30.2957   23.7672 H   0  0  0  0  0  0
  -15.8697  -28.0798   22.7088 H   0  0  0  0  0  0
  -24.5886  -30.7110   25.7721 H   0  0  0  0  0  0
  -24.8880  -32.2950   26.4771 H   0  0  0  0  0  0
  -25.7970  -30.8976   27.0230 H   0  0  0  0  0  0
  -26.3028  -29.6683   24.1316 H   0  0  0  0  0  0
  -27.3977  -29.7275   25.4915 H   0  0  0  0  0  0
  -27.8947  -30.4196   23.9679 H   0  0  0  0  0  0
  -27.2637  -33.3664   26.2029 H   0  0  0  0  0  0
  -28.3889  -32.6877   25.0361 H   0  0  0  0  0  0
  -28.0686  -31.8512   26.5475 H   0  0  0  0  0  0
  -28.2595  -38.0080   24.7493 H   0  0  0  0  0  0
  -28.1071  -36.2604   24.6330 H   0  0  0  0  0  0
  -27.2283  -37.1472   25.8871 H   0  0  0  0  0  0
  -20.9477  -29.8756   21.6807 H   0  0  0  0  0  0
  -26.0160  -38.2807   24.1394 H   0  0  0  0  0  0
  -27.5378  -21.6368   20.9883 H   0  0  0  0  0  0
  -31.2408  -20.2674   19.2597 H   0  0  0  0  0  0
  -28.1903  -18.7982   19.8567 H   0  0  0  0  0  0
  -28.6381  -18.9879   21.5086 H   0  0  0  0  0  0
  -27.6015  -24.5332   21.4829 H   0  0  0  0  0  0
  -26.9623  -24.3489   19.9044 H   0  0  0  0  0  0
  -30.9481  -17.9088   21.0172 H   0  0  0  0  0  0
  -30.5446  -17.7737   19.3437 H   0  0  0  0  0  0
  -32.4578  -21.9957   18.0991 H   0  0  0  0  0  0
  -32.0182  -23.6368   18.1623 H   0  0  0  0  0  0
  -28.7913  -15.9826   20.7409 H   0  0  0  0  0  0
  1 25  1  0  0  0
  1 30  2  0  0  0
  1 81  1  0  0  0
  2  3  1  0  0  0
  2 25  1  0  0  0
  2 82  1  0  0  0
  2 83  1  0  0  0
  3  4  1  0  0  0
  3 84  1  0  0  0
  3 85  1  0  0  0
  4  5  1  0  0  0
  4 86  1  0  0  0
  4 87  1  0  0  0
  5  6  1  0  0  0
  5 26  1  0  0  0
  5 88  1  0  0  0
  6 25  1  0  0  0
  6 89  1  0  0  0
  6 90  1  0  0  0
  7  8  2  0  0  0
  7 26  1  0  0  0
  7 29  1  0  0  0
  8  9  1  0  0  0
  8 22  1  0  0  0
  9 10  1  0  0  0
  9 27  2  0  0  0
 10 11  2  0  0  0
 10 15  1  0  0  0
 11 12  1  0  0  0
 11 91  1  0  0  0
 12 13  2  0  0  0
 12 92  1  0  0  0
 13 14  1  0  0  0
 13 31  1  0  0  0
 14 15  2  0  0  0
 14 93  1  0  0  0
 15 94  1  0  0  0
 16 17  2  0  0  0
 16 21  1  0  0  0
 16 31  1  0  0  0
 17 18  1  0  0  0
 17 95  1  0  0  0
 18 19  2  0  0  0
 18 96  1  0  0  0
 19 20  1  0  0  0
 19 24  1  0  0  0
 20 21  2  0  0  0
 20 97  1  0  0  0
 21 23  1  0  0  0
 22 28  1  0  0  0
 22 32  2  0  0  0
 26 27  1  0  0  0
 28 98  1  0  0  0
 28 99  1  0  0  0
 29100  1  0  0  0
 29101  1  0  0  0
 33 34  1  0  0  0
 33 66  1  0  0  0
 33 70  2  0  0  0
 34 36  1  0  0  0
 34 59  1  0  0  0
 34102  1  0  0  0
 35 44  2  0  0  0
 35 45  1  0  0  0
 35 68  1  0  0  0
 36 56  1  0  0  0
 36103  1  0  0  0
 37 39  1  0  0  0
 37 47  1  0  0  0
 37 66  1  0  0  0
 37104  1  0  0  0
 38 43  2  0  0  0
 38 46  1  0  0  0
 38 47  1  0  0  0
 39 64  1  0  0  0
 39 67  2  0  0  0
 40 52  1  0  0  0
 40 53  2  0  0  0
 40 58  1  0  0  0
 41105  1  0  0  0
 41106  1  0  0  0
 41107  1  0  0  0
 41 48  1  0  0  0
 42 43  1  0  0  0
 42 66  1  0  0  0
 42108  1  0  0  0
 42109  1  0  0  0
 43 44  1  0  0  0
 44110  1  0  0  0
 45 46  2  0  0  0
 45111  1  0  0  0
 46112  1  0  0  0
 47113  1  0  0  0
 47114  1  0  0  0
 48 56  1  0  0  0
 48 65  1  0  0  0
 48115  1  0  0  0
 49 50  1  0  0  0
 49 53  1  0  0  0
 49 64  1  0  0  0
 49116  1  0  0  0
 50 51  1  0  0  0
 50117  1  0  0  0
 50118  1  0  0  0
 51 52  1  0  0  0
 51119  1  0  0  0
 51120  1  0  0  0
 52121  1  0  0  0
 52122  1  0  0  0
 53 54  1  0  0  0
 54 55  2  0  0  0
 54123  1  0  0  0
 55 57  1  0  0  0
 55124  1  0  0  0
 56 69  2  0  0  0
 57 58  2  0  0  0
 57125  1  0  0  0
 58126  1  0  0  0
 59 60  1  0  0  0
 59 61  1  0  0  0
 59 62  1  0  0  0
 60127  1  0  0  0
 60128  1  0  0  0
 60129  1  0  0  0
 61130  1  0  0  0
 61131  1  0  0  0
 61132  1  0  0  0
 62133  1  0  0  0
 62134  1  0  0  0
 62135  1  0  0  0
 63 65  1  0  0  0
 63136  1  0  0  0
 63137  1  0  0  0
 63138  1  0  0  0
 64139  1  0  0  0
 65140  1  0  0  0
 68 77  1  0  0  0
 71 73  2  0  0  0
 71 74  1  0  0  0
 71141  1  0  0  0
 72 73  1  0  0  0
 72 75  2  0  0  0
 72142  1  0  0  0
 73 76  1  0  0  0
 74 77  1  0  0  0
 74 79  2  0  0  0
 75 79  1  0  0  0
 75 80  1  0  0  0
 76 78  1  0  0  0
 76143  1  0  0  0
 76144  1  0  0  0
 77145  1  0  0  0
 77146  1  0  0  0
 78 81  1  0  0  0
 78147  1  0  0  0
 78148  1  0  0  0
 80149  1  0  0  0
 80150  1  0  0  0
 81151  1  0  0  0
M  ISO  4   1 100  68 101  77 101  81 100
M  END
> <chiral flag>
0

> <version>
0

> <s_m_source_file>
/data/baiqing/PycharmProjects/Reinvent-master-3.2/result/LINK_invent/BTK/process_docking_weight1_custom_sum_contain_oxygen_bond_distance_aromatic_linkinvent_7_9_3/rearranged_h_0125.sdf

> <i_m_source_file_index>
10

> <r_mmod_Potential_Energy-OPLS-2005>
257.704772949219

> <r_mmod_Stretch_Energy-OPLS-2005>
280.32421875

> <r_mmod_Bend_Energy-OPLS-2005>
251.582992553711

> <r_mmod_Torsional_Energy-OPLS-2005>
214.737442016602

> <r_mmod_Improper_Torsional_Energy-OPLS-2005>
7.55291128158569

> <r_mmod_Van_der_Waal_Energy-OPLS-2005>
132.878189086914

> <r_mmod_Electrostatic_Energy-OPLS-2005>
-592.015319824219

> <r_mmod_Solvation_Energy-OPLS-2005>
-249.809799194336

> <b_mmod_Minimization_Converged-OPLS-2005>
0

> <r_mmod_RMS_Derivative-OPLS-2005>
1.34085893630981

$$$$
10
                    3D
 Structure written by MMmdl.
157165  0  0  1  0            999 V2000
  -30.6769  -14.5109   20.5416 C   0  0  0  0  0  0
  -30.4243  -12.3219   19.4346 C   0  0  0  0  0  0
  -29.5009  -12.5031   18.2117 C   0  0  0  0  0  0
  -28.0198  -12.3634   18.6192 C   0  0  0  0  0  0
  -27.6591  -13.2086   19.8714 C   0  0  2  0  0  0
  -28.7008  -13.0088   20.9966 C   0  0  0  0  0  0
  -25.2580  -13.8167   20.5654 C   0  0  0  0  0  0
  -24.1838  -13.0447   20.9187 C   0  0  0  0  0  0
  -24.6392  -11.6916   20.8739 C   0  0  0  0  0  0
  -23.9058  -10.4298   21.0405 C   0  0  0  0  0  0
  -24.3615   -9.4207   21.9176 C   0  0  0  0  0  0
  -23.6290   -8.2240   22.0751 C   0  0  0  0  0  0
  -22.4270   -8.0277   21.3547 C   0  0  0  0  0  0
  -21.9902   -9.0254   20.4654 C   0  0  0  0  0  0
  -22.7230  -10.2135   20.3050 C   0  0  0  0  0  0
  -21.6857   -6.0726   22.5273 C   0  0  0  0  0  0
  -21.4027   -6.5633   23.8208 C   0  0  0  0  0  0
  -21.3655   -5.6786   24.9168 C   0  0  0  0  0  0
  -21.6040   -4.3049   24.7220 C   0  0  0  0  0  0
  -21.8825   -3.8141   23.4344 C   0  0  0  0  0  0
  -21.9200   -4.6953   22.3402 C   0  0  0  0  0  0
  -22.7852  -13.5240   21.1837 C   0  0  0  0  0  0
  -22.1660   -4.2137   21.0978 F   0  0  0  0  0  0
  -21.5618   -3.4536   25.7732 F   0  0  0  0  0  0
  -30.0284  -13.3171   20.4444 N   0  0  0  0  0  0
  -26.3011  -12.9334   20.3331 N   0  0  0  0  0  0
  -25.9324  -11.6505   20.5770 N   0  0  0  0  0  0
  -22.0490  -12.8248   22.0401 N   0  0  0  0  0  0
  -25.4344  -15.1878   20.4013 N   0  0  0  0  0  0
  -31.8174  -14.6875   20.1079 O   0  0  0  0  0  0
  -21.6647   -6.8863   21.4232 O   0  0  0  0  0  0
  -22.3536  -14.5537   20.6662 O   0  0  0  0  0  0
  -24.6190  -31.8665   23.2066 C   0  0  0  0  0  0
  -25.9076  -32.4813   23.8369 C   0  0  1  0  0  0
  -27.2285  -27.3933   20.0877 C   0  0  0  0  0  0
  -25.5944  -33.8616   24.2311 N   0  0  0  0  0  0
  -23.4063  -30.4903   21.5509 C   0  0  2  0  0  0
  -24.8479  -28.9532   20.1135 C   0  0  0  0  0  0
  -22.7426  -29.4657   22.4994 C   0  0  0  0  0  0
  -18.0273  -28.1364   22.8496 C   0  0  0  0  0  0
  -24.1494  -36.7301   23.2622 C   0  0  0  0  0  0
  -25.9386  -30.8187   21.3652 C   0  0  0  0  0  0
  -26.0114  -29.4508   20.7103 C   0  0  0  0  0  0
  -27.1997  -28.6772   20.6952 C   0  0  0  0  0  0
  -26.0303  -26.9170   19.5024 C   0  0  0  0  0  0
  -24.8537  -27.6873   19.5098 C   0  0  0  0  0  0
  -23.6125  -29.8227   20.1654 C   0  0  0  0  0  0
  -25.4114  -36.3104   24.0324 C   0  0  1  0  0  0
  -20.5867  -28.3661   23.1318 C   0  0  2  0  0  0
  -20.6766  -26.9396   22.5416 C   0  0  0  0  0  0
  -19.5738  -26.6374   21.5221 C   0  0  0  0  0  0
  -18.1924  -26.7914   22.1636 C   0  0  0  0  0  0
  -19.1522  -28.8829   23.2901 C   0  0  0  0  0  0
  -18.9451  -30.1441   23.8895 C   0  0  0  0  0  0
  -17.6454  -30.6574   24.0566 C   0  0  0  0  0  0
  -25.9043  -34.9473   23.5108 C   0  0  0  0  0  0
  -16.5346  -29.9072   23.6325 C   0  0  0  0  0  0
  -16.7266  -28.6488   23.0353 C   0  0  0  0  0  0
  -26.4484  -31.6595   25.0713 C   0  0  0  0  0  0
  -25.3734  -31.3741   26.1455 C   0  0  0  0  0  0
  -27.0287  -30.3020   24.6102 C   0  0  0  0  0  0
  -27.6055  -32.4308   25.7493 C   0  0  0  0  0  0
  -27.5576  -37.1805   24.8460 C   0  0  0  0  0  0
  -21.4150  -29.3035   22.3736 N   0  0  0  0  0  0
  -26.4292  -37.3801   23.9405 N   0  0  0  0  0  0
  -24.6734  -31.0732   22.0990 N   0  0  0  0  0  0
  -23.4190  -28.8202   23.3046 O   0  0  0  0  0  0
  -28.4104  -26.6603   20.1203 O   0  0  0  0  0  0
  -26.5593  -34.8930   22.4659 O   0  0  0  0  0  0
  -23.5376  -32.1437   23.7442 O   0  0  0  0  0  0
  -29.8380  -19.7367   19.2910 C   0  0  0  0  0  0
  -28.5441  -20.4714   20.9455 C   0  0  0  0  0  0
  -29.5763  -21.0616   19.0501 C   0  0  0  0  0  0
  -28.7282  -21.5418   20.0980 C   0  0  0  0  0  0
  -30.0569  -21.8414   17.8529 C   0  0  0  0  0  0
  -28.0592  -22.9254   20.1798 C   0  0  0  0  0  0
  -28.9897  -24.1776   20.2623 C   0  0  0  0  0  0
  -29.0675  -17.9653   20.9844 C   0  0  0  0  0  0
  -30.2370  -16.9790   20.6705 C   0  0  0  0  0  0
  -28.5681  -25.4126   19.3969 C   0  0  0  0  0  0
  -29.1854  -19.3401   20.4447 N   0  0  0  0  0  0
  -29.9207  -15.5562   20.9423 N   0  0  0  0  0  0
  -31.4697  -12.4220   19.1368 H   0  0  0  0  0  0
  -30.3259  -11.3142   19.8416 H   0  0  0  0  0  0
  -29.7466  -11.7688   17.4426 H   0  0  0  0  0  0
  -29.6676  -13.4832   17.7642 H   0  0  0  0  0  0
  -27.8318  -11.3073   18.8178 H   0  0  0  0  0  0
  -27.3723  -12.6321   17.7831 H   0  0  0  0  0  0
  -27.6963  -14.2530   19.5634 H   0  0  0  0  0  0
  -28.6849  -11.9775   21.3520 H   0  0  0  0  0  0
  -28.4642  -13.6252   21.8640 H   0  0  0  0  0  0
  -25.2764   -9.5684   22.4747 H   0  0  0  0  0  0
  -24.0002   -7.4636   22.7474 H   0  0  0  0  0  0
  -21.0825   -8.8776   19.8977 H   0  0  0  0  0  0
  -22.3686  -10.9668   19.6156 H   0  0  0  0  0  0
  -21.2038   -7.6144   23.9700 H   0  0  0  0  0  0
  -21.1461   -6.0521   25.9065 H   0  0  0  0  0  0
  -22.0617   -2.7604   23.2852 H   0  0  0  0  0  0
  -22.4111  -11.9924   22.4814 H   0  0  0  0  0  0
  -21.1106  -13.1283   22.2596 H   0  0  0  0  0  0
  -24.6713  -15.8483   20.4983 H   0  0  0  0  0  0
  -26.2796  -15.6125   20.0419 H   0  0  0  0  0  0
  -26.7148  -32.5509   23.1129 H   0  0  0  0  0  0
  -25.0192  -33.9790   25.0523 H   0  0  0  0  0  0
  -22.6955  -31.3072   21.4113 H   0  0  0  0  0  0
  -23.3761  -35.9629   23.3304 H   0  0  0  0  0  0
  -24.3581  -36.8899   22.2029 H   0  0  0  0  0  0
  -23.7246  -37.6507   23.6635 H   0  0  0  0  0  0
  -26.0521  -31.5834   20.5962 H   0  0  0  0  0  0
  -26.8271  -30.8723   21.9837 H   0  0  0  0  0  0
  -28.0978  -29.0588   21.1604 H   0  0  0  0  0  0
  -25.9481  -25.9430   19.0497 H   0  0  0  0  0  0
  -23.9532  -27.2934   19.0576 H   0  0  0  0  0  0
  -23.7212  -30.5961   19.4048 H   0  0  0  0  0  0
  -22.7353  -29.2429   19.8708 H   0  0  0  0  0  0
  -25.1294  -36.1958   25.0819 H   0  0  0  0  0  0
  -20.9947  -28.3215   24.1440 H   0  0  0  0  0  0
  -20.5695  -26.2262   23.3601 H   0  0  0  0  0  0
  -21.6637  -26.7448   22.1194 H   0  0  0  0  0  0
  -19.6913  -25.6291   21.1236 H   0  0  0  0  0  0
  -19.6678  -27.3196   20.6761 H   0  0  0  0  0  0
  -17.4201  -26.6669   21.4031 H   0  0  0  0  0  0
  -18.0317  -26.0042   22.9016 H   0  0  0  0  0  0
  -19.7934  -30.7265   24.2247 H   0  0  0  0  0  0
  -17.5014  -31.6251   24.5172 H   0  0  0  0  0  0
  -15.5348  -30.2985   23.7631 H   0  0  0  0  0  0
  -15.8670  -28.0809   22.7059 H   0  0  0  0  0  0
  -24.5929  -30.7057   25.7818 H   0  0  0  0  0  0
  -24.8904  -32.2912   26.4833 H   0  0  0  0  0  0
  -25.8075  -30.8979   27.0255 H   0  0  0  0  0  0
  -26.2836  -29.6841   24.1080 H   0  0  0  0  0  0
  -27.3959  -29.7206   25.4569 H   0  0  0  0  0  0
  -27.8732  -30.4319   23.9326 H   0  0  0  0  0  0
  -27.2671  -33.3615   26.2061 H   0  0  0  0  0  0
  -28.3881  -32.6847   25.0333 H   0  0  0  0  0  0
  -28.0707  -31.8433   26.5419 H   0  0  0  0  0  0
  -28.2597  -38.0095   24.7508 H   0  0  0  0  0  0
  -28.1067  -36.2630   24.6295 H   0  0  0  0  0  0
  -27.2290  -37.1456   25.8859 H   0  0  0  0  0  0
  -20.9310  -29.8769   21.6969 H   0  0  0  0  0  0
  -26.0176  -38.2881   24.1410 H   0  0  0  0  0  0
  -30.4052  -19.0288   18.7005 H   0  0  0  0  0  0
  -27.9482  -20.3955   21.8465 H   0  0  0  0  0  0
  -30.9899  -22.3549   18.0811 H   0  0  0  0  0  0
  -29.3193  -22.5861   17.5553 H   0  0  0  0  0  0
  -30.2292  -21.1831   17.0007 H   0  0  0  0  0  0
  -27.3753  -22.9387   21.0298 H   0  0  0  0  0  0
  -27.4202  -23.0008   19.2993 H   0  0  0  0  0  0
  -29.9860  -23.8831   19.9318 H   0  0  0  0  0  0
  -29.1202  -24.4692   21.3046 H   0  0  0  0  0  0
  -28.9329  -18.0321   22.0644 H   0  0  0  0  0  0
  -28.1378  -17.5546   20.5888 H   0  0  0  0  0  0
  -30.5033  -17.0490   19.6163 H   0  0  0  0  0  0
  -31.1245  -17.2693   21.2331 H   0  0  0  0  0  0
  -27.7613  -25.1535   18.7198 H   0  0  0  0  0  0
  -29.3886  -25.6053   18.7047 H   0  0  0  0  0  0
  -28.9976  -15.3373   21.2835 H   0  0  0  0  0  0
  1 25  1  0  0  0
  1 30  2  0  0  0
  1 82  1  0  0  0
  2  3  1  0  0  0
  2 25  1  0  0  0
  2 83  1  0  0  0
  2 84  1  0  0  0
  3  4  1  0  0  0
  3 85  1  0  0  0
  3 86  1  0  0  0
  4  5  1  0  0  0
  4 87  1  0  0  0
  4 88  1  0  0  0
  5  6  1  0  0  0
  5 26  1  0  0  0
  5 89  1  0  0  0
  6 25  1  0  0  0
  6 90  1  0  0  0
  6 91  1  0  0  0
  7  8  2  0  0  0
  7 26  1  0  0  0
  7 29  1  0  0  0
  8  9  1  0  0  0
  8 22  1  0  0  0
  9 10  1  0  0  0
  9 27  2  0  0  0
 10 11  2  0  0  0
 10 15  1  0  0  0
 11 12  1  0  0  0
 11 92  1  0  0  0
 12 13  2  0  0  0
 12 93  1  0  0  0
 13 14  1  0  0  0
 13 31  1  0  0  0
 14 15  2  0  0  0
 14 94  1  0  0  0
 15 95  1  0  0  0
 16 17  2  0  0  0
 16 21  1  0  0  0
 16 31  1  0  0  0
 17 18  1  0  0  0
 17 96  1  0  0  0
 18 19  2  0  0  0
 18 97  1  0  0  0
 19 20  1  0  0  0
 19 24  1  0  0  0
 20 21  2  0  0  0
 20 98  1  0  0  0
 21 23  1  0  0  0
 22 28  1  0  0  0
 22 32  2  0  0  0
 26 27  1  0  0  0
 28 99  1  0  0  0
 28100  1  0  0  0
 29101  1  0  0  0
 29102  1  0  0  0
 33 34  1  0  0  0
 33 66  1  0  0  0
 33 70  2  0  0  0
 34 36  1  0  0  0
 34 59  1  0  0  0
 34103  1  0  0  0
 35 44  2  0  0  0
 35 45  1  0  0  0
 35 68  1  0  0  0
 36 56  1  0  0  0
 36104  1  0  0  0
 37 39  1  0  0  0
 37 47  1  0  0  0
 37 66  1  0  0  0
 37105  1  0  0  0
 38 43  2  0  0  0
 38 46  1  0  0  0
 38 47  1  0  0  0
 39 64  1  0  0  0
 39 67  2  0  0  0
 40 52  1  0  0  0
 40 53  2  0  0  0
 40 58  1  0  0  0
 41106  1  0  0  0
 41107  1  0  0  0
 41108  1  0  0  0
 41 48  1  0  0  0
 42 43  1  0  0  0
 42 66  1  0  0  0
 42109  1  0  0  0
 42110  1  0  0  0
 43 44  1  0  0  0
 44111  1  0  0  0
 45 46  2  0  0  0
 45112  1  0  0  0
 46113  1  0  0  0
 47114  1  0  0  0
 47115  1  0  0  0
 48 56  1  0  0  0
 48 65  1  0  0  0
 48116  1  0  0  0
 49 50  1  0  0  0
 49 53  1  0  0  0
 49 64  1  0  0  0
 49117  1  0  0  0
 50 51  1  0  0  0
 50118  1  0  0  0
 50119  1  0  0  0
 51 52  1  0  0  0
 51120  1  0  0  0
 51121  1  0  0  0
 52122  1  0  0  0
 52123  1  0  0  0
 53 54  1  0  0  0
 54 55  2  0  0  0
 54124  1  0  0  0
 55 57  1  0  0  0
 55125  1  0  0  0
 56 69  2  0  0  0
 57 58  2  0  0  0
 57126  1  0  0  0
 58127  1  0  0  0
 59 60  1  0  0  0
 59 61  1  0  0  0
 59 62  1  0  0  0
 60128  1  0  0  0
 60129  1  0  0  0
 60130  1  0  0  0
 61131  1  0  0  0
 61132  1  0  0  0
 61133  1  0  0  0
 62134  1  0  0  0
 62135  1  0  0  0
 62136  1  0  0  0
 63 65  1  0  0  0
 63137  1  0  0  0
 63138  1  0  0  0
 63139  1  0  0  0
 64140  1  0  0  0
 65141  1  0  0  0
 68 80  1  0  0  0
 71 73  2  0  0  0
 71 81  1  0  0  0
 71142  1  0  0  0
 72 74  2  0  0  0
 72 81  1  0  0  0
 72143  1  0  0  0
 73 74  1  0  0  0
 73 75  1  0  0  0
 74 76  1  0  0  0
 75144  1  0  0  0
 75145  1  0  0  0
 75146  1  0  0  0
 76 77  1  0  0  0
 76147  1  0  0  0
 76148  1  0  0  0
 77 80  1  0  0  0
 77149  1  0  0  0
 77150  1  0  0  0
 78 79  1  0  0  0
 78 81  1  0  0  0
 78151  1  0  0  0
 78152  1  0  0  0
 79 82  1  0  0  0
 79153  1  0  0  0
 79154  1  0  0  0
 80155  1  0  0  0
 80156  1  0  0  0
 82157  1  0  0  0
M  ISO  4   1 100  68 101  80 101  82 100
M  END
> <chiral flag>
0

> <version>
0

> <s_m_source_file>
/data/baiqing/PycharmProjects/Reinvent-master-3.2/result/LINK_invent/BTK/process_docking_weight1_custom_sum_contain_oxygen_bond_distance_aromatic_linkinvent_7_9_3/rearranged_h_0125.sdf

> <i_m_source_file_index>
11

> <r_mmod_Potential_Energy-OPLS-2005>
-70.6493301391602

> <r_mmod_Stretch_Energy-OPLS-2005>
44.5056228637695

> <r_mmod_Bend_Energy-OPLS-2005>
118.285797119141

> <r_mmod_Torsional_Energy-OPLS-2005>
230.492523193359

> <r_mmod_Improper_Torsional_Energy-OPLS-2005>
6.41899824142456

> <r_mmod_Van_der_Waal_Energy-OPLS-2005>
127.909255981445

> <r_mmod_Electrostatic_Energy-OPLS-2005>
-397.643493652344

> <r_mmod_Solvation_Energy-OPLS-2005>
-219.472320556641

> <b_mmod_Minimization_Converged-OPLS-2005>
0

> <r_mmod_RMS_Derivative-OPLS-2005>
2.0075831413269

$$$$
11
                    3D
 Structure written by MMmdl.
171179  0  0  1  0            999 V2000
  -30.6967  -14.4547   20.5853 C   0  0  0  0  0  0
  -30.4341  -12.2945   19.4256 C   0  0  0  0  0  0
  -29.5052  -12.4823   18.2061 C   0  0  0  0  0  0
  -28.0347  -12.3113   18.6367 C   0  0  0  0  0  0
  -27.6685  -13.1869   19.8667 C   0  0  2  0  0  0
  -28.7024  -12.9735   20.9947 C   0  0  0  0  0  0
  -25.2702  -13.8102   20.5627 C   0  0  0  0  0  0
  -24.1939  -13.0401   20.9220 C   0  0  0  0  0  0
  -24.6430  -11.6853   20.8718 C   0  0  0  0  0  0
  -23.9032  -10.4271   21.0389 C   0  0  0  0  0  0
  -24.3591   -9.4208   21.9170 C   0  0  0  0  0  0
  -23.6269   -8.2239   22.0749 C   0  0  0  0  0  0
  -22.4251   -8.0265   21.3538 C   0  0  0  0  0  0
  -21.9863   -9.0232   20.4633 C   0  0  0  0  0  0
  -22.7178  -10.2121   20.3038 C   0  0  0  0  0  0
  -21.6843   -6.0711   22.5268 C   0  0  0  0  0  0
  -21.4020   -6.5626   23.8198 C   0  0  0  0  0  0
  -21.3670   -5.6785   24.9173 C   0  0  0  0  0  0
  -21.6063   -4.3045   24.7241 C   0  0  0  0  0  0
  -21.8803   -3.8135   23.4363 C   0  0  0  0  0  0
  -21.9177   -4.6937   22.3410 C   0  0  0  0  0  0
  -22.8006  -13.5265   21.1875 C   0  0  0  0  0  0
  -22.1628   -4.2112   21.0980 F   0  0  0  0  0  0
  -21.5667   -3.4536   25.7771 F   0  0  0  0  0  0
  -30.0368  -13.2755   20.4464 N   0  0  0  0  0  0
  -26.3075  -12.9207   20.3275 N   0  0  0  0  0  0
  -25.9338  -11.6389   20.5700 N   0  0  0  0  0  0
  -22.0573  -12.8243   22.0376 N   0  0  0  0  0  0
  -25.4535  -15.1765   20.3881 N   0  0  0  0  0  0
  -31.8051  -14.6726   20.0850 O   0  0  0  0  0  0
  -21.6612   -6.8854   21.4234 O   0  0  0  0  0  0
  -22.3772  -14.5602   20.6767 O   0  0  0  0  0  0
  -24.6208  -31.8691   23.2101 C   0  0  0  0  0  0
  -25.9133  -32.4797   23.8397 C   0  0  1  0  0  0
  -27.2237  -27.4327   20.0846 C   0  0  0  0  0  0
  -25.6013  -33.8589   24.2358 N   0  0  0  0  0  0
  -23.4074  -30.4986   21.5519 C   0  0  2  0  0  0
  -24.8471  -28.9624   20.1177 C   0  0  0  0  0  0
  -22.7365  -29.4752   22.4964 C   0  0  0  0  0  0
  -18.0329  -28.1331   22.8357 C   0  0  0  0  0  0
  -24.1522  -36.7305   23.2664 C   0  0  0  0  0  0
  -25.9435  -30.8308   21.3683 C   0  0  0  0  0  0
  -26.0120  -29.4694   20.7094 C   0  0  0  0  0  0
  -27.2040  -28.7094   20.6869 C   0  0  0  0  0  0
  -26.0449  -26.9365   19.4952 C   0  0  0  0  0  0
  -24.8576  -27.6933   19.5137 C   0  0  0  0  0  0
  -23.6169  -29.8379   20.1647 C   0  0  0  0  0  0
  -25.4112  -36.3060   24.0363 C   0  0  1  0  0  0
  -20.5874  -28.3723   23.1290 C   0  0  2  0  0  0
  -20.6883  -26.9501   22.5429 C   0  0  0  0  0  0
  -19.5955  -26.6421   21.5144 C   0  0  0  0  0  0
  -18.2065  -26.7898   22.1448 C   0  0  0  0  0  0
  -19.1534  -28.8833   23.2839 C   0  0  0  0  0  0
  -18.9404  -30.1420   23.8876 C   0  0  0  0  0  0
  -17.6399  -30.6491   24.0557 C   0  0  0  0  0  0
  -25.9049  -34.9437   23.5134 C   0  0  0  0  0  0
  -16.5338  -29.8966   23.6276 C   0  0  0  0  0  0
  -16.7318  -28.6438   23.0219 C   0  0  0  0  0  0
  -26.4530  -31.6571   25.0751 C   0  0  0  0  0  0
  -25.3845  -31.3684   26.1554 C   0  0  0  0  0  0
  -27.0400  -30.3010   24.6180 C   0  0  0  0  0  0
  -27.6117  -32.4288   25.7496 C   0  0  0  0  0  0
  -27.5569  -37.1785   24.8458 C   0  0  0  0  0  0
  -21.4113  -29.3090   22.3658 N   0  0  0  0  0  0
  -26.4274  -37.3758   23.9422 N   0  0  0  0  0  0
  -24.6762  -31.0767   22.1022 N   0  0  0  0  0  0
  -23.4088  -28.8355   23.3083 O   0  0  0  0  0  0
  -28.3850  -26.6890   20.0433 O   0  0  0  0  0  0
  -26.5569  -34.8891   22.4667 O   0  0  0  0  0  0
  -23.5372  -32.1477   23.7458 O   0  0  0  0  0  0
  -26.2472  -21.2707   21.9576 C   0  0  0  0  0  0
  -26.9297  -20.0705   21.2758 C   0  0  0  0  0  0
  -28.6311  -21.6366   20.2766 C   0  0  0  0  0  0
  -26.4072  -22.5839   21.1627 C   0  0  2  0  0  0
  -27.9235  -22.8873   20.8981 C   0  0  2  0  0  0
  -28.4420  -20.3083   21.0752 C   0  0  2  0  0  0
  -24.0656  -23.5252   21.7555 C   0  0  0  0  0  0
  -26.0142  -24.1449   23.2217 C   0  0  0  0  0  0
  -28.1502  -24.1571   20.0049 C   0  0  0  0  0  0
  -29.7097  -16.6774   20.3368 C   0  0  0  0  0  0
  -29.2463  -17.8822   21.2080 C   0  0  0  0  0  0
  -28.3643  -25.4730   20.8107 C   0  0  0  0  0  0
  -25.5868  -23.7556   21.7913 C   0  0  0  0  0  0
  -29.9908  -15.4597   21.1219 N   0  0  0  0  0  0
  -29.1052  -19.1434   20.4117 N   0  3  0  0  0  0
  -31.4801  -12.3959   19.1320 H   0  0  0  0  0  0
  -30.3419  -11.2838   19.8259 H   0  0  0  0  0  0
  -29.7559  -11.7534   17.4346 H   0  0  0  0  0  0
  -29.6533  -13.4655   17.7521 H   0  0  0  0  0  0
  -27.8909  -11.2586   18.8918 H   0  0  0  0  0  0
  -27.3643  -12.5158   17.8022 H   0  0  0  0  0  0
  -27.7129  -14.2260   19.5506 H   0  0  0  0  0  0
  -28.6752  -11.9392   21.3313 H   0  0  0  0  0  0
  -28.4581  -13.5726   21.8749 H   0  0  0  0  0  0
  -25.2732   -9.5723   22.4750 H   0  0  0  0  0  0
  -23.9963   -7.4656   22.7506 H   0  0  0  0  0  0
  -21.0756   -8.8732   19.9002 H   0  0  0  0  0  0
  -22.3574  -10.9659   19.6173 H   0  0  0  0  0  0
  -21.2016   -7.6125   23.9690 H   0  0  0  0  0  0
  -21.1502   -6.0521   25.9057 H   0  0  0  0  0  0
  -22.0573   -2.7584   23.2862 H   0  0  0  0  0  0
  -22.4125  -11.9877   22.4766 H   0  0  0  0  0  0
  -21.1258  -13.1454   22.2591 H   0  0  0  0  0  0
  -24.7017  -15.8489   20.4970 H   0  0  0  0  0  0
  -26.3105  -15.5812   20.0331 H   0  0  0  0  0  0
  -26.7270  -32.5488   23.1208 H   0  0  0  0  0  0
  -25.0214  -33.9767   25.0534 H   0  0  0  0  0  0
  -22.7000  -31.3190   21.4170 H   0  0  0  0  0  0
  -23.3763  -35.9677   23.3323 H   0  0  0  0  0  0
  -24.3634  -36.8898   22.2083 H   0  0  0  0  0  0
  -23.7286  -37.6534   23.6640 H   0  0  0  0  0  0
  -26.0759  -31.5963   20.6024 H   0  0  0  0  0  0
  -26.8256  -30.8653   21.9984 H   0  0  0  0  0  0
  -28.1101  -29.0977   21.1309 H   0  0  0  0  0  0
  -26.0408  -25.9728   19.0130 H   0  0  0  0  0  0
  -23.9621  -27.3020   19.0568 H   0  0  0  0  0  0
  -23.7319  -30.6234   19.4186 H   0  0  0  0  0  0
  -22.7397  -29.2671   19.8515 H   0  0  0  0  0  0
  -25.1269  -36.1913   25.0844 H   0  0  0  0  0  0
  -20.9920  -28.3351   24.1410 H   0  0  0  0  0  0
  -20.5600  -26.2456   23.3680 H   0  0  0  0  0  0
  -21.6844  -26.7428   22.1488 H   0  0  0  0  0  0
  -19.7261  -25.6348   21.1254 H   0  0  0  0  0  0
  -19.7011  -27.3295   20.6672 H   0  0  0  0  0  0
  -17.4416  -26.6548   21.3768 H   0  0  0  0  0  0
  -18.0423  -26.0059   22.8826 H   0  0  0  0  0  0
  -19.7885  -30.7233   24.2183 H   0  0  0  0  0  0
  -17.4937  -31.6178   24.5115 H   0  0  0  0  0  0
  -15.5286  -30.2792   23.7509 H   0  0  0  0  0  0
  -15.8785  -28.0735   22.6842 H   0  0  0  0  0  0
  -24.6004  -30.7022   25.7932 H   0  0  0  0  0  0
  -24.9114  -32.2869   26.5027 H   0  0  0  0  0  0
  -25.8273  -30.8848   27.0272 H   0  0  0  0  0  0
  -26.2974  -29.6724   24.1267 H   0  0  0  0  0  0
  -27.4228  -29.7254   25.4615 H   0  0  0  0  0  0
  -27.8766  -30.4369   23.9335 H   0  0  0  0  0  0
  -27.2754  -33.3564   26.2130 H   0  0  0  0  0  0
  -28.3888  -32.6854   25.0292 H   0  0  0  0  0  0
  -28.0874  -31.8394   26.5362 H   0  0  0  0  0  0
  -28.2548  -38.0104   24.7455 H   0  0  0  0  0  0
  -28.1055  -36.2598   24.6264 H   0  0  0  0  0  0
  -27.2303  -37.1471   25.8870 H   0  0  0  0  0  0
  -20.9268  -29.8746   21.6834 H   0  0  0  0  0  0
  -26.0148  -38.2845   24.1362 H   0  0  0  0  0  0
  -26.6615  -21.3960   22.9582 H   0  0  0  0  0  0
  -25.1903  -21.0446   22.0970 H   0  0  0  0  0  0
  -26.4525  -19.8786   20.3118 H   0  0  0  0  0  0
  -26.7515  -19.1828   21.8851 H   0  0  0  0  0  0
  -29.6976  -21.8465   20.1880 H   0  0  0  0  0  0
  -28.2691  -21.5026   19.2540 H   0  0  0  0  0  0
  -25.9587  -22.4084   20.1833 H   0  0  0  0  0  0
  -28.4200  -23.0711   21.8525 H   0  0  0  0  0  0
  -28.9037  -20.4359   22.0546 H   0  0  0  0  0  0
  -23.7409  -23.0971   20.8070 H   0  0  0  0  0  0
  -23.5202  -24.4592   21.9022 H   0  0  0  0  0  0
  -23.7404  -22.8511   22.5482 H   0  0  0  0  0  0
  -27.0951  -24.1623   23.3340 H   0  0  0  0  0  0
  -25.6117  -23.4532   23.9663 H   0  0  0  0  0  0
  -25.6498  -25.1425   23.4756 H   0  0  0  0  0  0
  -29.0307  -24.0104   19.3790 H   0  0  0  0  0  0
  -27.3273  -24.2470   19.2985 H   0  0  0  0  0  0
  -30.6006  -16.9594   19.7659 H   0  0  0  0  0  0
  -28.9405  -16.4291   19.5934 H   0  0  0  0  0  0
  -29.9646  -18.0530   22.0113 H   0  0  0  0  0  0
  -28.3056  -17.6126   21.6976 H   0  0  0  0  0  0
  -29.3263  -25.4023   21.3216 H   0  0  0  0  0  0
  -27.6391  -25.5768   21.6103 H   0  0  0  0  0  0
  -25.7473  -24.6223   21.1551 H   0  0  0  0  0  0
  -30.3246  -15.6566   22.0573 H   0  0  0  0  0  0
  -30.0405  -19.4279   20.1615 H   0  0  0  0  0  0
  -28.6173  -18.9406   19.5539 H   0  0  0  0  0  0
  1 25  1  0  0  0
  1 30  2  0  0  0
  1 84  1  0  0  0
  2  3  1  0  0  0
  2 25  1  0  0  0
  2 86  1  0  0  0
  2 87  1  0  0  0
  3  4  1  0  0  0
  3 88  1  0  0  0
  3 89  1  0  0  0
  4  5  1  0  0  0
  4 90  1  0  0  0
  4 91  1  0  0  0
  5  6  1  0  0  0
  5 26  1  0  0  0
  5 92  1  0  0  0
  6 25  1  0  0  0
  6 93  1  0  0  0
  6 94  1  0  0  0
  7  8  2  0  0  0
  7 26  1  0  0  0
  7 29  1  0  0  0
  8  9  1  0  0  0
  8 22  1  0  0  0
  9 10  1  0  0  0
  9 27  2  0  0  0
 10 11  2  0  0  0
 10 15  1  0  0  0
 11 12  1  0  0  0
 11 95  1  0  0  0
 12 13  2  0  0  0
 12 96  1  0  0  0
 13 14  1  0  0  0
 13 31  1  0  0  0
 14 15  2  0  0  0
 14 97  1  0  0  0
 15 98  1  0  0  0
 16 17  2  0  0  0
 16 21  1  0  0  0
 16 31  1  0  0  0
 17 18  1  0  0  0
 17 99  1  0  0  0
 18 19  2  0  0  0
 18100  1  0  0  0
 19 20  1  0  0  0
 19 24  1  0  0  0
 20 21  2  0  0  0
 20101  1  0  0  0
 21 23  1  0  0  0
 22 28  1  0  0  0
 22 32  2  0  0  0
 26 27  1  0  0  0
 28102  1  0  0  0
 28103  1  0  0  0
 29104  1  0  0  0
 29105  1  0  0  0
 33 34  1  0  0  0
 33 66  1  0  0  0
 33 70  2  0  0  0
 34 36  1  0  0  0
 34 59  1  0  0  0
 34106  1  0  0  0
 35 44  2  0  0  0
 35 45  1  0  0  0
 35 68  1  0  0  0
 36 56  1  0  0  0
 36107  1  0  0  0
 37 39  1  0  0  0
 37 47  1  0  0  0
 37 66  1  0  0  0
 37108  1  0  0  0
 38 43  2  0  0  0
 38 46  1  0  0  0
 38 47  1  0  0  0
 39 64  1  0  0  0
 39 67  2  0  0  0
 40 52  1  0  0  0
 40 53  2  0  0  0
 40 58  1  0  0  0
 41109  1  0  0  0
 41110  1  0  0  0
 41111  1  0  0  0
 41 48  1  0  0  0
 42 43  1  0  0  0
 42 66  1  0  0  0
 42112  1  0  0  0
 42113  1  0  0  0
 43 44  1  0  0  0
 44114  1  0  0  0
 45 46  2  0  0  0
 45115  1  0  0  0
 46116  1  0  0  0
 47117  1  0  0  0
 47118  1  0  0  0
 48 56  1  0  0  0
 48 65  1  0  0  0
 48119  1  0  0  0
 49 50  1  0  0  0
 49 53  1  0  0  0
 49 64  1  0  0  0
 49120  1  0  0  0
 50 51  1  0  0  0
 50121  1  0  0  0
 50122  1  0  0  0
 51 52  1  0  0  0
 51123  1  0  0  0
 51124  1  0  0  0
 52125  1  0  0  0
 52126  1  0  0  0
 53 54  1  0  0  0
 54 55  2  0  0  0
 54127  1  0  0  0
 55 57  1  0  0  0
 55128  1  0  0  0
 56 69  2  0  0  0
 57 58  2  0  0  0
 57129  1  0  0  0
 58130  1  0  0  0
 59 60  1  0  0  0
 59 61  1  0  0  0
 59 62  1  0  0  0
 60131  1  0  0  0
 60132  1  0  0  0
 60133  1  0  0  0
 61134  1  0  0  0
 61135  1  0  0  0
 61136  1  0  0  0
 62137  1  0  0  0
 62138  1  0  0  0
 62139  1  0  0  0
 63 65  1  0  0  0
 63140  1  0  0  0
 63141  1  0  0  0
 63142  1  0  0  0
 64143  1  0  0  0
 65144  1  0  0  0
 68 82  1  0  0  0
 71 72  1  0  0  0
 71145  1  0  0  0
 71146  1  0  0  0
 71 74  1  0  0  0
 72 76  1  0  0  0
 72147  1  0  0  0
 72148  1  0  0  0
 73 75  1  0  0  0
 73 76  1  0  0  0
 73149  1  0  0  0
 73150  1  0  0  0
 74 75  1  0  0  0
 74 83  1  0  0  0
 74151  1  0  0  0
 75 79  1  0  0  0
 75152  1  0  0  0
 76 85  1  0  0  0
 76153  1  0  0  0
 77154  1  0  0  0
 77155  1  0  0  0
 77156  1  0  0  0
 77 83  1  0  0  0
 78 83  1  0  0  0
 78157  1  0  0  0
 78158  1  0  0  0
 78159  1  0  0  0
 79 82  1  0  0  0
 79160  1  0  0  0
 79161  1  0  0  0
 80 81  1  0  0  0
 80 84  1  0  0  0
 80162  1  0  0  0
 80163  1  0  0  0
 81 85  1  0  0  0
 81164  1  0  0  0
 81165  1  0  0  0
 82166  1  0  0  0
 82167  1  0  0  0
 83168  1  0  0  0
 84169  1  0  0  0
 85170  1  0  0  0
 85171  1  0  0  0
M  CHG  1  85   1
M  ISO  4   1 100  68 101  82 101  84 100
M  END
> <chiral flag>
0

> <version>
0

> <s_m_source_file>
/data/baiqing/PycharmProjects/Reinvent-master-3.2/result/LINK_invent/BTK/process_docking_weight1_custom_sum_contain_oxygen_bond_distance_aromatic_linkinvent_7_9_3/rearranged_h_0125.sdf

> <i_m_source_file_index>
12

> <r_mmod_Potential_Energy-OPLS-2005>
-133.775588989258

> <r_mmod_Stretch_Energy-OPLS-2005>
44.1065292358398

> <r_mmod_Bend_Energy-OPLS-2005>
110.288497924805

> <r_mmod_Torsional_Energy-OPLS-2005>
329.212982177734

> <r_mmod_Improper_Torsional_Energy-OPLS-2005>
8.88888263702393

> <r_mmod_Van_der_Waal_Energy-OPLS-2005>
127.422668457031

> <r_mmod_Electrostatic_Energy-OPLS-2005>
-294.809051513672

> <r_mmod_Solvation_Energy-OPLS-2005>
-472.156585693359

> <b_mmod_Minimization_Converged-OPLS-2005>
0

> <r_mmod_RMS_Derivative-OPLS-2005>
8.18491649627686

$$$$
12
                    3D
 Structure written by MMmdl.
175184  0  0  1  0            999 V2000
  -30.8310  -14.2574   20.7698 C   0  0  0  0  0  0
  -30.4057  -12.2866   19.3588 C   0  0  0  0  0  0
  -29.4637  -12.5394   18.1718 C   0  0  0  0  0  0
  -27.9968  -12.3781   18.6029 C   0  0  0  0  0  0
  -27.6629  -13.2012   19.8723 C   0  0  2  0  0  0
  -28.7007  -12.9441   20.9871 C   0  0  0  0  0  0
  -25.2598  -13.8165   20.5678 C   0  0  0  0  0  0
  -24.1840  -13.0442   20.9176 C   0  0  0  0  0  0
  -24.6383  -11.6912   20.8727 C   0  0  0  0  0  0
  -23.9052  -10.4295   21.0403 C   0  0  0  0  0  0
  -24.3605   -9.4213   21.9182 C   0  0  0  0  0  0
  -23.6282   -8.2244   22.0753 C   0  0  0  0  0  0
  -22.4267   -8.0278   21.3539 C   0  0  0  0  0  0
  -21.9901   -9.0252   20.4642 C   0  0  0  0  0  0
  -22.7228  -10.2137   20.3050 C   0  0  0  0  0  0
  -21.6849   -6.0734   22.5278 C   0  0  0  0  0  0
  -21.4012   -6.5638   23.8211 C   0  0  0  0  0  0
  -21.3658   -5.6792   24.9175 C   0  0  0  0  0  0
  -21.6043   -4.3053   24.7229 C   0  0  0  0  0  0
  -21.8819   -3.8147   23.4347 C   0  0  0  0  0  0
  -21.9192   -4.6964   22.3402 C   0  0  0  0  0  0
  -22.7864  -13.5240   21.1841 C   0  0  0  0  0  0
  -22.1660   -4.2151   21.0978 F   0  0  0  0  0  0
  -21.5631   -3.4536   25.7740 F   0  0  0  0  0  0
  -30.0517  -13.1991   20.4533 N   0  0  0  0  0  0
  -26.3020  -12.9326   20.3344 N   0  0  0  0  0  0
  -25.9300  -11.6486   20.5738 N   0  0  0  0  0  0
  -22.0497  -12.8233   22.0396 N   0  0  0  0  0  0
  -25.4344  -15.1877   20.4097 N   0  0  0  0  0  0
  -31.7425  -14.6841   20.0549 O   0  0  0  0  0  0
  -21.6630   -6.8876   21.4238 O   0  0  0  0  0  0
  -22.3554  -14.5547   20.6690 O   0  0  0  0  0  0
  -24.6087  -31.8724   23.2097 C   0  0  0  0  0  0
  -25.9012  -32.4843   23.8380 C   0  0  1  0  0  0
  -27.2472  -27.4825   20.0815 C   0  0  0  0  0  0
  -25.5898  -33.8640   24.2339 N   0  0  0  0  0  0
  -23.3906  -30.4917   21.5515 C   0  0  2  0  0  0
  -24.8353  -28.9518   20.1213 C   0  0  0  0  0  0
  -22.7369  -29.4675   22.5049 C   0  0  0  0  0  0
  -18.0266  -28.1357   22.8503 C   0  0  0  0  0  0
  -24.1487  -36.7320   23.2637 C   0  0  0  0  0  0
  -25.9101  -30.8510   21.3501 C   0  0  0  0  0  0
  -25.9884  -29.4825   20.7101 C   0  0  0  0  0  0
  -27.1885  -28.7493   20.6954 C   0  0  0  0  0  0
  -26.0721  -26.9423   19.5062 C   0  0  0  0  0  0
  -24.8686  -27.6776   19.5247 C   0  0  0  0  0  0
  -23.5938  -29.8135   20.1693 C   0  0  0  0  0  0
  -25.4103  -36.3127   24.0333 C   0  0  1  0  0  0
  -20.5848  -28.3643   23.1349 C   0  0  2  0  0  0
  -20.6747  -26.9397   22.5418 C   0  0  0  0  0  0
  -19.5727  -26.6385   21.5205 C   0  0  0  0  0  0
  -18.1901  -26.7907   22.1622 C   0  0  0  0  0  0
  -19.1512  -28.8824   23.2917 C   0  0  0  0  0  0
  -18.9446  -30.1427   23.8925 C   0  0  0  0  0  0
  -17.6450  -30.6584   24.0568 C   0  0  0  0  0  0
  -25.9033  -34.9494   23.5136 C   0  0  0  0  0  0
  -16.5347  -29.9079   23.6320 C   0  0  0  0  0  0
  -16.7254  -28.6490   23.0358 C   0  0  0  0  0  0
  -26.4457  -31.6597   25.0686 C   0  0  0  0  0  0
  -25.3738  -31.3664   26.1445 C   0  0  0  0  0  0
  -27.0268  -30.3058   24.5971 C   0  0  0  0  0  0
  -27.6043  -32.4294   25.7459 C   0  0  0  0  0  0
  -27.5580  -37.1813   24.8472 C   0  0  0  0  0  0
  -21.4111  -29.3018   22.3780 N   0  0  0  0  0  0
  -26.4300  -37.3802   23.9411 N   0  0  0  0  0  0
  -24.6547  -31.0855   22.0974 N   0  0  0  0  0  0
  -23.4173  -28.8238   23.3090 O   0  0  0  0  0  0
  -28.4867  -26.8882   20.0693 O   0  0  0  0  0  0
  -26.5599  -34.8942   22.4701 O   0  0  0  0  0  0
  -23.5305  -32.1473   23.7535 O   0  0  0  0  0  0
  -30.0434  -23.5819   20.3336 C   0  0  0  0  0  0
  -27.7677  -24.0560   21.3586 C   0  0  0  0  0  0
  -30.3833  -22.6852   21.5277 C   0  0  0  0  0  0
  -28.0952  -23.0992   22.5231 C   0  0  0  0  0  0
  -28.4705  -18.9787   22.3307 C   0  0  0  0  0  0
  -29.3786  -19.0846   24.6426 C   0  0  0  0  0  0
  -29.7625  -18.2997   21.8379 C   0  0  0  0  0  0
  -30.6633  -18.3751   24.1555 C   0  0  0  0  0  0
  -29.0359  -24.6700   20.7339 C   0  0  2  0  0  0
  -29.1208  -22.0212   22.1085 C   0  0  2  0  0  0
  -28.7119  -19.9263   23.5330 C   0  0  1  0  0  0
  -28.7205  -25.5926   19.5450 C   0  0  0  0  0  0
  -31.7085  -15.4031   22.7854 C   0  0  0  0  0  0
  -31.7079  -16.9064   22.4658 C   0  0  0  0  0  0
  -30.6929  -14.6585   22.0405 N   0  0  0  0  0  0
  -30.4535  -17.5575   22.9264 N   0  3  2  0  0  0
  -29.5136  -21.1534   23.2447 N   0  3  0  0  0  0
  -31.4456  -12.3986   19.0446 H   0  0  0  0  0  0
  -30.3111  -11.2556   19.7030 H   0  0  0  0  0  0
  -29.6913  -11.8508   17.3566 H   0  0  0  0  0  0
  -29.6245  -13.5448   17.7784 H   0  0  0  0  0  0
  -27.8152  -11.3184   18.7881 H   0  0  0  0  0  0
  -27.3323  -12.6611   17.7862 H   0  0  0  0  0  0
  -27.7221  -14.2545   19.5973 H   0  0  0  0  0  0
  -28.6440  -11.9089   21.3261 H   0  0  0  0  0  0
  -28.4527  -13.5575   21.8537 H   0  0  0  0  0  0
  -25.2746   -9.5693   22.4761 H   0  0  0  0  0  0
  -23.9995   -7.4639   22.7470 H   0  0  0  0  0  0
  -21.0836   -8.8764   19.8947 H   0  0  0  0  0  0
  -22.3679  -10.9671   19.6159 H   0  0  0  0  0  0
  -21.2003   -7.6148   23.9717 H   0  0  0  0  0  0
  -21.1479   -6.0521   25.9078 H   0  0  0  0  0  0
  -22.0603   -2.7610   23.2846 H   0  0  0  0  0  0
  -22.4091  -11.9879   22.4774 H   0  0  0  0  0  0
  -21.1110  -13.1263   22.2587 H   0  0  0  0  0  0
  -24.6711  -15.8472   20.5150 H   0  0  0  0  0  0
  -26.2904  -15.6208   20.0854 H   0  0  0  0  0  0
  -26.7095  -32.5583   23.1166 H   0  0  0  0  0  0
  -25.0069  -33.9796   25.0494 H   0  0  0  0  0  0
  -22.6752  -31.3052   21.4105 H   0  0  0  0  0  0
  -23.3748  -35.9654   23.3306 H   0  0  0  0  0  0
  -24.3592  -36.8921   22.2050 H   0  0  0  0  0  0
  -23.7231  -37.6517   23.6653 H   0  0  0  0  0  0
  -25.9968  -31.6087   20.5705 H   0  0  0  0  0  0
  -26.8077  -30.9235   21.9523 H   0  0  0  0  0  0
  -28.0832  -29.1615   21.1426 H   0  0  0  0  0  0
  -26.0569  -25.9731   19.0319 H   0  0  0  0  0  0
  -23.9790  -27.2596   19.0726 H   0  0  0  0  0  0
  -23.6891  -30.5831   19.4023 H   0  0  0  0  0  0
  -22.7219  -29.2220   19.8865 H   0  0  0  0  0  0
  -25.1267  -36.1989   25.0825 H   0  0  0  0  0  0
  -20.9919  -28.3215   24.1477 H   0  0  0  0  0  0
  -20.5651  -26.2263   23.3594 H   0  0  0  0  0  0
  -21.6618  -26.7457   22.1212 H   0  0  0  0  0  0
  -19.6908  -25.6303   21.1226 H   0  0  0  0  0  0
  -19.6663  -27.3208   20.6739 H   0  0  0  0  0  0
  -17.4163  -26.6671   21.4025 H   0  0  0  0  0  0
  -18.0313  -26.0022   22.9002 H   0  0  0  0  0  0
  -19.7931  -30.7220   24.2325 H   0  0  0  0  0  0
  -17.5019  -31.6273   24.5158 H   0  0  0  0  0  0
  -15.5349  -30.3009   23.7613 H   0  0  0  0  0  0
  -15.8648  -28.0820   22.7076 H   0  0  0  0  0  0
  -24.5952  -30.6955   25.7794 H   0  0  0  0  0  0
  -24.8877  -32.2799   26.4888 H   0  0  0  0  0  0
  -25.8117  -30.8871   27.0210 H   0  0  0  0  0  0
  -26.2763  -29.6838   24.1076 H   0  0  0  0  0  0
  -27.4135  -29.7264   25.4361 H   0  0  0  0  0  0
  -27.8559  -30.4400   23.9013 H   0  0  0  0  0  0
  -27.2681  -33.3613   26.2018 H   0  0  0  0  0  0
  -28.3881  -32.6807   25.0301 H   0  0  0  0  0  0
  -28.0668  -31.8408   26.5390 H   0  0  0  0  0  0
  -28.2604  -38.0106   24.7531 H   0  0  0  0  0  0
  -28.1062  -36.2637   24.6284 H   0  0  0  0  0  0
  -27.2311  -37.1455   25.8880 H   0  0  0  0  0  0
  -20.9268  -29.8725   21.6989 H   0  0  0  0  0  0
  -26.0194  -38.2882   24.1395 H   0  0  0  0  0  0
  -29.6485  -22.9835   19.5119 H   0  0  0  0  0  0
  -30.9589  -24.0456   19.9662 H   0  0  0  0  0  0
  -27.1144  -24.8547   21.7163 H   0  0  0  0  0  0
  -27.2038  -23.5228   20.5932 H   0  0  0  0  0  0
  -30.8870  -23.2768   22.2944 H   0  0  0  0  0  0
  -31.0975  -21.9277   21.2024 H   0  0  0  0  0  0
  -27.1740  -22.6299   22.8718 H   0  0  0  0  0  0
  -28.4837  -23.6798   23.3611 H   0  0  0  0  0  0
  -27.7759  -18.1980   22.6472 H   0  0  0  0  0  0
  -27.9560  -19.4694   21.5067 H   0  0  0  0  0  0
  -29.6031  -19.7061   25.5111 H   0  0  0  0  0  0
  -28.6713  -18.3345   24.9980 H   0  0  0  0  0  0
  -30.4358  -19.0421   21.4052 H   0  0  0  0  0  0
  -29.5149  -17.6047   21.0332 H   0  0  0  0  0  0
  -31.0498  -17.7385   24.9530 H   0  0  0  0  0  0
  -31.4382  -19.1195   23.9657 H   0  0  0  0  0  0
  -29.5264  -25.2745   21.4996 H   0  0  0  0  0  0
  -28.6891  -21.4305   21.3034 H   0  0  0  0  0  0
  -27.7406  -20.2678   23.8969 H   0  0  0  0  0  0
  -27.9580  -25.1850   18.8862 H   0  0  0  0  0  0
  -29.6069  -25.6971   18.9185 H   0  0  0  0  0  0
  -31.5522  -15.2422   23.8527 H   0  0  0  0  0  0
  -32.6944  -14.9860   22.5669 H   0  0  0  0  0  0
  -31.8544  -17.0514   21.3942 H   0  0  0  0  0  0
  -32.5770  -17.3726   22.9316 H   0  0  0  0  0  0
  -29.9790  -14.1788   22.5711 H   0  0  0  0  0  0
  -29.8462  -16.7908   23.1793 H   0  0  0  0  0  0
  -29.5165  -21.7295   24.0736 H   0  0  0  0  0  0
  -30.4730  -20.9002   23.0832 H   0  0  0  0  0  0
  1 25  1  0  0  0
  1 30  2  0  0  0
  1 85  1  0  0  0
  2  3  1  0  0  0
  2 25  1  0  0  0
  2 88  1  0  0  0
  2 89  1  0  0  0
  3  4  1  0  0  0
  3 90  1  0  0  0
  3 91  1  0  0  0
  4  5  1  0  0  0
  4 92  1  0  0  0
  4 93  1  0  0  0
  5  6  1  0  0  0
  5 26  1  0  0  0
  5 94  1  0  0  0
  6 25  1  0  0  0
  6 95  1  0  0  0
  6 96  1  0  0  0
  7  8  2  0  0  0
  7 26  1  0  0  0
  7 29  1  0  0  0
  8  9  1  0  0  0
  8 22  1  0  0  0
  9 10  1  0  0  0
  9 27  2  0  0  0
 10 11  2  0  0  0
 10 15  1  0  0  0
 11 12  1  0  0  0
 11 97  1  0  0  0
 12 13  2  0  0  0
 12 98  1  0  0  0
 13 14  1  0  0  0
 13 31  1  0  0  0
 14 15  2  0  0  0
 14 99  1  0  0  0
 15100  1  0  0  0
 16 17  2  0  0  0
 16 21  1  0  0  0
 16 31  1  0  0  0
 17 18  1  0  0  0
 17101  1  0  0  0
 18 19  2  0  0  0
 18102  1  0  0  0
 19 20  1  0  0  0
 19 24  1  0  0  0
 20 21  2  0  0  0
 20103  1  0  0  0
 21 23  1  0  0  0
 22 28  1  0  0  0
 22 32  2  0  0  0
 26 27  1  0  0  0
 28104  1  0  0  0
 28105  1  0  0  0
 29106  1  0  0  0
 29107  1  0  0  0
 33 34  1  0  0  0
 33 66  1  0  0  0
 33 70  2  0  0  0
 34 36  1  0  0  0
 34 59  1  0  0  0
 34108  1  0  0  0
 35 44  2  0  0  0
 35 45  1  0  0  0
 35 68  1  0  0  0
 36 56  1  0  0  0
 36109  1  0  0  0
 37 39  1  0  0  0
 37 47  1  0  0  0
 37 66  1  0  0  0
 37110  1  0  0  0
 38 43  2  0  0  0
 38 46  1  0  0  0
 38 47  1  0  0  0
 39 64  1  0  0  0
 39 67  2  0  0  0
 40 52  1  0  0  0
 40 53  2  0  0  0
 40 58  1  0  0  0
 41111  1  0  0  0
 41112  1  0  0  0
 41113  1  0  0  0
 41 48  1  0  0  0
 42 43  1  0  0  0
 42 66  1  0  0  0
 42114  1  0  0  0
 42115  1  0  0  0
 43 44  1  0  0  0
 44116  1  0  0  0
 45 46  2  0  0  0
 45117  1  0  0  0
 46118  1  0  0  0
 47119  1  0  0  0
 47120  1  0  0  0
 48 56  1  0  0  0
 48 65  1  0  0  0
 48121  1  0  0  0
 49 50  1  0  0  0
 49 53  1  0  0  0
 49 64  1  0  0  0
 49122  1  0  0  0
 50 51  1  0  0  0
 50123  1  0  0  0
 50124  1  0  0  0
 51 52  1  0  0  0
 51125  1  0  0  0
 51126  1  0  0  0
 52127  1  0  0  0
 52128  1  0  0  0
 53 54  1  0  0  0
 54 55  2  0  0  0
 54129  1  0  0  0
 55 57  1  0  0  0
 55130  1  0  0  0
 56 69  2  0  0  0
 57 58  2  0  0  0
 57131  1  0  0  0
 58132  1  0  0  0
 59 60  1  0  0  0
 59 61  1  0  0  0
 59 62  1  0  0  0
 60133  1  0  0  0
 60134  1  0  0  0
 60135  1  0  0  0
 61136  1  0  0  0
 61137  1  0  0  0
 61138  1  0  0  0
 62139  1  0  0  0
 62140  1  0  0  0
 62141  1  0  0  0
 63 65  1  0  0  0
 63142  1  0  0  0
 63143  1  0  0  0
 63144  1  0  0  0
 64145  1  0  0  0
 65146  1  0  0  0
 68 82  1  0  0  0
 71 73  1  0  0  0
 71 79  1  0  0  0
 71147  1  0  0  0
 71148  1  0  0  0
 72 74  1  0  0  0
 72 79  1  0  0  0
 72149  1  0  0  0
 72150  1  0  0  0
 73 80  1  0  0  0
 73151  1  0  0  0
 73152  1  0  0  0
 74 80  1  0  0  0
 74153  1  0  0  0
 74154  1  0  0  0
 75 77  1  0  0  0
 75 81  1  0  0  0
 75155  1  0  0  0
 75156  1  0  0  0
 76 78  1  0  0  0
 76 81  1  0  0  0
 76157  1  0  0  0
 76158  1  0  0  0
 77 86  1  0  0  0
 77159  1  0  0  0
 77160  1  0  0  0
 78 86  1  0  0  0
 78161  1  0  0  0
 78162  1  0  0  0
 79 82  1  0  0  0
 79163  1  0  0  0
 80 87  1  0  0  0
 80164  1  0  0  0
 81 87  1  0  0  0
 81165  1  0  0  0
 82166  1  0  0  0
 82167  1  0  0  0
 83 84  1  0  0  0
 83 85  1  0  0  0
 83168  1  0  0  0
 83169  1  0  0  0
 84170  1  0  0  0
 84171  1  0  0  0
 84 86  1  0  0  0
 85172  1  0  0  0
 86173  1  0  0  0
 87174  1  0  0  0
 87175  1  0  0  0
M  CHG  2  86   1  87   1
M  ISO  4   1 100  68 101  82 101  85 100
M  END
> <chiral flag>
0

> <version>
0

> <s_m_source_file>
/data/baiqing/PycharmProjects/Reinvent-master-3.2/result/LINK_invent/BTK/process_docking_weight1_custom_sum_contain_oxygen_bond_distance_aromatic_linkinvent_7_9_3/rearranged_h_0125.sdf

> <i_m_source_file_index>
13

> <r_mmod_Potential_Energy-OPLS-2005>
-237.392974853516

> <r_mmod_Stretch_Energy-OPLS-2005>
32.8494033813477

> <r_mmod_Bend_Energy-OPLS-2005>
120.907836914062

> <r_mmod_Torsional_Energy-OPLS-2005>
315.829528808594

> <r_mmod_Improper_Torsional_Energy-OPLS-2005>
5.69703054428101

> <r_mmod_Van_der_Waal_Energy-OPLS-2005>
139.413040161133

> <r_mmod_Electrostatic_Energy-OPLS-2005>
128.502792358398

> <r_mmod_Solvation_Energy-OPLS-2005>
-992.773498535156

> <b_mmod_Minimization_Converged-OPLS-2005>
0

> <r_mmod_RMS_Derivative-OPLS-2005>
2.01131558418274

$$$$
13
                    3D
 Structure written by MMmdl.
146154  0  0  1  0            999 V2000
  -30.4638  -15.2045   20.3834 C   0  0  0  0  0  0
  -30.4360  -12.7671   19.5234 C   0  0  0  0  0  0
  -29.5313  -12.5661   18.2829 C   0  0  0  0  0  0
  -28.0765  -12.3025   18.7085 C   0  0  0  0  0  0
  -27.6132  -13.2704   19.8265 C   0  0  2  0  0  0
  -28.6477  -13.4220   20.9613 C   0  0  0  0  0  0
  -25.2394  -13.8240   20.5746 C   0  0  0  0  0  0
  -24.1740  -13.0435   20.9256 C   0  0  0  0  0  0
  -24.6388  -11.6930   20.8760 C   0  0  0  0  0  0
  -23.9083  -10.4293   21.0408 C   0  0  0  0  0  0
  -24.3630   -9.4206   21.9184 C   0  0  0  0  0  0
  -23.6305   -8.2241   22.0748 C   0  0  0  0  0  0
  -22.4287   -8.0281   21.3542 C   0  0  0  0  0  0
  -21.9927   -9.0252   20.4642 C   0  0  0  0  0  0
  -22.7254  -10.2132   20.3055 C   0  0  0  0  0  0
  -21.6856   -6.0739   22.5278 C   0  0  0  0  0  0
  -21.4013   -6.5640   23.8212 C   0  0  0  0  0  0
  -21.3659   -5.6792   24.9174 C   0  0  0  0  0  0
  -21.6048   -4.3056   24.7224 C   0  0  0  0  0  0
  -21.8819   -3.8147   23.4345 C   0  0  0  0  0  0
  -21.9198   -4.6966   22.3401 C   0  0  0  0  0  0
  -22.7760  -13.5189   21.1911 C   0  0  0  0  0  0
  -22.1665   -4.2151   21.0981 F   0  0  0  0  0  0
  -21.5632   -3.4537   25.7737 F   0  0  0  0  0  0
  -29.8875  -13.9091   20.3381 N   0  0  0  0  0  0
  -26.2818  -12.9508   20.3231 N   0  0  0  0  0  0
  -25.9326  -11.6615   20.5724 N   0  0  0  0  0  0
  -22.0426  -12.8163   22.0465 N   0  0  0  0  0  0
  -25.4029  -15.1974   20.4176 N   0  0  0  0  0  0
  -31.6830  -15.2063   20.1654 O   0  0  0  0  0  0
  -21.6645   -6.8881   21.4242 O   0  0  0  0  0  0
  -22.3441  -14.5498   20.6763 O   0  0  0  0  0  0
  -24.6601  -31.8270   23.1754 C   0  0  0  0  0  0
  -25.9301  -32.4609   23.8197 C   0  0  1  0  0  0
  -27.2115  -26.9598   20.1774 C   0  0  0  0  0  0
  -25.5986  -33.8420   24.2106 N   0  0  0  0  0  0
  -23.4725  -30.4421   21.5226 C   0  0  2  0  0  0
  -24.9250  -28.8401   20.1102 C   0  0  0  0  0  0
  -22.7649  -29.4465   22.4785 C   0  0  0  0  0  0
  -18.0319  -28.1408   22.8478 C   0  0  0  0  0  0
  -24.1483  -36.7190   23.2646 C   0  0  0  0  0  0
  -26.0409  -30.6445   21.4015 C   0  0  0  0  0  0
  -26.1090  -29.2385   20.7441 C   0  0  0  0  0  0
  -27.2479  -28.3184   20.7569 C   0  0  0  0  0  0
  -26.0010  -26.7139   19.4889 C   0  0  0  0  0  0
  -24.8951  -27.5970   19.4622 C   0  0  0  0  0  0
  -23.7103  -29.7637   20.1469 C   0  0  0  0  0  0
  -25.4125  -36.2971   24.0307 C   0  0  1  0  0  0
  -20.5945  -28.3748   23.1189 C   0  0  2  0  0  0
  -20.6792  -26.9432   22.5400 C   0  0  0  0  0  0
  -19.5761  -26.6387   21.5211 C   0  0  0  0  0  0
  -18.1949  -26.7941   22.1633 C   0  0  0  0  0  0
  -19.1583  -28.8896   23.2823 C   0  0  0  0  0  0
  -18.9495  -30.1488   23.8858 C   0  0  0  0  0  0
  -17.6489  -30.6603   24.0554 C   0  0  0  0  0  0
  -25.9095  -34.9358   23.5022 C   0  0  0  0  0  0
  -16.5377  -29.9093   23.6349 C   0  0  0  0  0  0
  -16.7303  -28.6508   23.0380 C   0  0  0  0  0  0
  -26.4566  -31.6541   25.0709 C   0  0  0  0  0  0
  -25.3711  -31.3786   26.1379 C   0  0  0  0  0  0
  -27.0451  -30.2909   24.6421 C   0  0  0  0  0  0
  -27.6058  -32.4345   25.7512 C   0  0  0  0  0  0
  -27.5557  -37.1754   24.8472 C   0  0  0  0  0  0
  -21.4319  -29.3043   22.3536 N   0  0  0  0  0  0
  -26.4264  -37.3711   23.9418 N   0  0  0  0  0  0
  -24.7455  -30.9973   22.0868 N   0  0  0  0  0  0
  -23.4212  -28.8030   23.3011 O   0  0  0  0  0  0
  -28.1941  -25.8469   20.2680 O   0  0  0  0  0  0
  -26.5689  -34.8890   22.4609 O   0  0  0  0  0  0
  -23.5683  -32.1225   23.6873 O   0  0  0  0  0  0
  -28.6192  -21.8926   21.4255 C   0  0  0  0  0  0
  -29.0045  -20.4598   21.4886 C   0  0  0  0  0  0
  -28.9273  -21.7959   19.1644 C   0  0  0  0  0  0
  -28.5597  -22.7213   20.2307 C   0  0  0  0  0  0
  -29.3596  -19.6182   20.3608 C   0  0  0  0  0  0
  -27.8119  -24.2812   20.0210 C   0  0  0  0  0  0
  -30.1379  -18.0617   20.3759 C   0  0  0  0  0  0
  -29.3054  -20.4208   19.2210 N   0  0  0  0  0  0
  -29.7183  -16.4708   20.4690 N   0  0  0  0  0  0
  -31.4584  -12.9604   19.1961 H   0  0  0  0  0  0
  -30.4863  -11.8541   20.1193 H   0  0  0  0  0  0
  -29.9000  -11.7414   17.6713 H   0  0  0  0  0  0
  -29.5721  -13.4572   17.6542 H   0  0  0  0  0  0
  -28.0222  -11.2750   19.0698 H   0  0  0  0  0  0
  -27.4085  -12.3614   17.8485 H   0  0  0  0  0  0
  -27.5361  -14.2432   19.3398 H   0  0  0  0  0  0
  -28.8009  -12.4819   21.4931 H   0  0  0  0  0  0
  -28.2977  -14.1446   21.7001 H   0  0  0  0  0  0
  -25.2770   -9.5689   22.4764 H   0  0  0  0  0  0
  -24.0018   -7.4631   22.7463 H   0  0  0  0  0  0
  -21.0861   -8.8772   19.8941 H   0  0  0  0  0  0
  -22.3708  -10.9675   19.6168 H   0  0  0  0  0  0
  -21.1997   -7.6147   23.9716 H   0  0  0  0  0  0
  -21.1484   -6.0521   25.9079 H   0  0  0  0  0  0
  -22.0599   -2.7610   23.2843 H   0  0  0  0  0  0
  -22.4065  -11.9822   22.4834 H   0  0  0  0  0  0
  -21.1039  -13.1161   22.2681 H   0  0  0  0  0  0
  -24.6298  -15.8454   20.5250 H   0  0  0  0  0  0
  -26.2422  -15.6392   20.0667 H   0  0  0  0  0  0
  -26.7366  -32.5156   23.0910 H   0  0  0  0  0  0
  -25.0115  -33.9500   25.0245 H   0  0  0  0  0  0
  -22.7845  -31.2734   21.3562 H   0  0  0  0  0  0
  -23.3761  -35.9506   23.3306 H   0  0  0  0  0  0
  -24.3559  -36.8833   22.2061 H   0  0  0  0  0  0
  -23.7230  -37.6379   23.6692 H   0  0  0  0  0  0
  -26.2197  -31.3903   20.6255 H   0  0  0  0  0  0
  -26.9016  -30.6973   22.0564 H   0  0  0  0  0  0
  -28.1399  -28.6172   21.2891 H   0  0  0  0  0  0
  -25.8623  -25.7679   18.9878 H   0  0  0  0  0  0
  -23.9968  -27.2868   18.9457 H   0  0  0  0  0  0
  -23.8629  -30.5340   19.3899 H   0  0  0  0  0  0
  -22.8205  -29.2170   19.8296 H   0  0  0  0  0  0
  -25.1327  -36.1763   25.0797 H   0  0  0  0  0  0
  -21.0038  -28.3351   24.1310 H   0  0  0  0  0  0
  -20.5662  -26.2368   23.3641 H   0  0  0  0  0  0
  -21.6655  -26.7410   22.1205 H   0  0  0  0  0  0
  -19.6913  -25.6292   21.1262 H   0  0  0  0  0  0
  -19.6686  -27.3176   20.6721 H   0  0  0  0  0  0
  -17.4208  -26.6683   21.4046 H   0  0  0  0  0  0
  -18.0349  -26.0098   22.9045 H   0  0  0  0  0  0
  -19.7971  -30.7313   24.2210 H   0  0  0  0  0  0
  -17.5048  -31.6281   24.5160 H   0  0  0  0  0  0
  -15.5379  -30.2984   23.7695 H   0  0  0  0  0  0
  -15.8704  -28.0807   22.7137 H   0  0  0  0  0  0
  -24.5895  -30.7126   25.7705 H   0  0  0  0  0  0
  -24.8900  -32.2987   26.4701 H   0  0  0  0  0  0
  -25.7968  -30.9033   27.0224 H   0  0  0  0  0  0
  -26.3113  -29.6599   24.1393 H   0  0  0  0  0  0
  -27.3950  -29.7261   25.5072 H   0  0  0  0  0  0
  -27.9075  -30.4096   23.9860 H   0  0  0  0  0  0
  -27.2628  -33.3692   26.1958 H   0  0  0  0  0  0
  -28.3945  -32.6826   25.0395 H   0  0  0  0  0  0
  -28.0635  -31.8553   26.5542 H   0  0  0  0  0  0
  -28.2571  -38.0053   24.7525 H   0  0  0  0  0  0
  -28.1062  -36.2586   24.6301 H   0  0  0  0  0  0
  -27.2278  -37.1403   25.8875 H   0  0  0  0  0  0
  -20.9558  -29.8737   21.6678 H   0  0  0  0  0  0
  -26.0112  -38.2765   24.1448 H   0  0  0  0  0  0
  -28.3293  -22.3598   22.3560 H   0  0  0  0  0  0
  -29.0461  -20.0051   22.4695 H   0  0  0  0  0  0
  -28.8758  -22.1711   18.1529 H   0  0  0  0  0  0
  -26.8618  -24.1629   20.5437 H   0  0  0  0  0  0
  -27.5396  -24.2601   18.9658 H   0  0  0  0  0  0
  -30.8520  -18.1643   21.1932 H   0  0  0  0  0  0
  -30.7686  -18.0949   19.4876 H   0  0  0  0  0  0
  -28.7267  -16.3388   20.5975 H   0  0  0  0  0  0
  1 25  1  0  0  0
  1 30  2  0  0  0
  1 79  1  0  0  0
  2  3  1  0  0  0
  2 25  1  0  0  0
  2 80  1  0  0  0
  2 81  1  0  0  0
  3  4  1  0  0  0
  3 82  1  0  0  0
  3 83  1  0  0  0
  4  5  1  0  0  0
  4 84  1  0  0  0
  4 85  1  0  0  0
  5  6  1  0  0  0
  5 26  1  0  0  0
  5 86  1  0  0  0
  6 25  1  0  0  0
  6 87  1  0  0  0
  6 88  1  0  0  0
  7  8  2  0  0  0
  7 26  1  0  0  0
  7 29  1  0  0  0
  8  9  1  0  0  0
  8 22  1  0  0  0
  9 10  1  0  0  0
  9 27  2  0  0  0
 10 11  2  0  0  0
 10 15  1  0  0  0
 11 12  1  0  0  0
 11 89  1  0  0  0
 12 13  2  0  0  0
 12 90  1  0  0  0
 13 14  1  0  0  0
 13 31  1  0  0  0
 14 15  2  0  0  0
 14 91  1  0  0  0
 15 92  1  0  0  0
 16 17  2  0  0  0
 16 21  1  0  0  0
 16 31  1  0  0  0
 17 18  1  0  0  0
 17 93  1  0  0  0
 18 19  2  0  0  0
 18 94  1  0  0  0
 19 20  1  0  0  0
 19 24  1  0  0  0
 20 21  2  0  0  0
 20 95  1  0  0  0
 21 23  1  0  0  0
 22 28  1  0  0  0
 22 32  2  0  0  0
 26 27  1  0  0  0
 28 96  1  0  0  0
 28 97  1  0  0  0
 29 98  1  0  0  0
 29 99  1  0  0  0
 33 34  1  0  0  0
 33 66  1  0  0  0
 33 70  2  0  0  0
 34 36  1  0  0  0
 34 59  1  0  0  0
 34100  1  0  0  0
 35 44  2  0  0  0
 35 45  1  0  0  0
 35 68  1  0  0  0
 36 56  1  0  0  0
 36101  1  0  0  0
 37 39  1  0  0  0
 37 47  1  0  0  0
 37 66  1  0  0  0
 37102  1  0  0  0
 38 43  2  0  0  0
 38 46  1  0  0  0
 38 47  1  0  0  0
 39 64  1  0  0  0
 39 67  2  0  0  0
 40 52  1  0  0  0
 40 53  2  0  0  0
 40 58  1  0  0  0
 41103  1  0  0  0
 41104  1  0  0  0
 41105  1  0  0  0
 41 48  1  0  0  0
 42 43  1  0  0  0
 42 66  1  0  0  0
 42106  1  0  0  0
 42107  1  0  0  0
 43 44  1  0  0  0
 44108  1  0  0  0
 45 46  2  0  0  0
 45109  1  0  0  0
 46110  1  0  0  0
 47111  1  0  0  0
 47112  1  0  0  0
 48 56  1  0  0  0
 48 65  1  0  0  0
 48113  1  0  0  0
 49 50  1  0  0  0
 49 53  1  0  0  0
 49 64  1  0  0  0
 49114  1  0  0  0
 50 51  1  0  0  0
 50115  1  0  0  0
 50116  1  0  0  0
 51 52  1  0  0  0
 51117  1  0  0  0
 51118  1  0  0  0
 52119  1  0  0  0
 52120  1  0  0  0
 53 54  1  0  0  0
 54 55  2  0  0  0
 54121  1  0  0  0
 55 57  1  0  0  0
 55122  1  0  0  0
 56 69  2  0  0  0
 57 58  2  0  0  0
 57123  1  0  0  0
 58124  1  0  0  0
 59 60  1  0  0  0
 59 61  1  0  0  0
 59 62  1  0  0  0
 60125  1  0  0  0
 60126  1  0  0  0
 60127  1  0  0  0
 61128  1  0  0  0
 61129  1  0  0  0
 61130  1  0  0  0
 62131  1  0  0  0
 62132  1  0  0  0
 62133  1  0  0  0
 63 65  1  0  0  0
 63134  1  0  0  0
 63135  1  0  0  0
 63136  1  0  0  0
 64137  1  0  0  0
 65138  1  0  0  0
 68 76  1  0  0  0
 71 72  2  0  0  0
 71 74  1  0  0  0
 71139  1  0  0  0
 72 75  1  0  0  0
 72140  1  0  0  0
 73 74  2  0  0  0
 73 78  1  0  0  0
 73141  1  0  0  0
 74 76  1  0  0  0
 75 77  1  0  0  0
 75 78  2  0  0  0
 76142  1  0  0  0
 76143  1  0  0  0
 77 79  1  0  0  0
 77144  1  0  0  0
 77145  1  0  0  0
 79146  1  0  0  0
M  ISO  4   1 100  68 101  76 101  79 100
M  END
> <chiral flag>
0

> <version>
0

> <s_m_source_file>
/data/baiqing/PycharmProjects/Reinvent-master-3.2/result/LINK_invent/BTK/process_docking_weight1_custom_sum_contain_oxygen_bond_distance_aromatic_linkinvent_7_9_3/rearranged_h_0125.sdf

> <i_m_source_file_index>
14

> <r_mmod_Potential_Energy-OPLS-2005>
843.274963378906

> <r_mmod_Stretch_Energy-OPLS-2005>
458.017547607422

> <r_mmod_Bend_Energy-OPLS-2005>
418.495819091797

> <r_mmod_Torsional_Energy-OPLS-2005>
225.233703613281

> <r_mmod_Improper_Torsional_Energy-OPLS-2005>
9.81258487701416

> <r_mmod_Van_der_Waal_Energy-OPLS-2005>
134.441879272461

> <r_mmod_Electrostatic_Energy-OPLS-2005>
-577.202697753906

> <r_mmod_Solvation_Energy-OPLS-2005>
-233.439727783203

> <b_mmod_Minimization_Converged-OPLS-2005>
0

> <r_mmod_RMS_Derivative-OPLS-2005>
0.974682211875916

$$$$
14
                    3D
 Structure written by MMmdl.
163172  0  0  1  0            999 V2000
  -30.5458  -14.8640   20.4366 C   0  0  0  0  0  0
  -30.4382  -12.5221   19.5158 C   0  0  0  0  0  0
  -29.5246  -12.5258   18.2671 C   0  0  0  0  0  0
  -28.0522  -12.3260   18.6755 C   0  0  0  0  0  0
  -27.6376  -13.2385   19.8607 C   0  0  2  0  0  0
  -28.6768  -13.2154   21.0046 C   0  0  0  0  0  0
  -25.2473  -13.8204   20.5717 C   0  0  0  0  0  0
  -24.1768  -13.0443   20.9231 C   0  0  0  0  0  0
  -24.6367  -11.6919   20.8774 C   0  0  0  0  0  0
  -23.9039  -10.4303   21.0437 C   0  0  0  0  0  0
  -24.3588   -9.4216   21.9207 C   0  0  0  0  0  0
  -23.6265   -8.2249   22.0767 C   0  0  0  0  0  0
  -22.4252   -8.0279   21.3554 C   0  0  0  0  0  0
  -21.9884   -9.0259   20.4667 C   0  0  0  0  0  0
  -22.7210  -10.2144   20.3089 C   0  0  0  0  0  0
  -21.6849   -6.0735   22.5283 C   0  0  0  0  0  0
  -21.4024   -6.5644   23.8220 C   0  0  0  0  0  0
  -21.3660   -5.6795   24.9177 C   0  0  0  0  0  0
  -21.6044   -4.3058   24.7237 C   0  0  0  0  0  0
  -21.8808   -3.8145   23.4355 C   0  0  0  0  0  0
  -21.9191   -4.6961   22.3408 C   0  0  0  0  0  0
  -22.7804  -13.5232   21.1879 C   0  0  0  0  0  0
  -22.1654   -4.2147   21.0986 F   0  0  0  0  0  0
  -21.5623   -3.4535   25.7746 F   0  0  0  0  0  0
  -29.9701  -13.6000   20.4259 N   0  0  0  0  0  0
  -26.2897  -12.9418   20.3319 N   0  0  0  0  0  0
  -25.9301  -11.6551   20.5781 N   0  0  0  0  0  0
  -22.0427  -12.8251   22.0437 N   0  0  0  0  0  0
  -25.4133  -15.1928   20.4115 N   0  0  0  0  0  0
  -31.7231  -14.9702   20.0806 O   0  0  0  0  0  0
  -21.6627   -6.8875   21.4246 O   0  0  0  0  0  0
  -22.3502  -14.5551   20.6736 O   0  0  0  0  0  0
  -24.6394  -31.8472   23.1945 C   0  0  0  0  0  0
  -25.9179  -32.4714   23.8321 C   0  0  1  0  0  0
  -27.2184  -27.1854   20.1521 C   0  0  0  0  0  0
  -25.5941  -33.8523   24.2221 N   0  0  0  0  0  0
  -23.4417  -30.4684   21.5379 C   0  0  2  0  0  0
  -24.8933  -28.9042   20.1118 C   0  0  0  0  0  0
  -22.7557  -29.4554   22.4880 C   0  0  0  0  0  0
  -18.0300  -28.1397   22.8481 C   0  0  0  0  0  0
  -24.1485  -36.7258   23.2644 C   0  0  0  0  0  0
  -25.9946  -30.7366   21.3895 C   0  0  0  0  0  0
  -26.0686  -29.3527   20.7304 C   0  0  0  0  0  0
  -27.2376  -28.5070   20.7366 C   0  0  0  0  0  0
  -26.0250  -26.8307   19.4905 C   0  0  0  0  0  0
  -24.8812  -27.6534   19.4784 C   0  0  0  0  0  0
  -23.6682  -29.8018   20.1561 C   0  0  0  0  0  0
  -25.4122  -36.3038   24.0318 C   0  0  1  0  0  0
  -20.5908  -28.3711   23.1255 C   0  0  2  0  0  0
  -20.6787  -26.9420   22.5407 C   0  0  0  0  0  0
  -19.5763  -26.6385   21.5215 C   0  0  0  0  0  0
  -18.1942  -26.7936   22.1621 C   0  0  0  0  0  0
  -19.1555  -28.8878   23.2853 C   0  0  0  0  0  0
  -18.9472  -30.1477   23.8875 C   0  0  0  0  0  0
  -17.6468  -30.6594   24.0566 C   0  0  0  0  0  0
  -25.9064  -34.9409   23.5071 C   0  0  0  0  0  0
  -16.5360  -29.9088   23.6339 C   0  0  0  0  0  0
  -16.7285  -28.6505   23.0363 C   0  0  0  0  0  0
  -26.4531  -31.6579   25.0736 C   0  0  0  0  0  0
  -25.3741  -31.3754   26.1447 C   0  0  0  0  0  0
  -27.0411  -30.2988   24.6290 C   0  0  0  0  0  0
  -27.6063  -32.4352   25.7509 C   0  0  0  0  0  0
  -27.5569  -37.1790   24.8470 C   0  0  0  0  0  0
  -21.4251  -29.3028   22.3626 N   0  0  0  0  0  0
  -26.4288  -37.3748   23.9402 N   0  0  0  0  0  0
  -24.7102  -31.0383   22.0958 N   0  0  0  0  0  0
  -23.4214  -28.8093   23.3014 O   0  0  0  0  0  0
  -28.2569  -26.2007   20.1844 O   0  0  0  0  0  0
  -26.5640  -34.8900   22.4638 O   0  0  0  0  0  0
  -23.5515  -32.1317   23.7189 O   0  0  0  0  0  0
  -27.7993  -20.8708   20.7072 C   0  0  0  0  0  0
  -27.4678  -22.2732   20.6492 C   0  0  0  0  0  0
  -29.7533  -22.8247   20.4600 C   0  0  0  0  0  0
  -29.1292  -20.3466   20.6738 C   0  0  0  0  0  0
  -30.0989  -21.4037   20.5005 C   0  0  0  0  0  0
  -28.4177  -23.3406   20.5599 C   0  0  0  0  0  0
  -31.5714  -21.0343   20.3971 C   0  0  0  0  0  0
  -32.1765  -20.5171   21.7105 C   0  0  0  0  0  0
  -31.8594  -19.0476   22.0352 C   0  0  0  0  0  0
  -30.3801  -18.7471   22.3209 C   0  0  0  0  0  0
  -29.4341  -18.7854   21.1024 C   0  0  2  0  0  0
  -30.6485  -17.7268   18.9531 C   0  0  0  0  0  0
  -27.9275  -24.8744   20.8742 C   0  0  0  0  0  0
  -29.6682  -17.4697   20.1083 C   0  0  1  0  0  0
  -29.7219  -15.9889   20.6401 N   0  0  0  0  0  0
  -31.4785  -12.6591   19.2231 H   0  0  0  0  0  0
  -30.3940  -11.5554   20.0224 H   0  0  0  0  0  0
  -29.8300  -11.7463   17.5679 H   0  0  0  0  0  0
  -29.6306  -13.4739   17.7369 H   0  0  0  0  0  0
  -27.9335  -11.2807   18.9605 H   0  0  0  0  0  0
  -27.3905  -12.4851   17.8229 H   0  0  0  0  0  0
  -27.6193  -14.2539   19.4640 H   0  0  0  0  0  0
  -28.7322  -12.2273   21.4643 H   0  0  0  0  0  0
  -28.3895  -13.9042   21.8014 H   0  0  0  0  0  0
  -25.2740   -9.5691   22.4771 H   0  0  0  0  0  0
  -23.9973   -7.4650   22.7493 H   0  0  0  0  0  0
  -21.0806   -8.8781   19.8986 H   0  0  0  0  0  0
  -22.3660  -10.9678   19.6193 H   0  0  0  0  0  0
  -21.2025   -7.6148   23.9727 H   0  0  0  0  0  0
  -21.1487   -6.0524   25.9085 H   0  0  0  0  0  0
  -22.0585   -2.7600   23.2868 H   0  0  0  0  0  0
  -22.3979  -11.9870   22.4808 H   0  0  0  0  0  0
  -21.1069  -13.1358   22.2672 H   0  0  0  0  0  0
  -24.6344  -15.8349   20.5134 H   0  0  0  0  0  0
  -26.2507  -15.6385   20.0617 H   0  0  0  0  0  0
  -26.7239  -32.5343   23.1058 H   0  0  0  0  0  0
  -25.0103  -33.9661   25.0379 H   0  0  0  0  0  0
  -22.7392  -31.2903   21.3870 H   0  0  0  0  0  0
  -23.3739  -35.9598   23.3323 H   0  0  0  0  0  0
  -24.3556  -36.8869   22.2050 H   0  0  0  0  0  0
  -23.7258  -37.6469   23.6671 H   0  0  0  0  0  0
  -26.1464  -31.4958   20.6207 H   0  0  0  0  0  0
  -26.8650  -30.7836   22.0334 H   0  0  0  0  0  0
  -28.1329  -28.8417   21.2404 H   0  0  0  0  0  0
  -25.9590  -25.8705   18.9985 H   0  0  0  0  0  0
  -23.9840  -27.3067   18.9842 H   0  0  0  0  0  0
  -23.8046  -30.5770   19.4015 H   0  0  0  0  0  0
  -22.7834  -29.2434   19.8446 H   0  0  0  0  0  0
  -25.1311  -36.1872   25.0813 H   0  0  0  0  0  0
  -20.9994  -28.3296   24.1380 H   0  0  0  0  0  0
  -20.5696  -26.2320   23.3621 H   0  0  0  0  0  0
  -21.6655  -26.7442   22.1197 H   0  0  0  0  0  0
  -19.6926  -25.6292   21.1257 H   0  0  0  0  0  0
  -19.6712  -27.3191   20.6744 H   0  0  0  0  0  0
  -17.4215  -26.6683   21.4020 H   0  0  0  0  0  0
  -18.0336  -26.0087   22.9025 H   0  0  0  0  0  0
  -19.7951  -30.7300   24.2230 H   0  0  0  0  0  0
  -17.5026  -31.6273   24.5170 H   0  0  0  0  0  0
  -15.5364  -30.2986   23.7689 H   0  0  0  0  0  0
  -15.8678  -28.0825   22.7095 H   0  0  0  0  0  0
  -24.5904  -30.7117   25.7779 H   0  0  0  0  0  0
  -24.8955  -32.2933   26.4865 H   0  0  0  0  0  0
  -25.8045  -30.8932   27.0234 H   0  0  0  0  0  0
  -26.3037  -29.6703   24.1283 H   0  0  0  0  0  0
  -27.4035  -29.7287   25.4858 H   0  0  0  0  0  0
  -27.8936  -30.4250   23.9610 H   0  0  0  0  0  0
  -27.2657  -33.3674   26.2038 H   0  0  0  0  0  0
  -28.3900  -32.6889   25.0353 H   0  0  0  0  0  0
  -28.0710  -31.8515   26.5468 H   0  0  0  0  0  0
  -28.2602  -38.0070   24.7472 H   0  0  0  0  0  0
  -28.1046  -36.2592   24.6353 H   0  0  0  0  0  0
  -27.2272  -37.1503   25.8871 H   0  0  0  0  0  0
  -20.9461  -29.8741   21.6807 H   0  0  0  0  0  0
  -26.0148  -38.2813   24.1406 H   0  0  0  0  0  0
  -26.9824  -20.1814   20.8688 H   0  0  0  0  0  0
  -26.4244  -22.5346   20.7674 H   0  0  0  0  0  0
  -30.5572  -23.5485   20.4132 H   0  0  0  0  0  0
  -32.1311  -21.9114   20.0709 H   0  0  0  0  0  0
  -31.7086  -20.3009   19.6042 H   0  0  0  0  0  0
  -31.8972  -21.1703   22.5380 H   0  0  0  0  0  0
  -33.2623  -20.5921   21.6257 H   0  0  0  0  0  0
  -32.4267  -18.7749   22.9254 H   0  0  0  0  0  0
  -32.2404  -18.3945   21.2522 H   0  0  0  0  0  0
  -30.0100  -19.4277   23.0907 H   0  0  0  0  0  0
  -30.3231  -17.7551   22.7687 H   0  0  0  0  0  0
  -28.4767  -18.5257   21.5597 H   0  0  0  0  0  0
  -30.4540  -18.6978   18.4959 H   0  0  0  0  0  0
  -30.5308  -16.9772   18.1688 H   0  0  0  0  0  0
  -31.6882  -17.7052   19.2715 H   0  0  0  0  0  0
  -28.2381  -25.0371   21.9070 H   0  0  0  0  0  0
  -26.8425  -24.8063   20.9462 H   0  0  0  0  0  0
  -28.7147  -17.4347   19.5794 H   0  0  0  0  0  0
  -28.8350  -15.7077   21.0291 H   0  0  0  0  0  0
  1 25  1  0  0  0
  1 30  2  0  0  0
  1 85  1  0  0  0
  2  3  1  0  0  0
  2 25  1  0  0  0
  2 86  1  0  0  0
  2 87  1  0  0  0
  3  4  1  0  0  0
  3 88  1  0  0  0
  3 89  1  0  0  0
  4  5  1  0  0  0
  4 90  1  0  0  0
  4 91  1  0  0  0
  5  6  1  0  0  0
  5 26  1  0  0  0
  5 92  1  0  0  0
  6 25  1  0  0  0
  6 93  1  0  0  0
  6 94  1  0  0  0
  7  8  2  0  0  0
  7 26  1  0  0  0
  7 29  1  0  0  0
  8  9  1  0  0  0
  8 22  1  0  0  0
  9 10  1  0  0  0
  9 27  2  0  0  0
 10 11  2  0  0  0
 10 15  1  0  0  0
 11 12  1  0  0  0
 11 95  1  0  0  0
 12 13  2  0  0  0
 12 96  1  0  0  0
 13 14  1  0  0  0
 13 31  1  0  0  0
 14 15  2  0  0  0
 14 97  1  0  0  0
 15 98  1  0  0  0
 16 17  2  0  0  0
 16 21  1  0  0  0
 16 31  1  0  0  0
 17 18  1  0  0  0
 17 99  1  0  0  0
 18 19  2  0  0  0
 18100  1  0  0  0
 19 20  1  0  0  0
 19 24  1  0  0  0
 20 21  2  0  0  0
 20101  1  0  0  0
 21 23  1  0  0  0
 22 28  1  0  0  0
 22 32  2  0  0  0
 26 27  1  0  0  0
 28102  1  0  0  0
 28103  1  0  0  0
 29104  1  0  0  0
 29105  1  0  0  0
 33 34  1  0  0  0
 33 66  1  0  0  0
 33 70  2  0  0  0
 34 36  1  0  0  0
 34 59  1  0  0  0
 34106  1  0  0  0
 35 44  2  0  0  0
 35 45  1  0  0  0
 35 68  1  0  0  0
 36 56  1  0  0  0
 36107  1  0  0  0
 37 39  1  0  0  0
 37 47  1  0  0  0
 37 66  1  0  0  0
 37108  1  0  0  0
 38 43  2  0  0  0
 38 46  1  0  0  0
 38 47  1  0  0  0
 39 64  1  0  0  0
 39 67  2  0  0  0
 40 52  1  0  0  0
 40 53  2  0  0  0
 40 58  1  0  0  0
 41109  1  0  0  0
 41110  1  0  0  0
 41111  1  0  0  0
 41 48  1  0  0  0
 42 43  1  0  0  0
 42 66  1  0  0  0
 42112  1  0  0  0
 42113  1  0  0  0
 43 44  1  0  0  0
 44114  1  0  0  0
 45 46  2  0  0  0
 45115  1  0  0  0
 46116  1  0  0  0
 47117  1  0  0  0
 47118  1  0  0  0
 48 56  1  0  0  0
 48 65  1  0  0  0
 48119  1  0  0  0
 49 50  1  0  0  0
 49 53  1  0  0  0
 49 64  1  0  0  0
 49120  1  0  0  0
 50 51  1  0  0  0
 50121  1  0  0  0
 50122  1  0  0  0
 51 52  1  0  0  0
 51123  1  0  0  0
 51124  1  0  0  0
 52125  1  0  0  0
 52126  1  0  0  0
 53 54  1  0  0  0
 54 55  2  0  0  0
 54127  1  0  0  0
 55 57  1  0  0  0
 55128  1  0  0  0
 56 69  2  0  0  0
 57 58  2  0  0  0
 57129  1  0  0  0
 58130  1  0  0  0
 59 60  1  0  0  0
 59 61  1  0  0  0
 59 62  1  0  0  0
 60131  1  0  0  0
 60132  1  0  0  0
 60133  1  0  0  0
 61134  1  0  0  0
 61135  1  0  0  0
 61136  1  0  0  0
 62137  1  0  0  0
 62138  1  0  0  0
 62139  1  0  0  0
 63 65  1  0  0  0
 63140  1  0  0  0
 63141  1  0  0  0
 63142  1  0  0  0
 64143  1  0  0  0
 65144  1  0  0  0
 68 83  1  0  0  0
 71 72  2  0  0  0
 71 74  1  0  0  0
 71145  1  0  0  0
 72 76  1  0  0  0
 72146  1  0  0  0
 73 75  1  0  0  0
 73 76  2  0  0  0
 73147  1  0  0  0
 74 75  2  0  0  0
 74 81  1  0  0  0
 75 77  1  0  0  0
 76 83  1  0  0  0
 77 78  1  0  0  0
 77148  1  0  0  0
 77149  1  0  0  0
 78 79  1  0  0  0
 78150  1  0  0  0
 78151  1  0  0  0
 79 80  1  0  0  0
 79152  1  0  0  0
 79153  1  0  0  0
 80154  1  0  0  0
 80155  1  0  0  0
 80 81  1  0  0  0
 81 84  1  0  0  0
 81156  1  0  0  0
 82157  1  0  0  0
 82158  1  0  0  0
 82159  1  0  0  0
 82 84  1  0  0  0
 83160  1  0  0  0
 83161  1  0  0  0
 84 85  1  0  0  0
 84162  1  0  0  0
 85163  1  0  0  0
M  ISO  4   1 100  68 101  83 101  85 100
M  END
> <chiral flag>
0

> <version>
0

> <s_m_source_file>
/data/baiqing/PycharmProjects/Reinvent-master-3.2/result/LINK_invent/BTK/process_docking_weight1_custom_sum_contain_oxygen_bond_distance_aromatic_linkinvent_7_9_3/rearranged_h_0125.sdf

> <i_m_source_file_index>
15

> <r_mmod_Potential_Energy-OPLS-2005>
465.421142578125

> <r_mmod_Stretch_Energy-OPLS-2005>
196.891662597656

> <r_mmod_Bend_Energy-OPLS-2005>
268.400573730469

> <r_mmod_Torsional_Energy-OPLS-2005>
278.499084472656

> <r_mmod_Improper_Torsional_Energy-OPLS-2005>
9.89788341522217

> <r_mmod_Van_der_Waal_Energy-OPLS-2005>
128.597091674805

> <r_mmod_Electrostatic_Energy-OPLS-2005>
-359.417236328125

> <r_mmod_Solvation_Energy-OPLS-2005>
-204.476211547852

> <b_mmod_Minimization_Converged-OPLS-2005>
0

> <r_mmod_RMS_Derivative-OPLS-2005>
3.15578246116638

$$$$
15
                    3D
 Structure written by MMmdl.
148156  0  0  1  0            999 V2000
  -30.4644  -15.3036   20.3874 C   0  0  0  0  0  0
  -30.4168  -12.8408   19.5382 C   0  0  0  0  0  0
  -29.5274  -12.5935   18.2919 C   0  0  0  0  0  0
  -28.0739  -12.3235   18.7153 C   0  0  0  0  0  0
  -27.5995  -13.2981   19.8271 C   0  0  2  0  0  0
  -28.6328  -13.5166   20.9587 C   0  0  0  0  0  0
  -25.2342  -13.8304   20.5842 C   0  0  0  0  0  0
  -24.1735  -13.0408   20.9337 C   0  0  0  0  0  0
  -24.6431  -11.6932   20.8787 C   0  0  0  0  0  0
  -23.9149  -10.4274   21.0370 C   0  0  0  0  0  0
  -24.3663   -9.4183   21.9145 C   0  0  0  0  0  0
  -23.6317   -8.2237   22.0751 C   0  0  0  0  0  0
  -22.4326   -8.0286   21.3518 C   0  0  0  0  0  0
  -21.9953   -9.0260   20.4628 C   0  0  0  0  0  0
  -22.7312  -10.2115   20.3017 C   0  0  0  0  0  0
  -21.6843   -6.0752   22.5268 C   0  0  0  0  0  0
  -21.4003   -6.5662   23.8197 C   0  0  0  0  0  0
  -21.3666   -5.6820   24.9163 C   0  0  0  0  0  0
  -21.6008   -4.3088   24.7208 C   0  0  0  0  0  0
  -21.8807   -3.8182   23.4336 C   0  0  0  0  0  0
  -21.9167   -4.6980   22.3386 C   0  0  0  0  0  0
  -22.7715  -13.5085   21.1844 C   0  0  0  0  0  0
  -22.1648   -4.2185   21.0960 F   0  0  0  0  0  0
  -21.5633   -3.4549   25.7715 F   0  0  0  0  0  0
  -29.8604  -14.0100   20.3223 N   0  0  0  0  0  0
  -26.2778  -12.9615   20.3321 N   0  0  0  0  0  0
  -25.9381  -11.6686   20.5841 N   0  0  0  0  0  0
  -22.0423  -12.8078   22.0449 N   0  0  0  0  0  0
  -25.3854  -15.2047   20.4304 N   0  0  0  0  0  0
  -31.6861  -15.2327   20.1662 O   0  0  0  0  0  0
  -21.6646   -6.8904   21.4246 O   0  0  0  0  0  0
  -22.3377  -14.5369   20.6659 O   0  0  0  0  0  0
  -24.6603  -31.8239   23.1727 C   0  0  0  0  0  0
  -25.9285  -32.4586   23.8187 C   0  0  1  0  0  0
  -27.1987  -26.9238   20.1887 C   0  0  0  0  0  0
  -25.5949  -33.8414   24.2074 N   0  0  0  0  0  0
  -23.4705  -30.4401   21.5262 C   0  0  2  0  0  0
  -24.9152  -28.8256   20.1140 C   0  0  0  0  0  0
  -22.7640  -29.4432   22.4831 C   0  0  0  0  0  0
  -18.0314  -28.1403   22.8469 C   0  0  0  0  0  0
  -24.1497  -36.7231   23.2657 C   0  0  0  0  0  0
  -26.0383  -30.6329   21.3961 C   0  0  0  0  0  0
  -26.1027  -29.2216   20.7445 C   0  0  0  0  0  0
  -27.2418  -28.2935   20.7503 C   0  0  0  0  0  0
  -25.9827  -26.6813   19.5133 C   0  0  0  0  0  0
  -24.8811  -27.5744   19.4780 C   0  0  0  0  0  0
  -23.7040  -29.7567   20.1512 C   0  0  0  0  0  0
  -25.4131  -36.2984   24.0305 C   0  0  1  0  0  0
  -20.5935  -28.3737   23.1218 C   0  0  2  0  0  0
  -20.6794  -26.9432   22.5422 C   0  0  0  0  0  0
  -19.5770  -26.6365   21.5236 C   0  0  0  0  0  0
  -18.1942  -26.7931   22.1640 C   0  0  0  0  0  0
  -19.1576  -28.8893   23.2821 C   0  0  0  0  0  0
  -18.9483  -30.1485   23.8844 C   0  0  0  0  0  0
  -17.6478  -30.6592   24.0558 C   0  0  0  0  0  0
  -25.9087  -34.9351   23.5008 C   0  0  0  0  0  0
  -16.5361  -29.9077   23.6353 C   0  0  0  0  0  0
  -16.7290  -28.6505   23.0344 C   0  0  0  0  0  0
  -26.4528  -31.6533   25.0712 C   0  0  0  0  0  0
  -25.3657  -31.3793   26.1380 C   0  0  0  0  0  0
  -27.0402  -30.2893   24.6421 C   0  0  0  0  0  0
  -27.6010  -32.4339   25.7523 C   0  0  0  0  0  0
  -27.5567  -37.1775   24.8462 C   0  0  0  0  0  0
  -21.4325  -29.3023   22.3581 N   0  0  0  0  0  0
  -26.4284  -37.3707   23.9399 N   0  0  0  0  0  0
  -24.7464  -30.9917   22.0863 N   0  0  0  0  0  0
  -23.4202  -28.8024   23.3072 O   0  0  0  0  0  0
  -28.2144  -25.8295   20.2098 O   0  0  0  0  0  0
  -26.5742  -34.8903   22.4635 O   0  0  0  0  0  0
  -23.5681  -32.1203   23.6843 O   0  0  0  0  0  0
  -28.6835  -19.8316   18.3070 C   0  0  0  0  0  0
  -28.9081  -17.8188   17.3536 C   0  0  0  0  0  0
  -29.0536  -19.4299   19.6123 C   0  0  0  0  0  0
  -29.4073  -17.8615   19.6526 C   0  0  0  0  0  0
  -28.8357  -20.9144   20.5256 C   0  0  0  0  0  0
  -28.8162  -22.6718   19.9815 C   0  0  0  0  0  0
  -27.9845  -24.2087   20.4589 C   0  0  0  0  0  0
  -28.6080  -19.0794   17.2111 N   0  0  0  0  0  0
  -29.2819  -17.2325   18.4662 N   0  0  0  0  0  0
  -29.8209  -16.6418   20.5989 N   0  0  0  0  0  0
  -31.4413  -13.0241   19.2128 H   0  0  0  0  0  0
  -30.4691  -11.9517   20.1662 H   0  0  0  0  0  0
  -29.9111  -11.7604   17.6967 H   0  0  0  0  0  0
  -29.5600  -13.4727   17.6458 H   0  0  0  0  0  0
  -28.0307  -11.2945   19.0683 H   0  0  0  0  0  0
  -27.4083  -12.3723   17.8499 H   0  0  0  0  0  0
  -27.4939  -14.2595   19.3186 H   0  0  0  0  0  0
  -28.8081  -12.6043   21.5256 H   0  0  0  0  0  0
  -28.2679  -14.2605   21.6719 H   0  0  0  0  0  0
  -25.2785   -9.5719   22.4747 H   0  0  0  0  0  0
  -23.9976   -7.4662   22.7520 H   0  0  0  0  0  0
  -21.0847   -8.8780   19.8980 H   0  0  0  0  0  0
  -22.3730  -10.9652   19.6151 H   0  0  0  0  0  0
  -21.2034   -7.6182   23.9720 H   0  0  0  0  0  0
  -21.1486   -6.0535   25.9058 H   0  0  0  0  0  0
  -22.0579   -2.7646   23.2801 H   0  0  0  0  0  0
  -22.4181  -11.9832   22.4917 H   0  0  0  0  0  0
  -21.1059  -13.1096   22.2704 H   0  0  0  0  0  0
  -26.2233  -15.6707   20.1107 H   0  0  0  0  0  0
  -24.5971  -15.8388   20.5259 H   0  0  0  0  0  0
  -26.7353  -32.5127   23.0916 H   0  0  0  0  0  0
  -24.9973  -33.9488   25.0130 H   0  0  0  0  0  0
  -22.7810  -31.2694   21.3624 H   0  0  0  0  0  0
  -23.3761  -35.9561   23.3291 H   0  0  0  0  0  0
  -24.3576  -36.8905   22.2072 H   0  0  0  0  0  0
  -23.7238  -37.6412   23.6724 H   0  0  0  0  0  0
  -26.2089  -31.3706   20.6102 H   0  0  0  0  0  0
  -26.9040  -30.6944   22.0443 H   0  0  0  0  0  0
  -28.1462  -28.5961   21.2582 H   0  0  0  0  0  0
  -25.8491  -25.7287   19.0184 H   0  0  0  0  0  0
  -23.9785  -27.2667   18.9652 H   0  0  0  0  0  0
  -23.8506  -30.5243   19.3905 H   0  0  0  0  0  0
  -22.8083  -29.2138   19.8433 H   0  0  0  0  0  0
  -25.1327  -36.1796   25.0795 H   0  0  0  0  0  0
  -20.9997  -28.3340   24.1351 H   0  0  0  0  0  0
  -20.5673  -26.2353   23.3657 H   0  0  0  0  0  0
  -21.6655  -26.7411   22.1231 H   0  0  0  0  0  0
  -19.6929  -25.6259   21.1286 H   0  0  0  0  0  0
  -19.6715  -27.3163   20.6756 H   0  0  0  0  0  0
  -17.4214  -26.6667   21.4034 H   0  0  0  0  0  0
  -18.0345  -26.0091   22.9052 H   0  0  0  0  0  0
  -19.7949  -30.7333   24.2167 H   0  0  0  0  0  0
  -17.5018  -31.6271   24.5172 H   0  0  0  0  0  0
  -15.5356  -30.2963   23.7702 H   0  0  0  0  0  0
  -15.8689  -28.0822   22.7067 H   0  0  0  0  0  0
  -24.5868  -30.7091   25.7732 H   0  0  0  0  0  0
  -24.8821  -32.3000   26.4649 H   0  0  0  0  0  0
  -25.7914  -30.9091   27.0249 H   0  0  0  0  0  0
  -26.3054  -29.6604   24.1390 H   0  0  0  0  0  0
  -27.3884  -29.7222   25.5059 H   0  0  0  0  0  0
  -27.9017  -30.4077   23.9852 H   0  0  0  0  0  0
  -27.2557  -33.3682   26.1967 H   0  0  0  0  0  0
  -28.3906  -32.6820   25.0416 H   0  0  0  0  0  0
  -28.0582  -31.8546   26.5555 H   0  0  0  0  0  0
  -28.2570  -38.0085   24.7503 H   0  0  0  0  0  0
  -28.1078  -36.2604   24.6296 H   0  0  0  0  0  0
  -27.2299  -37.1440   25.8874 H   0  0  0  0  0  0
  -20.9570  -29.8688   21.6705 H   0  0  0  0  0  0
  -26.0143  -38.2778   24.1379 H   0  0  0  0  0  0
  -28.3700  -20.8349   18.0993 H   0  0  0  0  0  0
  -28.8384  -17.1984   16.4716 H   0  0  0  0  0  0
  -29.5577  -20.8684   21.3467 H   0  0  0  0  0  0
  -27.8786  -20.7811   21.0292 H   0  0  0  0  0  0
  -28.5612  -22.6558   18.9259 H   0  0  0  0  0  0
  -29.8734  -22.9406   19.9742 H   0  0  0  0  0  0
  -27.9545  -24.1530   21.5474 H   0  0  0  0  0  0
  -26.9458  -24.0447   20.1730 H   0  0  0  0  0  0
  -29.9847  -16.9547   21.5451 H   0  0  0  0  0  0
  1 25  1  0  0  0
  1 30  2  0  0  0
  1 80  1  0  0  0
  2  3  1  0  0  0
  2 25  1  0  0  0
  2 81  1  0  0  0
  2 82  1  0  0  0
  3  4  1  0  0  0
  3 83  1  0  0  0
  3 84  1  0  0  0
  4  5  1  0  0  0
  4 85  1  0  0  0
  4 86  1  0  0  0
  5  6  1  0  0  0
  5 26  1  0  0  0
  5 87  1  0  0  0
  6 25  1  0  0  0
  6 88  1  0  0  0
  6 89  1  0  0  0
  7  8  2  0  0  0
  7 26  1  0  0  0
  7 29  1  0  0  0
  8  9  1  0  0  0
  8 22  1  0  0  0
  9 10  1  0  0  0
  9 27  2  0  0  0
 10 11  2  0  0  0
 10 15  1  0  0  0
 11 12  1  0  0  0
 11 90  1  0  0  0
 12 13  2  0  0  0
 12 91  1  0  0  0
 13 14  1  0  0  0
 13 31  1  0  0  0
 14 15  2  0  0  0
 14 92  1  0  0  0
 15 93  1  0  0  0
 16 17  2  0  0  0
 16 21  1  0  0  0
 16 31  1  0  0  0
 17 18  1  0  0  0
 17 94  1  0  0  0
 18 19  2  0  0  0
 18 95  1  0  0  0
 19 20  1  0  0  0
 19 24  1  0  0  0
 20 21  2  0  0  0
 20 96  1  0  0  0
 21 23  1  0  0  0
 22 28  1  0  0  0
 22 32  2  0  0  0
 26 27  1  0  0  0
 28 97  1  0  0  0
 28 98  1  0  0  0
 29 99  1  0  0  0
 29100  1  0  0  0
 33 34  1  0  0  0
 33 66  1  0  0  0
 33 70  2  0  0  0
 34 36  1  0  0  0
 34 59  1  0  0  0
 34101  1  0  0  0
 35 44  2  0  0  0
 35 45  1  0  0  0
 35 68  1  0  0  0
 36 56  1  0  0  0
 36102  1  0  0  0
 37 39  1  0  0  0
 37 47  1  0  0  0
 37 66  1  0  0  0
 37103  1  0  0  0
 38 43  2  0  0  0
 38 46  1  0  0  0
 38 47  1  0  0  0
 39 64  1  0  0  0
 39 67  2  0  0  0
 40 52  1  0  0  0
 40 53  2  0  0  0
 40 58  1  0  0  0
 41104  1  0  0  0
 41105  1  0  0  0
 41106  1  0  0  0
 41 48  1  0  0  0
 42 43  1  0  0  0
 42 66  1  0  0  0
 42107  1  0  0  0
 42108  1  0  0  0
 43 44  1  0  0  0
 44109  1  0  0  0
 45 46  2  0  0  0
 45110  1  0  0  0
 46111  1  0  0  0
 47112  1  0  0  0
 47113  1  0  0  0
 48 56  1  0  0  0
 48 65  1  0  0  0
 48114  1  0  0  0
 49 50  1  0  0  0
 49 53  1  0  0  0
 49 64  1  0  0  0
 49115  1  0  0  0
 50 51  1  0  0  0
 50116  1  0  0  0
 50117  1  0  0  0
 51 52  1  0  0  0
 51118  1  0  0  0
 51119  1  0  0  0
 52120  1  0  0  0
 52121  1  0  0  0
 53 54  1  0  0  0
 54 55  2  0  0  0
 54122  1  0  0  0
 55 57  1  0  0  0
 55123  1  0  0  0
 56 69  2  0  0  0
 57 58  2  0  0  0
 57124  1  0  0  0
 58125  1  0  0  0
 59 60  1  0  0  0
 59 61  1  0  0  0
 59 62  1  0  0  0
 60126  1  0  0  0
 60127  1  0  0  0
 60128  1  0  0  0
 61129  1  0  0  0
 61130  1  0  0  0
 61131  1  0  0  0
 62132  1  0  0  0
 62133  1  0  0  0
 62134  1  0  0  0
 63 65  1  0  0  0
 63135  1  0  0  0
 63136  1  0  0  0
 63137  1  0  0  0
 64138  1  0  0  0
 65139  1  0  0  0
 68 77  1  0  0  0
 71 73  2  0  0  0
 71 78  1  0  0  0
 71140  1  0  0  0
 72 78  2  0  0  0
 72 79  1  0  0  0
 72141  1  0  0  0
 73 74  1  0  0  0
 73 75  1  0  0  0
 74 79  2  0  0  0
 74 80  1  0  0  0
 75 76  1  0  0  0
 75142  1  0  0  0
 75143  1  0  0  0
 76 77  1  0  0  0
 76144  1  0  0  0
 76145  1  0  0  0
 77146  1  0  0  0
 77147  1  0  0  0
 80148  1  0  0  0
M  ISO  4   1 100  68 101  77 101  80 100
M  END
> <chiral flag>
0

> <version>
0

> <s_m_source_file>
/data/baiqing/PycharmProjects/Reinvent-master-3.2/result/LINK_invent/BTK/process_docking_weight1_custom_sum_contain_oxygen_bond_distance_aromatic_linkinvent_7_9_3/rearranged_h_0125.sdf

> <i_m_source_file_index>
16

> <r_mmod_Potential_Energy-OPLS-2005>
1214.24328613281

> <r_mmod_Stretch_Energy-OPLS-2005>
672.786682128906

> <r_mmod_Bend_Energy-OPLS-2005>
590.984008789062

> <r_mmod_Torsional_Energy-OPLS-2005>
279.419189453125

> <r_mmod_Improper_Torsional_Energy-OPLS-2005>
3.93006086349487

> <r_mmod_Van_der_Waal_Energy-OPLS-2005>
140.159790039062

> <r_mmod_Electrostatic_Energy-OPLS-2005>
-719.579040527344

> <r_mmod_Solvation_Energy-OPLS-2005>
-227.863677978516

> <b_mmod_Minimization_Converged-OPLS-2005>
0

> <r_mmod_RMS_Derivative-OPLS-2005>
5.41118431091309

$$$$
16
                    3D
 Structure written by MMmdl.
160169  0  0  1  0            999 V2000
  -30.5832  -14.8408   20.4519 C   0  0  0  0  0  0
  -30.4443  -12.5205   19.4800 C   0  0  0  0  0  0
  -29.5185  -12.5145   18.2423 C   0  0  0  0  0  0
  -28.0477  -12.3194   18.6595 C   0  0  0  0  0  0
  -27.6384  -13.2344   19.8434 C   0  0  2  0  0  0
  -28.6854  -13.2129   20.9787 C   0  0  0  0  0  0
  -25.2493  -13.8167   20.5683 C   0  0  0  0  0  0
  -24.1805  -13.0421   20.9253 C   0  0  0  0  0  0
  -24.6403  -11.6905   20.8776 C   0  0  0  0  0  0
  -23.9077  -10.4284   21.0418 C   0  0  0  0  0  0
  -24.3623   -9.4196   21.9190 C   0  0  0  0  0  0
  -23.6293   -8.2237   22.0756 C   0  0  0  0  0  0
  -22.4275   -8.0278   21.3543 C   0  0  0  0  0  0
  -21.9913   -9.0256   20.4647 C   0  0  0  0  0  0
  -22.7249  -10.2132   20.3062 C   0  0  0  0  0  0
  -21.6851   -6.0732   22.5275 C   0  0  0  0  0  0
  -21.4015   -6.5634   23.8208 C   0  0  0  0  0  0
  -21.3660   -5.6786   24.9170 C   0  0  0  0  0  0
  -21.6045   -4.3050   24.7219 C   0  0  0  0  0  0
  -21.8820   -3.8142   23.4341 C   0  0  0  0  0  0
  -21.9193   -4.6961   22.3397 C   0  0  0  0  0  0
  -22.7826  -13.5212   21.1882 C   0  0  0  0  0  0
  -22.1662   -4.2148   21.0976 F   0  0  0  0  0  0
  -21.5629   -3.4534   25.7733 F   0  0  0  0  0  0
  -29.9752  -13.5978   20.3883 N   0  0  0  0  0  0
  -26.2923  -12.9388   20.3244 N   0  0  0  0  0  0
  -25.9330  -11.6534   20.5749 N   0  0  0  0  0  0
  -22.0454  -12.8213   22.0428 N   0  0  0  0  0  0
  -25.4140  -15.1875   20.3966 N   0  0  0  0  0  0
  -31.7779  -14.9376   20.1608 O   0  0  0  0  0  0
  -21.6639   -6.8878   21.4237 O   0  0  0  0  0  0
  -22.3537  -14.5522   20.6715 O   0  0  0  0  0  0
  -24.6411  -31.8512   23.1967 C   0  0  0  0  0  0
  -25.9203  -32.4736   23.8328 C   0  0  1  0  0  0
  -27.2083  -27.1792   20.1257 C   0  0  0  0  0  0
  -25.5968  -33.8540   24.2241 N   0  0  0  0  0  0
  -23.4412  -30.4777   21.5435 C   0  0  2  0  0  0
  -24.8881  -28.9279   20.1087 C   0  0  0  0  0  0
  -22.7559  -29.4586   22.4886 C   0  0  0  0  0  0
  -18.0305  -28.1394   22.8475 C   0  0  0  0  0  0
  -24.1494  -36.7272   23.2632 C   0  0  0  0  0  0
  -25.9987  -30.7372   21.3935 C   0  0  0  0  0  0
  -26.0687  -29.3558   20.7297 C   0  0  0  0  0  0
  -27.2300  -28.4963   20.7305 C   0  0  0  0  0  0
  -25.9991  -26.8700   19.4487 C   0  0  0  0  0  0
  -24.8647  -27.6950   19.4553 C   0  0  0  0  0  0
  -23.6641  -29.8234   20.1580 C   0  0  0  0  0  0
  -25.4120  -36.3058   24.0318 C   0  0  1  0  0  0
  -20.5917  -28.3719   23.1242 C   0  0  2  0  0  0
  -20.6794  -26.9427   22.5399 C   0  0  0  0  0  0
  -19.5765  -26.6385   21.5209 C   0  0  0  0  0  0
  -18.1948  -26.7933   22.1625 C   0  0  0  0  0  0
  -19.1561  -28.8875   23.2851 C   0  0  0  0  0  0
  -18.9477  -30.1471   23.8876 C   0  0  0  0  0  0
  -17.6471  -30.6588   24.0561 C   0  0  0  0  0  0
  -25.9073  -34.9428   23.5083 C   0  0  0  0  0  0
  -16.5364  -29.9083   23.6331 C   0  0  0  0  0  0
  -16.7289  -28.6504   23.0348 C   0  0  0  0  0  0
  -26.4523  -31.6574   25.0744 C   0  0  0  0  0  0
  -25.3713  -31.3752   26.1440 C   0  0  0  0  0  0
  -27.0367  -30.2970   24.6291 C   0  0  0  0  0  0
  -27.6070  -32.4315   25.7521 C   0  0  0  0  0  0
  -27.5584  -37.1791   24.8455 C   0  0  0  0  0  0
  -21.4255  -29.3056   22.3626 N   0  0  0  0  0  0
  -26.4286  -37.3768   23.9412 N   0  0  0  0  0  0
  -24.7136  -31.0403   22.0996 N   0  0  0  0  0  0
  -23.4222  -28.8112   23.3003 O   0  0  0  0  0  0
  -28.2343  -26.1666   20.2052 O   0  0  0  0  0  0
  -26.5644  -34.8912   22.4653 O   0  0  0  0  0  0
  -23.5536  -32.1375   23.7201 O   0  0  0  0  0  0
  -29.8875  -21.2518   20.6872 C   0  0  0  0  0  0
  -29.5619  -22.6818   20.7036 C   0  0  0  0  0  0
  -27.6598  -22.2182   19.3914 C   0  0  0  0  0  0
  -29.1049  -20.2331   20.0219 C   0  0  0  0  0  0
  -27.9688  -20.8181   19.3679 C   0  0  0  0  0  0
  -28.4202  -23.2379   20.0302 C   0  0  0  0  0  0
  -27.0244  -19.9406   18.5637 C   0  0  0  0  0  0
  -27.7249  -18.7098   17.9954 C   0  0  0  0  0  0
  -29.4639  -18.6335   19.7736 C   0  0  1  0  0  0
  -29.7839  -17.9058   22.2699 C   0  0  0  0  0  0
  -27.7684  -24.7326   19.9184 C   0  0  0  0  0  0
  -30.0904  -17.5130   20.8166 C   0  0  1  0  0  0
  -29.7883  -15.9827   20.6450 N   0  0  0  0  0  0
  -28.3482  -17.9513   19.0892 N   0  3  0  0  0  0
  -31.4800  -12.6684   19.1699 H   0  0  0  0  0  0
  -30.4196  -11.5550   19.9875 H   0  0  0  0  0  0
  -29.8177  -11.7259   17.5505 H   0  0  0  0  0  0
  -29.6254  -13.4544   17.6985 H   0  0  0  0  0  0
  -27.9250  -11.2740   18.9449 H   0  0  0  0  0  0
  -27.3873  -12.4809   17.8067 H   0  0  0  0  0  0
  -27.6177  -14.2461   19.4395 H   0  0  0  0  0  0
  -28.7479  -12.2233   21.4338 H   0  0  0  0  0  0
  -28.4024  -13.8999   21.7777 H   0  0  0  0  0  0
  -25.2766   -9.5671   22.4768 H   0  0  0  0  0  0
  -23.9995   -7.4629   22.7477 H   0  0  0  0  0  0
  -21.0840   -8.8781   19.8956 H   0  0  0  0  0  0
  -22.3705  -10.9676   19.6178 H   0  0  0  0  0  0
  -21.2010   -7.6142   23.9711 H   0  0  0  0  0  0
  -21.1480   -6.0516   25.9073 H   0  0  0  0  0  0
  -22.0599   -2.7604   23.2839 H   0  0  0  0  0  0
  -22.4049  -11.9873   22.4830 H   0  0  0  0  0  0
  -21.1072  -13.1252   22.2613 H   0  0  0  0  0  0
  -24.6018  -15.7949   20.4199 H   0  0  0  0  0  0
  -26.1623  -15.5528   19.8282 H   0  0  0  0  0  0
  -26.7271  -32.5359   23.1063 H   0  0  0  0  0  0
  -25.0096  -33.9665   25.0375 H   0  0  0  0  0  0
  -22.7415  -31.3035   21.3991 H   0  0  0  0  0  0
  -23.3767  -35.9591   23.3268 H   0  0  0  0  0  0
  -24.3589  -36.8924   22.2052 H   0  0  0  0  0  0
  -23.7232  -37.6458   23.6676 H   0  0  0  0  0  0
  -26.1512  -31.4965   20.6250 H   0  0  0  0  0  0
  -26.8712  -30.7833   22.0334 H   0  0  0  0  0  0
  -28.1233  -28.8157   21.2488 H   0  0  0  0  0  0
  -25.8538  -25.9475   18.9116 H   0  0  0  0  0  0
  -23.9673  -27.3650   18.9497 H   0  0  0  0  0  0
  -23.7979  -30.6056   19.4098 H   0  0  0  0  0  0
  -22.7795  -29.2664   19.8438 H   0  0  0  0  0  0
  -25.1300  -36.1896   25.0808 H   0  0  0  0  0  0
  -21.0003  -28.3303   24.1365 H   0  0  0  0  0  0
  -20.5698  -26.2327   23.3612 H   0  0  0  0  0  0
  -21.6661  -26.7445   22.1191 H   0  0  0  0  0  0
  -19.6927  -25.6294   21.1245 H   0  0  0  0  0  0
  -19.6696  -27.3189   20.6734 H   0  0  0  0  0  0
  -17.4212  -26.6667   21.4035 H   0  0  0  0  0  0
  -18.0356  -26.0084   22.9032 H   0  0  0  0  0  0
  -19.7952  -30.7299   24.2232 H   0  0  0  0  0  0
  -17.5023  -31.6264   24.5172 H   0  0  0  0  0  0
  -15.5365  -30.2978   23.7666 H   0  0  0  0  0  0
  -15.8690  -28.0819   22.7066 H   0  0  0  0  0  0
  -24.5906  -30.7081   25.7765 H   0  0  0  0  0  0
  -24.8882  -32.2927   26.4811 H   0  0  0  0  0  0
  -25.8004  -30.8968   27.0254 H   0  0  0  0  0  0
  -26.2970  -29.6717   24.1278 H   0  0  0  0  0  0
  -27.3964  -29.7242   25.4848 H   0  0  0  0  0  0
  -27.8892  -30.4205   23.9610 H   0  0  0  0  0  0
  -27.2685  -33.3636   26.2057 H   0  0  0  0  0  0
  -28.3906  -32.6837   25.0363 H   0  0  0  0  0  0
  -28.0707  -31.8460   26.5470 H   0  0  0  0  0  0
  -28.2571  -38.0119   24.7544 H   0  0  0  0  0  0
  -28.1113  -36.2653   24.6228 H   0  0  0  0  0  0
  -27.2309  -37.1373   25.8857 H   0  0  0  0  0  0
  -20.9453  -29.8794   21.6835 H   0  0  0  0  0  0
  -26.0158  -38.2833   24.1439 H   0  0  0  0  0  0
  -30.7931  -20.9419   21.1902 H   0  0  0  0  0  0
  -30.2143  -23.3547   21.2428 H   0  0  0  0  0  0
  -26.7661  -22.5349   18.8706 H   0  0  0  0  0  0
  -26.5926  -20.5122   17.7407 H   0  0  0  0  0  0
  -26.1906  -19.6459   19.2025 H   0  0  0  0  0  0
  -28.4779  -18.9967   17.2596 H   0  0  0  0  0  0
  -27.0020  -18.0778   17.4779 H   0  0  0  0  0  0
  -30.2295  -18.7078   18.9992 H   0  0  0  0  0  0
  -30.1395  -18.9122   22.4920 H   0  0  0  0  0  0
  -30.2739  -17.2315   22.9731 H   0  0  0  0  0  0
  -28.7134  -17.8823   22.4749 H   0  0  0  0  0  0
  -26.8255  -24.6111   20.4544 H   0  0  0  0  0  0
  -27.5355  -24.7582   18.8539 H   0  0  0  0  0  0
  -31.1742  -17.6080   20.7257 H   0  0  0  0  0  0
  -28.8373  -15.7251   20.8628 H   0  0  0  0  0  0
  -28.7048  -17.0850   18.7216 H   0  0  0  0  0  0
  -27.6435  -17.7453   19.7760 H   0  0  0  0  0  0
  1 25  1  0  0  0
  1 30  2  0  0  0
  1 83  1  0  0  0
  2  3  1  0  0  0
  2 25  1  0  0  0
  2 85  1  0  0  0
  2 86  1  0  0  0
  3  4  1  0  0  0
  3 87  1  0  0  0
  3 88  1  0  0  0
  4  5  1  0  0  0
  4 89  1  0  0  0
  4 90  1  0  0  0
  5  6  1  0  0  0
  5 26  1  0  0  0
  5 91  1  0  0  0
  6 25  1  0  0  0
  6 92  1  0  0  0
  6 93  1  0  0  0
  7  8  2  0  0  0
  7 26  1  0  0  0
  7 29  1  0  0  0
  8  9  1  0  0  0
  8 22  1  0  0  0
  9 10  1  0  0  0
  9 27  2  0  0  0
 10 11  2  0  0  0
 10 15  1  0  0  0
 11 12  1  0  0  0
 11 94  1  0  0  0
 12 13  2  0  0  0
 12 95  1  0  0  0
 13 14  1  0  0  0
 13 31  1  0  0  0
 14 15  2  0  0  0
 14 96  1  0  0  0
 15 97  1  0  0  0
 16 17  2  0  0  0
 16 21  1  0  0  0
 16 31  1  0  0  0
 17 18  1  0  0  0
 17 98  1  0  0  0
 18 19  2  0  0  0
 18 99  1  0  0  0
 19 20  1  0  0  0
 19 24  1  0  0  0
 20 21  2  0  0  0
 20100  1  0  0  0
 21 23  1  0  0  0
 22 28  1  0  0  0
 22 32  2  0  0  0
 26 27  1  0  0  0
 28101  1  0  0  0
 28102  1  0  0  0
 29103  1  0  0  0
 29104  1  0  0  0
 33 34  1  0  0  0
 33 66  1  0  0  0
 33 70  2  0  0  0
 34 36  1  0  0  0
 34 59  1  0  0  0
 34105  1  0  0  0
 35 44  2  0  0  0
 35 45  1  0  0  0
 35 68  1  0  0  0
 36 56  1  0  0  0
 36106  1  0  0  0
 37 39  1  0  0  0
 37 47  1  0  0  0
 37 66  1  0  0  0
 37107  1  0  0  0
 38 43  2  0  0  0
 38 46  1  0  0  0
 38 47  1  0  0  0
 39 64  1  0  0  0
 39 67  2  0  0  0
 40 52  1  0  0  0
 40 53  2  0  0  0
 40 58  1  0  0  0
 41108  1  0  0  0
 41109  1  0  0  0
 41110  1  0  0  0
 41 48  1  0  0  0
 42 43  1  0  0  0
 42 66  1  0  0  0
 42111  1  0  0  0
 42112  1  0  0  0
 43 44  1  0  0  0
 44113  1  0  0  0
 45 46  2  0  0  0
 45114  1  0  0  0
 46115  1  0  0  0
 47116  1  0  0  0
 47117  1  0  0  0
 48 56  1  0  0  0
 48 65  1  0  0  0
 48118  1  0  0  0
 49 50  1  0  0  0
 49 53  1  0  0  0
 49 64  1  0  0  0
 49119  1  0  0  0
 50 51  1  0  0  0
 50120  1  0  0  0
 50121  1  0  0  0
 51 52  1  0  0  0
 51122  1  0  0  0
 51123  1  0  0  0
 52124  1  0  0  0
 52125  1  0  0  0
 53 54  1  0  0  0
 54 55  2  0  0  0
 54126  1  0  0  0
 55 57  1  0  0  0
 55127  1  0  0  0
 56 69  2  0  0  0
 57 58  2  0  0  0
 57128  1  0  0  0
 58129  1  0  0  0
 59 60  1  0  0  0
 59 61  1  0  0  0
 59 62  1  0  0  0
 60130  1  0  0  0
 60131  1  0  0  0
 60132  1  0  0  0
 61133  1  0  0  0
 61134  1  0  0  0
 61135  1  0  0  0
 62136  1  0  0  0
 62137  1  0  0  0
 62138  1  0  0  0
 63 65  1  0  0  0
 63139  1  0  0  0
 63140  1  0  0  0
 63141  1  0  0  0
 64142  1  0  0  0
 65143  1  0  0  0
 68 81  1  0  0  0
 71 72  2  0  0  0
 71 74  1  0  0  0
 71144  1  0  0  0
 72 76  1  0  0  0
 72145  1  0  0  0
 73 75  1  0  0  0
 73 76  2  0  0  0
 73146  1  0  0  0
 74 75  2  0  0  0
 74 79  1  0  0  0
 75 77  1  0  0  0
 76 81  1  0  0  0
 77 78  1  0  0  0
 77147  1  0  0  0
 77148  1  0  0  0
 78 84  1  0  0  0
 78149  1  0  0  0
 78150  1  0  0  0
 79 82  1  0  0  0
 79 84  1  0  0  0
 79151  1  0  0  0
 80152  1  0  0  0
 80153  1  0  0  0
 80154  1  0  0  0
 80 82  1  0  0  0
 81155  1  0  0  0
 81156  1  0  0  0
 82 83  1  0  0  0
 82157  1  0  0  0
 83158  1  0  0  0
 84159  1  0  0  0
 84160  1  0  0  0
M  CHG  1  84   1
M  ISO  4   1 100  68 101  81 101  83 100
M  END
> <chiral flag>
0

> <version>
0

> <s_m_source_file>
/data/baiqing/PycharmProjects/Reinvent-master-3.2/result/LINK_invent/BTK/process_docking_weight1_custom_sum_contain_oxygen_bond_distance_aromatic_linkinvent_7_9_3/rearranged_h_0125.sdf

> <i_m_source_file_index>
17

> <r_mmod_Potential_Energy-OPLS-2005>
243.423767089844

> <r_mmod_Stretch_Energy-OPLS-2005>
197.44677734375

> <r_mmod_Bend_Energy-OPLS-2005>
292.782470703125

> <r_mmod_Torsional_Energy-OPLS-2005>
264.740081787109

> <r_mmod_Improper_Torsional_Energy-OPLS-2005>
7.92427206039429

> <r_mmod_Van_der_Waal_Energy-OPLS-2005>
149.282730102539

> <r_mmod_Electrostatic_Energy-OPLS-2005>
-320.089538574219

> <r_mmod_Solvation_Energy-OPLS-2005>
-494.627258300781

> <b_mmod_Minimization_Converged-OPLS-2005>
0

> <r_mmod_RMS_Derivative-OPLS-2005>
0.57949286699295

$$$$
17
                    3D
 Structure written by MMmdl.
150158  0  0  1  0            999 V2000
  -30.4780  -15.1828   20.3799 C   0  0  0  0  0  0
  -30.4356  -12.7504   19.5211 C   0  0  0  0  0  0
  -29.5300  -12.5638   18.2795 C   0  0  0  0  0  0
  -28.0739  -12.3053   18.7040 C   0  0  0  0  0  0
  -27.6146  -13.2703   19.8263 C   0  0  2  0  0  0
  -28.6508  -13.4145   20.9611 C   0  0  0  0  0  0
  -25.2400  -13.8245   20.5742 C   0  0  0  0  0  0
  -24.1747  -13.0439   20.9255 C   0  0  0  0  0  0
  -24.6395  -11.6934   20.8762 C   0  0  0  0  0  0
  -23.9089  -10.4294   21.0407 C   0  0  0  0  0  0
  -24.3634   -9.4207   21.9185 C   0  0  0  0  0  0
  -23.6305   -8.2242   22.0752 C   0  0  0  0  0  0
  -22.4286   -8.0283   21.3543 C   0  0  0  0  0  0
  -21.9926   -9.0256   20.4643 C   0  0  0  0  0  0
  -22.7259  -10.2135   20.3055 C   0  0  0  0  0  0
  -21.6858   -6.0739   22.5279 C   0  0  0  0  0  0
  -21.4016   -6.5641   23.8213 C   0  0  0  0  0  0
  -21.3660   -5.6793   24.9175 C   0  0  0  0  0  0
  -21.6045   -4.3056   24.7225 C   0  0  0  0  0  0
  -21.8818   -3.8148   23.4346 C   0  0  0  0  0  0
  -21.9195   -4.6966   22.3403 C   0  0  0  0  0  0
  -22.7764  -13.5193   21.1905 C   0  0  0  0  0  0
  -22.1663   -4.2150   21.0981 F   0  0  0  0  0  0
  -21.5629   -3.4540   25.7738 F   0  0  0  0  0  0
  -29.8941  -13.8927   20.3383 N   0  0  0  0  0  0
  -26.2826  -12.9513   20.3228 N   0  0  0  0  0  0
  -25.9332  -11.6622   20.5727 N   0  0  0  0  0  0
  -22.0427  -12.8169   22.0458 N   0  0  0  0  0  0
  -25.4033  -15.1979   20.4165 N   0  0  0  0  0  0
  -31.6959  -15.1816   20.1583 O   0  0  0  0  0  0
  -21.6646   -6.8882   21.4241 O   0  0  0  0  0  0
  -22.3441  -14.5494   20.6747 O   0  0  0  0  0  0
  -24.6591  -31.8286   23.1758 C   0  0  0  0  0  0
  -25.9295  -32.4615   23.8199 C   0  0  1  0  0  0
  -27.2132  -26.9737   20.1725 C   0  0  0  0  0  0
  -25.5980  -33.8428   24.2105 N   0  0  0  0  0  0
  -23.4710  -30.4439   21.5238 C   0  0  2  0  0  0
  -24.9239  -28.8448   20.1092 C   0  0  0  0  0  0
  -22.7648  -29.4469   22.4792 C   0  0  0  0  0  0
  -18.0321  -28.1409   22.8472 C   0  0  0  0  0  0
  -24.1490  -36.7211   23.2645 C   0  0  0  0  0  0
  -26.0389  -30.6497   21.4010 C   0  0  0  0  0  0
  -26.1072  -29.2456   20.7423 C   0  0  0  0  0  0
  -27.2486  -28.3296   20.7535 C   0  0  0  0  0  0
  -26.0033  -26.7224   19.4852 C   0  0  0  0  0  0
  -24.8949  -27.6020   19.4609 C   0  0  0  0  0  0
  -23.7084  -29.7667   20.1470 C   0  0  0  0  0  0
  -25.4130  -36.2980   24.0303 C   0  0  1  0  0  0
  -20.5943  -28.3750   23.1197 C   0  0  2  0  0  0
  -20.6797  -26.9437   22.5403 C   0  0  0  0  0  0
  -19.5769  -26.6383   21.5215 C   0  0  0  0  0  0
  -18.1953  -26.7943   22.1627 C   0  0  0  0  0  0
  -19.1582  -28.8900   23.2824 C   0  0  0  0  0  0
  -18.9492  -30.1490   23.8858 C   0  0  0  0  0  0
  -17.6487  -30.6601   24.0558 C   0  0  0  0  0  0
  -25.9095  -34.9363   23.5021 C   0  0  0  0  0  0
  -16.5377  -29.9088   23.6343 C   0  0  0  0  0  0
  -16.7304  -28.6508   23.0366 C   0  0  0  0  0  0
  -26.4557  -31.6545   25.0711 C   0  0  0  0  0  0
  -25.3695  -31.3789   26.1376 C   0  0  0  0  0  0
  -27.0443  -30.2913   24.6421 C   0  0  0  0  0  0
  -27.6053  -32.4348   25.7514 C   0  0  0  0  0  0
  -27.5568  -37.1764   24.8467 C   0  0  0  0  0  0
  -21.4321  -29.3047   22.3546 N   0  0  0  0  0  0
  -26.4276  -37.3714   23.9411 N   0  0  0  0  0  0
  -24.7439  -30.9995   22.0872 N   0  0  0  0  0  0
  -23.4217  -28.8032   23.3012 O   0  0  0  0  0  0
  -28.1987  -25.8671   20.2618 O   0  0  0  0  0  0
  -26.5695  -34.8890   22.4610 O   0  0  0  0  0  0
  -23.5672  -32.1237   23.6879 O   0  0  0  0  0  0
  -29.7369  -22.1840   19.6714 C   0  0  0  0  0  0
  -30.1590  -20.7632   19.7119 C   0  0  0  0  0  0
  -27.8495  -21.6002   20.8487 C   0  0  0  0  0  0
  -28.5344  -22.7488   20.2501 C   0  0  0  0  0  0
  -29.4752  -19.6152   20.3029 C   0  0  0  0  0  0
  -28.2638  -20.1677   20.8886 C   0  0  0  0  0  0
  -27.3473  -19.1918   21.6011 C   0  0  0  0  0  0
  -30.1874  -18.0280   20.3303 C   0  0  0  0  0  0
  -27.8085  -24.3096   20.0163 C   0  0  0  0  0  0
  -29.7401  -16.4523   20.4624 N   0  0  0  0  0  0
  -31.4602  -12.9355   19.1961 H   0  0  0  0  0  0
  -30.4773  -11.8344   20.1129 H   0  0  0  0  0  0
  -29.8938  -11.7424   17.6610 H   0  0  0  0  0  0
  -29.5757  -13.4599   17.6588 H   0  0  0  0  0  0
  -28.0130  -11.2758   19.0587 H   0  0  0  0  0  0
  -27.4070  -12.3727   17.8437 H   0  0  0  0  0  0
  -27.5401  -14.2455   19.3443 H   0  0  0  0  0  0
  -28.7978  -12.4724   21.4912 H   0  0  0  0  0  0
  -28.3060  -14.1385   21.7010 H   0  0  0  0  0  0
  -25.2776   -9.5687   22.4764 H   0  0  0  0  0  0
  -24.0016   -7.4634   22.7470 H   0  0  0  0  0  0
  -21.0859   -8.8776   19.8947 H   0  0  0  0  0  0
  -22.3714  -10.9675   19.6166 H   0  0  0  0  0  0
  -21.2006   -7.6149   23.9715 H   0  0  0  0  0  0
  -21.1484   -6.0524   25.9077 H   0  0  0  0  0  0
  -22.0596   -2.7611   23.2845 H   0  0  0  0  0  0
  -22.4066  -11.9838   22.4842 H   0  0  0  0  0  0
  -21.1035  -13.1165   22.2663 H   0  0  0  0  0  0
  -24.6291  -15.8447   20.5210 H   0  0  0  0  0  0
  -26.2388  -15.6369   20.0535 H   0  0  0  0  0  0
  -26.7364  -32.5166   23.0916 H   0  0  0  0  0  0
  -25.0090  -33.9515   25.0230 H   0  0  0  0  0  0
  -22.7821  -31.2749   21.3585 H   0  0  0  0  0  0
  -23.3764  -35.9529   23.3284 H   0  0  0  0  0  0
  -24.3566  -36.8877   22.2064 H   0  0  0  0  0  0
  -23.7238  -37.6391   23.6709 H   0  0  0  0  0  0
  -26.2161  -31.3960   20.6252 H   0  0  0  0  0  0
  -26.9002  -30.7020   22.0552 H   0  0  0  0  0  0
  -28.1415  -28.6307   21.2830 H   0  0  0  0  0  0
  -25.8675  -25.7775   18.9816 H   0  0  0  0  0  0
  -23.9967  -27.2904   18.9456 H   0  0  0  0  0  0
  -23.8610  -30.5385   19.3917 H   0  0  0  0  0  0
  -22.8187  -29.2201   19.8290 H   0  0  0  0  0  0
  -25.1329  -36.1775   25.0794 H   0  0  0  0  0  0
  -21.0037  -28.3352   24.1318 H   0  0  0  0  0  0
  -20.5680  -26.2369   23.3640 H   0  0  0  0  0  0
  -21.6662  -26.7419   22.1206 H   0  0  0  0  0  0
  -19.6926  -25.6283   21.1271 H   0  0  0  0  0  0
  -19.6702  -27.3169   20.6724 H   0  0  0  0  0  0
  -17.4220  -26.6689   21.4032 H   0  0  0  0  0  0
  -18.0348  -26.0097   22.9036 H   0  0  0  0  0  0
  -19.7969  -30.7318   24.2211 H   0  0  0  0  0  0
  -17.5039  -31.6277   24.5166 H   0  0  0  0  0  0
  -15.5375  -30.2979   23.7689 H   0  0  0  0  0  0
  -15.8705  -28.0811   22.7107 H   0  0  0  0  0  0
  -24.5887  -30.7124   25.7694 H   0  0  0  0  0  0
  -24.8873  -32.2990   26.4687 H   0  0  0  0  0  0
  -25.7940  -30.9037   27.0228 H   0  0  0  0  0  0
  -26.3100  -29.6603   24.1400 H   0  0  0  0  0  0
  -27.3952  -29.7265   25.5067 H   0  0  0  0  0  0
  -27.9055  -30.4099   23.9844 H   0  0  0  0  0  0
  -27.2622  -33.3693   26.1966 H   0  0  0  0  0  0
  -28.3932  -32.6837   25.0392 H   0  0  0  0  0  0
  -28.0640  -31.8555   26.5536 H   0  0  0  0  0  0
  -28.2572  -38.0072   24.7515 H   0  0  0  0  0  0
  -28.1078  -36.2601   24.6295 H   0  0  0  0  0  0
  -27.2286  -37.1412   25.8870 H   0  0  0  0  0  0
  -20.9562  -29.8746   21.6691 H   0  0  0  0  0  0
  -26.0123  -38.2772   24.1422 H   0  0  0  0  0  0
  -30.3748  -22.8655   19.1258 H   0  0  0  0  0  0
  -31.1027  -20.5472   19.2300 H   0  0  0  0  0  0
  -26.8927  -21.8294   21.2974 H   0  0  0  0  0  0
  -26.3765  -19.6359   21.8233 H   0  0  0  0  0  0
  -27.7953  -18.8676   22.5407 H   0  0  0  0  0  0
  -27.1740  -18.3096   20.9839 H   0  0  0  0  0  0
  -30.9387  -18.1241   21.1148 H   0  0  0  0  0  0
  -30.7800  -18.0205   19.4149 H   0  0  0  0  0  0
  -26.8494  -24.2061   20.5246 H   0  0  0  0  0  0
  -27.5560  -24.2802   18.9565 H   0  0  0  0  0  0
  -28.7493  -16.3233   20.6002 H   0  0  0  0  0  0
  1 25  1  0  0  0
  1 30  2  0  0  0
  1 80  1  0  0  0
  2  3  1  0  0  0
  2 25  1  0  0  0
  2 81  1  0  0  0
  2 82  1  0  0  0
  3  4  1  0  0  0
  3 83  1  0  0  0
  3 84  1  0  0  0
  4  5  1  0  0  0
  4 85  1  0  0  0
  4 86  1  0  0  0
  5  6  1  0  0  0
  5 26  1  0  0  0
  5 87  1  0  0  0
  6 25  1  0  0  0
  6 88  1  0  0  0
  6 89  1  0  0  0
  7  8  2  0  0  0
  7 26  1  0  0  0
  7 29  1  0  0  0
  8  9  1  0  0  0
  8 22  1  0  0  0
  9 10  1  0  0  0
  9 27  2  0  0  0
 10 11  2  0  0  0
 10 15  1  0  0  0
 11 12  1  0  0  0
 11 90  1  0  0  0
 12 13  2  0  0  0
 12 91  1  0  0  0
 13 14  1  0  0  0
 13 31  1  0  0  0
 14 15  2  0  0  0
 14 92  1  0  0  0
 15 93  1  0  0  0
 16 17  2  0  0  0
 16 21  1  0  0  0
 16 31  1  0  0  0
 17 18  1  0  0  0
 17 94  1  0  0  0
 18 19  2  0  0  0
 18 95  1  0  0  0
 19 20  1  0  0  0
 19 24  1  0  0  0
 20 21  2  0  0  0
 20 96  1  0  0  0
 21 23  1  0  0  0
 22 28  1  0  0  0
 22 32  2  0  0  0
 26 27  1  0  0  0
 28 97  1  0  0  0
 28 98  1  0  0  0
 29 99  1  0  0  0
 29100  1  0  0  0
 33 34  1  0  0  0
 33 66  1  0  0  0
 33 70  2  0  0  0
 34 36  1  0  0  0
 34 59  1  0  0  0
 34101  1  0  0  0
 35 44  2  0  0  0
 35 45  1  0  0  0
 35 68  1  0  0  0
 36 56  1  0  0  0
 36102  1  0  0  0
 37 39  1  0  0  0
 37 47  1  0  0  0
 37 66  1  0  0  0
 37103  1  0  0  0
 38 43  2  0  0  0
 38 46  1  0  0  0
 38 47  1  0  0  0
 39 64  1  0  0  0
 39 67  2  0  0  0
 40 52  1  0  0  0
 40 53  2  0  0  0
 40 58  1  0  0  0
 41104  1  0  0  0
 41105  1  0  0  0
 41106  1  0  0  0
 41 48  1  0  0  0
 42 43  1  0  0  0
 42 66  1  0  0  0
 42107  1  0  0  0
 42108  1  0  0  0
 43 44  1  0  0  0
 44109  1  0  0  0
 45 46  2  0  0  0
 45110  1  0  0  0
 46111  1  0  0  0
 47112  1  0  0  0
 47113  1  0  0  0
 48 56  1  0  0  0
 48 65  1  0  0  0
 48114  1  0  0  0
 49 50  1  0  0  0
 49 53  1  0  0  0
 49 64  1  0  0  0
 49115  1  0  0  0
 50 51  1  0  0  0
 50116  1  0  0  0
 50117  1  0  0  0
 51 52  1  0  0  0
 51118  1  0  0  0
 51119  1  0  0  0
 52120  1  0  0  0
 52121  1  0  0  0
 53 54  1  0  0  0
 54 55  2  0  0  0
 54122  1  0  0  0
 55 57  1  0  0  0
 55123  1  0  0  0
 56 69  2  0  0  0
 57 58  2  0  0  0
 57124  1  0  0  0
 58125  1  0  0  0
 59 60  1  0  0  0
 59 61  1  0  0  0
 59 62  1  0  0  0
 60126  1  0  0  0
 60127  1  0  0  0
 60128  1  0  0  0
 61129  1  0  0  0
 61130  1  0  0  0
 61131  1  0  0  0
 62132  1  0  0  0
 62133  1  0  0  0
 62134  1  0  0  0
 63 65  1  0  0  0
 63135  1  0  0  0
 63136  1  0  0  0
 63137  1  0  0  0
 64138  1  0  0  0
 65139  1  0  0  0
 68 79  1  0  0  0
 71 72  2  0  0  0
 71 74  1  0  0  0
 71140  1  0  0  0
 72 75  1  0  0  0
 72141  1  0  0  0
 73 74  2  0  0  0
 73 76  1  0  0  0
 73142  1  0  0  0
 74 79  1  0  0  0
 75 76  2  0  0  0
 75 78  1  0  0  0
 76 77  1  0  0  0
 77143  1  0  0  0
 77144  1  0  0  0
 77145  1  0  0  0
 78 80  1  0  0  0
 78146  1  0  0  0
 78147  1  0  0  0
 79148  1  0  0  0
 79149  1  0  0  0
 80150  1  0  0  0
M  ISO  4   1 100  68 101  79 101  80 100
M  END
> <chiral flag>
0

> <version>
0

> <s_m_source_file>
/data/baiqing/PycharmProjects/Reinvent-master-3.2/result/LINK_invent/BTK/process_docking_weight1_custom_sum_contain_oxygen_bond_distance_aromatic_linkinvent_7_9_3/rearranged_h_0125.sdf

> <i_m_source_file_index>
18

> <r_mmod_Potential_Energy-OPLS-2005>
1011.51025390625

> <r_mmod_Stretch_Energy-OPLS-2005>
446.362121582031

> <r_mmod_Bend_Energy-OPLS-2005>
421.889862060547

> <r_mmod_Torsional_Energy-OPLS-2005>
214.760284423828

> <r_mmod_Improper_Torsional_Energy-OPLS-2005>
7.14611434936523

> <r_mmod_Van_der_Waal_Energy-OPLS-2005>
130.517288208008

> <r_mmod_Electrostatic_Energy-OPLS-2005>
-383.772766113281

> <r_mmod_Solvation_Energy-OPLS-2005>
-212.566070556641

> <b_mmod_Minimization_Converged-OPLS-2005>
0

> <r_mmod_RMS_Derivative-OPLS-2005>
0.40788397192955

$$$$
18
                    3D
 Structure written by MMmdl.
153161  0  0  1  0            999 V2000
  -30.4777  -15.0955   20.3977 C   0  0  0  0  0  0
  -30.4413  -12.6905   19.5108 C   0  0  0  0  0  0
  -29.5302  -12.5603   18.2671 C   0  0  0  0  0  0
  -28.0693  -12.3127   18.6878 C   0  0  0  0  0  0
  -27.6194  -13.2611   19.8289 C   0  0  2  0  0  0
  -28.6579  -13.3515   20.9661 C   0  0  0  0  0  0
  -25.2415  -13.8231   20.5730 C   0  0  0  0  0  0
  -24.1753  -13.0434   20.9250 C   0  0  0  0  0  0
  -24.6385  -11.6924   20.8751 C   0  0  0  0  0  0
  -23.9077  -10.4289   21.0404 C   0  0  0  0  0  0
  -24.3623   -9.4206   21.9182 C   0  0  0  0  0  0
  -23.6297   -8.2241   22.0749 C   0  0  0  0  0  0
  -22.4280   -8.0283   21.3537 C   0  0  0  0  0  0
  -21.9918   -9.0258   20.4646 C   0  0  0  0  0  0
  -22.7244  -10.2136   20.3055 C   0  0  0  0  0  0
  -21.6854   -6.0735   22.5273 C   0  0  0  0  0  0
  -21.4020   -6.5636   23.8209 C   0  0  0  0  0  0
  -21.3662   -5.6783   24.9173 C   0  0  0  0  0  0
  -21.6047   -4.3049   24.7217 C   0  0  0  0  0  0
  -21.8818   -3.8139   23.4338 C   0  0  0  0  0  0
  -21.9189   -4.6963   22.3394 C   0  0  0  0  0  0
  -22.7770  -13.5201   21.1899 C   0  0  0  0  0  0
  -22.1659   -4.2142   21.0977 F   0  0  0  0  0  0
  -21.5625   -3.4535   25.7733 F   0  0  0  0  0  0
  -29.9121  -13.8094   20.3527 N   0  0  0  0  0  0
  -26.2833  -12.9475   20.3206 N   0  0  0  0  0  0
  -25.9323  -11.6596   20.5712 N   0  0  0  0  0  0
  -22.0420  -12.8198   22.0460 N   0  0  0  0  0  0
  -25.4053  -15.1968   20.4154 N   0  0  0  0  0  0
  -31.6948  -15.1453   20.1840 O   0  0  0  0  0  0
  -21.6641   -6.8882   21.4239 O   0  0  0  0  0  0
  -22.3450  -14.5501   20.6734 O   0  0  0  0  0  0
  -24.6528  -31.8349   23.1804 C   0  0  0  0  0  0
  -25.9264  -32.4645   23.8231 C   0  0  1  0  0  0
  -27.2159  -27.0443   20.1740 C   0  0  0  0  0  0
  -25.5986  -33.8453   24.2145 N   0  0  0  0  0  0
  -23.4611  -30.4506   21.5271 C   0  0  2  0  0  0
  -24.9118  -28.8551   20.1166 C   0  0  0  0  0  0
  -22.7613  -29.4491   22.4824 C   0  0  0  0  0  0
  -18.0313  -28.1393   22.8468 C   0  0  0  0  0  0
  -24.1506  -36.7228   23.2642 C   0  0  0  0  0  0
  -26.0230  -30.6801   21.3918 C   0  0  0  0  0  0
  -26.0931  -29.2806   20.7369 C   0  0  0  0  0  0
  -27.2472  -28.3953   20.7380 C   0  0  0  0  0  0
  -26.0072  -26.7374   19.5151 C   0  0  0  0  0  0
  -24.8871  -27.6016   19.4852 C   0  0  0  0  0  0
  -23.6952  -29.7730   20.1502 C   0  0  0  0  0  0
  -25.4137  -36.2994   24.0309 C   0  0  1  0  0  0
  -20.5931  -28.3728   23.1215 C   0  0  2  0  0  0
  -20.6795  -26.9426   22.5396 C   0  0  0  0  0  0
  -19.5770  -26.6376   21.5205 C   0  0  0  0  0  0
  -18.1953  -26.7930   22.1619 C   0  0  0  0  0  0
  -19.1573  -28.8883   23.2833 C   0  0  0  0  0  0
  -18.9481  -30.1471   23.8861 C   0  0  0  0  0  0
  -17.6476  -30.6585   24.0552 C   0  0  0  0  0  0
  -25.9089  -34.9375   23.5035 C   0  0  0  0  0  0
  -16.5367  -29.9072   23.6333 C   0  0  0  0  0  0
  -16.7297  -28.6496   23.0352 C   0  0  0  0  0  0
  -26.4563  -31.6537   25.0700 C   0  0  0  0  0  0
  -25.3735  -31.3735   26.1387 C   0  0  0  0  0  0
  -27.0433  -30.2921   24.6333 C   0  0  0  0  0  0
  -27.6080  -32.4322   25.7486 C   0  0  0  0  0  0
  -27.5576  -37.1771   24.8461 C   0  0  0  0  0  0
  -21.4295  -29.3043   22.3583 N   0  0  0  0  0  0
  -26.4284  -37.3720   23.9406 N   0  0  0  0  0  0
  -24.7327  -31.0125   22.0874 N   0  0  0  0  0  0
  -23.4216  -28.8050   23.3010 O   0  0  0  0  0  0
  -28.2639  -26.0251   20.1762 O   0  0  0  0  0  0
  -26.5665  -34.8886   22.4606 O   0  0  0  0  0  0
  -23.5624  -32.1262   23.6976 O   0  0  0  0  0  0
  -30.1618  -20.5155   19.5453 C   0  0  0  0  0  0
  -28.1442  -20.2399   20.8157 C   0  0  0  0  0  0
  -30.0154  -18.8810   19.3350 C   0  0  0  0  0  0
  -28.7457  -18.8056   21.3839 C   0  0  0  0  0  0
  -29.1465  -21.4278   20.4248 C   0  0  2  0  0  0
  -29.8516  -17.9132   20.5963 C   0  0  1  0  0  0
  -28.7540  -23.0354   19.8385 C   0  0  0  0  0  0
  -28.0745  -24.4765   20.5330 C   0  0  0  0  0  0
  -29.6685  -16.2974   20.4860 N   0  0  0  0  0  0
  -31.4709  -12.8739   19.1999 H   0  0  0  0  0  0
  -30.4643  -11.7581   20.0766 H   0  0  0  0  0  0
  -29.8826  -11.7559   17.6203 H   0  0  0  0  0  0
  -29.5898  -13.4756   17.6751 H   0  0  0  0  0  0
  -27.9959  -11.2779   19.0236 H   0  0  0  0  0  0
  -27.4037  -12.4034   17.8285 H   0  0  0  0  0  0
  -27.5605  -14.2494   19.3715 H   0  0  0  0  0  0
  -28.7821  -12.3930   21.4723 H   0  0  0  0  0  0
  -28.3301  -14.0630   21.7264 H   0  0  0  0  0  0
  -25.2769   -9.5682   22.4756 H   0  0  0  0  0  0
  -24.0002   -7.4632   22.7470 H   0  0  0  0  0  0
  -21.0843   -8.8784   19.8958 H   0  0  0  0  0  0
  -22.3705  -10.9674   19.6166 H   0  0  0  0  0  0
  -21.2026   -7.6143   23.9715 H   0  0  0  0  0  0
  -21.1487   -6.0515   25.9075 H   0  0  0  0  0  0
  -22.0597   -2.7603   23.2836 H   0  0  0  0  0  0
  -22.4044  -11.9872   22.4869 H   0  0  0  0  0  0
  -21.1039  -13.1224   22.2661 H   0  0  0  0  0  0
  -24.6327  -15.8449   20.5286 H   0  0  0  0  0  0
  -26.2382  -15.6371   20.0487 H   0  0  0  0  0  0
  -26.7322  -32.5221   23.0942 H   0  0  0  0  0  0
  -25.0151  -33.9552   25.0313 H   0  0  0  0  0  0
  -22.7683  -31.2783   21.3641 H   0  0  0  0  0  0
  -23.3777  -35.9547   23.3268 H   0  0  0  0  0  0
  -24.3592  -36.8902   22.2061 H   0  0  0  0  0  0
  -23.7257  -37.6410   23.6709 H   0  0  0  0  0  0
  -26.1899  -31.4305   20.6184 H   0  0  0  0  0  0
  -26.8878  -30.7316   22.0413 H   0  0  0  0  0  0
  -28.1524  -28.7235   21.2298 H   0  0  0  0  0  0
  -25.9133  -25.7789   19.0242 H   0  0  0  0  0  0
  -23.9888  -27.2751   18.9791 H   0  0  0  0  0  0
  -23.8481  -30.5441   19.3938 H   0  0  0  0  0  0
  -22.8076  -29.2241   19.8318 H   0  0  0  0  0  0
  -25.1336  -36.1797   25.0801 H   0  0  0  0  0  0
  -21.0016  -28.3315   24.1338 H   0  0  0  0  0  0
  -20.5685  -26.2338   23.3618 H   0  0  0  0  0  0
  -21.6659  -26.7420   22.1195 H   0  0  0  0  0  0
  -19.6930  -25.6277   21.1257 H   0  0  0  0  0  0
  -19.6710  -27.3162   20.6715 H   0  0  0  0  0  0
  -17.4223  -26.6666   21.4023 H   0  0  0  0  0  0
  -18.0358  -26.0080   22.9025 H   0  0  0  0  0  0
  -19.7954  -30.7300   24.2219 H   0  0  0  0  0  0
  -17.5022  -31.6260   24.5163 H   0  0  0  0  0  0
  -15.5362  -30.2958   23.7680 H   0  0  0  0  0  0
  -15.8697  -28.0799   22.7081 H   0  0  0  0  0  0
  -24.5884  -30.7136   25.7680 H   0  0  0  0  0  0
  -24.8974  -32.2921   26.4817 H   0  0  0  0  0  0
  -25.8005  -30.8867   27.0163 H   0  0  0  0  0  0
  -26.3049  -29.6617   24.1362 H   0  0  0  0  0  0
  -27.4036  -29.7259   25.4931 H   0  0  0  0  0  0
  -27.8973  -30.4132   23.9666 H   0  0  0  0  0  0
  -27.2660  -33.3638   26.2003 H   0  0  0  0  0  0
  -28.3916  -32.6857   25.0335 H   0  0  0  0  0  0
  -28.0722  -31.8493   26.5451 H   0  0  0  0  0  0
  -28.2570  -38.0092   24.7519 H   0  0  0  0  0  0
  -28.1102  -36.2617   24.6279 H   0  0  0  0  0  0
  -27.2289  -37.1397   25.8862 H   0  0  0  0  0  0
  -20.9527  -29.8760   21.6753 H   0  0  0  0  0  0
  -26.0141  -38.2782   24.1414 H   0  0  0  0  0  0
  -30.1817  -20.9478   18.5444 H   0  0  0  0  0  0
  -31.1653  -20.6996   19.9308 H   0  0  0  0  0  0
  -27.4346  -20.6234   21.5499 H   0  0  0  0  0  0
  -27.5309  -20.0181   19.9408 H   0  0  0  0  0  0
  -30.8752  -18.5392   18.7576 H   0  0  0  0  0  0
  -29.1618  -18.7106   18.6764 H   0  0  0  0  0  0
  -27.8897  -18.1643   21.5907 H   0  0  0  0  0  0
  -29.1625  -19.0148   22.3705 H   0  0  0  0  0  0
  -29.6736  -21.6356   21.3574 H   0  0  0  0  0  0
  -30.7843  -18.0165   21.1533 H   0  0  0  0  0  0
  -28.2056  -22.8802   18.9089 H   0  0  0  0  0  0
  -29.7245  -23.3954   19.4965 H   0  0  0  0  0  0
  -28.3777  -24.4385   21.5801 H   0  0  0  0  0  0
  -26.9985  -24.3062   20.5799 H   0  0  0  0  0  0
  -28.6970  -16.0398   20.5707 H   0  0  0  0  0  0
  1 25  1  0  0  0
  1 30  2  0  0  0
  1 79  1  0  0  0
  2  3  1  0  0  0
  2 25  1  0  0  0
  2 80  1  0  0  0
  2 81  1  0  0  0
  3  4  1  0  0  0
  3 82  1  0  0  0
  3 83  1  0  0  0
  4  5  1  0  0  0
  4 84  1  0  0  0
  4 85  1  0  0  0
  5  6  1  0  0  0
  5 26  1  0  0  0
  5 86  1  0  0  0
  6 25  1  0  0  0
  6 87  1  0  0  0
  6 88  1  0  0  0
  7  8  2  0  0  0
  7 26  1  0  0  0
  7 29  1  0  0  0
  8  9  1  0  0  0
  8 22  1  0  0  0
  9 10  1  0  0  0
  9 27  2  0  0  0
 10 11  2  0  0  0
 10 15  1  0  0  0
 11 12  1  0  0  0
 11 89  1  0  0  0
 12 13  2  0  0  0
 12 90  1  0  0  0
 13 14  1  0  0  0
 13 31  1  0  0  0
 14 15  2  0  0  0
 14 91  1  0  0  0
 15 92  1  0  0  0
 16 17  2  0  0  0
 16 21  1  0  0  0
 16 31  1  0  0  0
 17 18  1  0  0  0
 17 93  1  0  0  0
 18 19  2  0  0  0
 18 94  1  0  0  0
 19 20  1  0  0  0
 19 24  1  0  0  0
 20 21  2  0  0  0
 20 95  1  0  0  0
 21 23  1  0  0  0
 22 28  1  0  0  0
 22 32  2  0  0  0
 26 27  1  0  0  0
 28 96  1  0  0  0
 28 97  1  0  0  0
 29 98  1  0  0  0
 29 99  1  0  0  0
 33 34  1  0  0  0
 33 66  1  0  0  0
 33 70  2  0  0  0
 34 36  1  0  0  0
 34 59  1  0  0  0
 34100  1  0  0  0
 35 44  2  0  0  0
 35 45  1  0  0  0
 35 68  1  0  0  0
 36 56  1  0  0  0
 36101  1  0  0  0
 37 39  1  0  0  0
 37 47  1  0  0  0
 37 66  1  0  0  0
 37102  1  0  0  0
 38 43  2  0  0  0
 38 46  1  0  0  0
 38 47  1  0  0  0
 39 64  1  0  0  0
 39 67  2  0  0  0
 40 52  1  0  0  0
 40 53  2  0  0  0
 40 58  1  0  0  0
 41103  1  0  0  0
 41104  1  0  0  0
 41105  1  0  0  0
 41 48  1  0  0  0
 42 43  1  0  0  0
 42 66  1  0  0  0
 42106  1  0  0  0
 42107  1  0  0  0
 43 44  1  0  0  0
 44108  1  0  0  0
 45 46  2  0  0  0
 45109  1  0  0  0
 46110  1  0  0  0
 47111  1  0  0  0
 47112  1  0  0  0
 48 56  1  0  0  0
 48 65  1  0  0  0
 48113  1  0  0  0
 49 50  1  0  0  0
 49 53  1  0  0  0
 49 64  1  0  0  0
 49114  1  0  0  0
 50 51  1  0  0  0
 50115  1  0  0  0
 50116  1  0  0  0
 51 52  1  0  0  0
 51117  1  0  0  0
 51118  1  0  0  0
 52119  1  0  0  0
 52120  1  0  0  0
 53 54  1  0  0  0
 54 55  2  0  0  0
 54121  1  0  0  0
 55 57  1  0  0  0
 55122  1  0  0  0
 56 69  2  0  0  0
 57 58  2  0  0  0
 57123  1  0  0  0
 58124  1  0  0  0
 59 60  1  0  0  0
 59 61  1  0  0  0
 59 62  1  0  0  0
 60125  1  0  0  0
 60126  1  0  0  0
 60127  1  0  0  0
 61128  1  0  0  0
 61129  1  0  0  0
 61130  1  0  0  0
 62131  1  0  0  0
 62132  1  0  0  0
 62133  1  0  0  0
 63 65  1  0  0  0
 63134  1  0  0  0
 63135  1  0  0  0
 63136  1  0  0  0
 64137  1  0  0  0
 65138  1  0  0  0
 68 78  1  0  0  0
 71 73  1  0  0  0
 71 75  1  0  0  0
 71139  1  0  0  0
 71140  1  0  0  0
 72 74  1  0  0  0
 72 75  1  0  0  0
 72141  1  0  0  0
 72142  1  0  0  0
 73 76  1  0  0  0
 73143  1  0  0  0
 73144  1  0  0  0
 74 76  1  0  0  0
 74145  1  0  0  0
 74146  1  0  0  0
 75 77  1  0  0  0
 75147  1  0  0  0
 76 79  1  0  0  0
 76148  1  0  0  0
 77 78  1  0  0  0
 77149  1  0  0  0
 77150  1  0  0  0
 78151  1  0  0  0
 78152  1  0  0  0
 79153  1  0  0  0
M  ISO  4   1 100  68 101  78 101  79 100
M  END
> <chiral flag>
0

> <version>
0

> <s_m_source_file>
/data/baiqing/PycharmProjects/Reinvent-master-3.2/result/LINK_invent/BTK/process_docking_weight1_custom_sum_contain_oxygen_bond_distance_aromatic_linkinvent_7_9_3/rearranged_h_0125.sdf

> <i_m_source_file_index>
19

> <r_mmod_Potential_Energy-OPLS-2005>
880.064208984375

> <r_mmod_Stretch_Energy-OPLS-2005>
374.8720703125

> <r_mmod_Bend_Energy-OPLS-2005>
388.808746337891

> <r_mmod_Torsional_Energy-OPLS-2005>
261.328430175781

> <r_mmod_Improper_Torsional_Energy-OPLS-2005>
4.037184715271

> <r_mmod_Van_der_Waal_Energy-OPLS-2005>
116.097610473633

> <r_mmod_Electrostatic_Energy-OPLS-2005>
-357.652648925781

> <r_mmod_Solvation_Energy-OPLS-2005>
-203.18684387207

> <b_mmod_Minimization_Converged-OPLS-2005>
0

> <r_mmod_RMS_Derivative-OPLS-2005>
1.56538271903992

$$$$
19
                    3D
 Structure written by MMmdl.
160169  0  0  1  0            999 V2000
  -30.6693  -14.6166   20.5251 C   0  0  0  0  0  0
  -30.4307  -12.3893   19.4496 C   0  0  0  0  0  0
  -29.5015  -12.4827   18.2213 C   0  0  0  0  0  0
  -28.0281  -12.3181   18.6457 C   0  0  0  0  0  0
  -27.6480  -13.2159   19.8552 C   0  0  2  0  0  0
  -28.6934  -13.0974   20.9851 C   0  0  0  0  0  0
  -25.2530  -13.8173   20.5705 C   0  0  0  0  0  0
  -24.1798  -13.0429   20.9209 C   0  0  0  0  0  0
  -24.6371  -11.6896   20.8758 C   0  0  0  0  0  0
  -23.9039  -10.4282   21.0432 C   0  0  0  0  0  0
  -24.3594   -9.4192   21.9202 C   0  0  0  0  0  0
  -23.6269   -8.2227   22.0776 C   0  0  0  0  0  0
  -22.4238   -8.0269   21.3567 C   0  0  0  0  0  0
  -21.9866   -9.0249   20.4672 C   0  0  0  0  0  0
  -22.7211  -10.2122   20.3080 C   0  0  0  0  0  0
  -21.6836   -6.0718   22.5285 C   0  0  0  0  0  0
  -21.4026   -6.5640   23.8215 C   0  0  0  0  0  0
  -21.3650   -5.6797   24.9185 C   0  0  0  0  0  0
  -21.6030   -4.3062   24.7235 C   0  0  0  0  0  0
  -21.8814   -3.8143   23.4363 C   0  0  0  0  0  0
  -21.9187   -4.6946   22.3412 C   0  0  0  0  0  0
  -22.7810  -13.5220   21.1836 C   0  0  0  0  0  0
  -22.1651   -4.2123   21.0981 F   0  0  0  0  0  0
  -21.5608   -3.4560   25.7763 F   0  0  0  0  0  0
  -30.0039  -13.4287   20.4071 N   0  0  0  0  0  0
  -26.2950  -12.9355   20.3303 N   0  0  0  0  0  0
  -25.9286  -11.6503   20.5747 N   0  0  0  0  0  0
  -22.0423  -12.8267   22.0407 N   0  0  0  0  0  0
  -25.4255  -15.1899   20.4136 N   0  0  0  0  0  0
  -31.8459  -14.7245   20.1712 O   0  0  0  0  0  0
  -21.6615   -6.8861   21.4249 O   0  0  0  0  0  0
  -22.3507  -14.5494   20.6626 O   0  0  0  0  0  0
  -24.6268  -31.8593   23.2065 C   0  0  0  0  0  0
  -25.9111  -32.4780   23.8382 C   0  0  1  0  0  0
  -27.2144  -27.3159   20.1105 C   0  0  0  0  0  0
  -25.5926  -33.8585   24.2298 N   0  0  0  0  0  0
  -23.4195  -30.4859   21.5484 C   0  0  2  0  0  0
  -24.8641  -28.9490   20.1057 C   0  0  0  0  0  0
  -22.7465  -29.4623   22.4935 C   0  0  0  0  0  0
  -18.0280  -28.1396   22.8483 C   0  0  0  0  0  0
  -24.1475  -36.7306   23.2638 C   0  0  0  0  0  0
  -25.9602  -30.7898   21.3770 C   0  0  0  0  0  0
  -26.0323  -29.4172   20.7193 C   0  0  0  0  0  0
  -27.2079  -28.6091   20.7199 C   0  0  0  0  0  0
  -26.0285  -26.9194   19.4451 C   0  0  0  0  0  0
  -24.8649  -27.7061   19.4594 C   0  0  0  0  0  0
  -23.6327  -29.8288   20.1610 C   0  0  0  0  0  0
  -25.4096  -36.3086   24.0328 C   0  0  1  0  0  0
  -20.5882  -28.3688   23.1283 C   0  0  2  0  0  0
  -20.6767  -26.9408   22.5415 C   0  0  0  0  0  0
  -19.5749  -26.6386   21.5209 C   0  0  0  0  0  0
  -18.1925  -26.7942   22.1614 C   0  0  0  0  0  0
  -19.1534  -28.8859   23.2887 C   0  0  0  0  0  0
  -18.9463  -30.1461   23.8903 C   0  0  0  0  0  0
  -17.6469  -30.6597   24.0569 C   0  0  0  0  0  0
  -25.9035  -34.9453   23.5108 C   0  0  0  0  0  0
  -16.5355  -29.9100   23.6338 C   0  0  0  0  0  0
  -16.7268  -28.6517   23.0351 C   0  0  0  0  0  0
  -26.4501  -31.6596   25.0750 C   0  0  0  0  0  0
  -25.3759  -31.3750   26.1505 C   0  0  0  0  0  0
  -27.0327  -30.3016   24.6187 C   0  0  0  0  0  0
  -27.6066  -32.4326   25.7523 C   0  0  0  0  0  0
  -27.5566  -37.1800   24.8457 C   0  0  0  0  0  0
  -21.4175  -29.3044   22.3682 N   0  0  0  0  0  0
  -26.4270  -37.3780   23.9412 N   0  0  0  0  0  0
  -24.6885  -31.0603   22.1022 N   0  0  0  0  0  0
  -23.4187  -28.8136   23.2999 O   0  0  0  0  0  0
  -28.3232  -26.4541   20.1942 O   0  0  0  0  0  0
  -26.5601  -34.8916   22.4672 O   0  0  0  0  0  0
  -23.5429  -32.1395   23.7386 O   0  0  0  0  0  0
  -28.8830  -20.0887   19.6392 C   0  0  0  0  0  0
  -29.1449  -18.7349   20.0151 C   0  0  0  0  0  0
  -30.7117  -19.5412   21.6414 C   0  0  0  0  0  0
  -29.5686  -21.2126   20.1980 C   0  0  0  0  0  0
  -30.0982  -18.4270   21.0114 C   0  0  0  0  0  0
  -30.4733  -20.8933   21.2510 C   0  0  0  0  0  0
  -29.2494  -22.6213   17.9951 C   0  0  0  0  0  0
  -30.6007  -22.9300   18.5418 C   0  0  0  0  0  0
  -29.4665  -22.6278   19.5146 C   0  0  0  0  0  0
  -31.2504  -21.9815   21.9704 C   0  0  0  0  0  0
  -30.5394  -16.9874   21.4572 C   0  0  0  0  0  0
  -29.0980  -23.8927   20.3991 C   0  0  0  0  0  0
  -28.1698  -25.0389   19.7809 C   0  0  0  0  0  0
  -29.9568  -15.7181   20.9145 N   0  0  0  0  0  0
  -31.4726  -12.5050   19.1466 H   0  0  0  0  0  0
  -30.3661  -11.4043   19.9113 H   0  0  0  0  0  0
  -29.7709  -11.7172   17.4919 H   0  0  0  0  0  0
  -29.6403  -13.4414   17.7186 H   0  0  0  0  0  0
  -27.8842  -11.2699   18.9121 H   0  0  0  0  0  0
  -27.3613  -12.5070   17.8034 H   0  0  0  0  0  0
  -27.6620  -14.2444   19.4938 H   0  0  0  0  0  0
  -28.7044  -12.0832   21.3845 H   0  0  0  0  0  0
  -28.4470  -13.7511   21.8225 H   0  0  0  0  0  0
  -25.2754   -9.5656   22.4762 H   0  0  0  0  0  0
  -23.9991   -7.4603   22.7473 H   0  0  0  0  0  0
  -21.0796   -8.8774   19.8966 H   0  0  0  0  0  0
  -22.3691  -10.9663   19.6177 H   0  0  0  0  0  0
  -21.2053   -7.6153   23.9730 H   0  0  0  0  0  0
  -21.1460   -6.0523   25.9083 H   0  0  0  0  0  0
  -22.0600   -2.7603   23.2877 H   0  0  0  0  0  0
  -22.4030  -12.0010   22.4949 H   0  0  0  0  0  0
  -21.1009  -13.1307   22.2497 H   0  0  0  0  0  0
  -24.6663  -15.8513   20.5384 H   0  0  0  0  0  0
  -26.2728  -15.6324   20.0831 H   0  0  0  0  0  0
  -26.7176  -32.5445   23.1130 H   0  0  0  0  0  0
  -25.0076  -33.9736   25.0444 H   0  0  0  0  0  0
  -22.7147  -31.3088   21.4097 H   0  0  0  0  0  0
  -23.3723  -35.9653   23.3298 H   0  0  0  0  0  0
  -24.3570  -36.8933   22.2055 H   0  0  0  0  0  0
  -23.7239  -37.6512   23.6663 H   0  0  0  0  0  0
  -26.0822  -31.5517   20.6062 H   0  0  0  0  0  0
  -26.8461  -30.8447   21.9985 H   0  0  0  0  0  0
  -28.1000  -28.9578   21.2212 H   0  0  0  0  0  0
  -25.9569  -25.9883   18.9045 H   0  0  0  0  0  0
  -23.9742  -27.3494   18.9605 H   0  0  0  0  0  0
  -23.7510  -30.6095   19.4084 H   0  0  0  0  0  0
  -22.7518  -29.2606   19.8564 H   0  0  0  0  0  0
  -25.1265  -36.1943   25.0817 H   0  0  0  0  0  0
  -20.9972  -28.3268   24.1406 H   0  0  0  0  0  0
  -20.5651  -26.2293   23.3611 H   0  0  0  0  0  0
  -21.6641  -26.7429   22.1221 H   0  0  0  0  0  0
  -19.6906  -25.6291   21.1250 H   0  0  0  0  0  0
  -19.6706  -27.3185   20.6731 H   0  0  0  0  0  0
  -17.4191  -26.6692   21.4020 H   0  0  0  0  0  0
  -18.0326  -26.0089   22.9014 H   0  0  0  0  0  0
  -19.7946  -30.7281   24.2269 H   0  0  0  0  0  0
  -17.5026  -31.6281   24.5167 H   0  0  0  0  0  0
  -15.5357  -30.3008   23.7666 H   0  0  0  0  0  0
  -15.8664  -28.0847   22.7060 H   0  0  0  0  0  0
  -24.5928  -30.7077   25.7886 H   0  0  0  0  0  0
  -24.8957  -32.2922   26.4926 H   0  0  0  0  0  0
  -25.8125  -30.8970   27.0283 H   0  0  0  0  0  0
  -26.2890  -29.6792   24.1194 H   0  0  0  0  0  0
  -27.4001  -29.7250   25.4685 H   0  0  0  0  0  0
  -27.8772  -30.4297   23.9416 H   0  0  0  0  0  0
  -27.2666  -33.3606   26.2132 H   0  0  0  0  0  0
  -28.3873  -32.6917   25.0360 H   0  0  0  0  0  0
  -28.0736  -31.8434   26.5426 H   0  0  0  0  0  0
  -28.2586  -38.0092   24.7485 H   0  0  0  0  0  0
  -28.1054  -36.2623   24.6286 H   0  0  0  0  0  0
  -27.2295  -37.1460   25.8864 H   0  0  0  0  0  0
  -20.9334  -29.8808   21.6938 H   0  0  0  0  0  0
  -26.0151  -38.2846   24.1445 H   0  0  0  0  0  0
  -28.1719  -20.2524   18.8427 H   0  0  0  0  0  0
  -28.6286  -17.9334   19.5031 H   0  0  0  0  0  0
  -31.4215  -19.3500   22.4347 H   0  0  0  0  0  0
  -29.1691  -21.6730   17.4686 H   0  0  0  0  0  0
  -28.7336  -23.4355   17.4979 H   0  0  0  0  0  0
  -30.9371  -23.9608   18.4398 H   0  0  0  0  0  0
  -31.3778  -22.1779   18.4180 H   0  0  0  0  0  0
  -32.1093  -21.5703   22.5018 H   0  0  0  0  0  0
  -30.6104  -22.4730   22.7037 H   0  0  0  0  0  0
  -31.6287  -22.7317   21.2773 H   0  0  0  0  0  0
  -30.3745  -16.9381   22.5346 H   0  0  0  0  0  0
  -31.6252  -16.9582   21.3502 H   0  0  0  0  0  0
  -30.0358  -24.3588   20.7005 H   0  0  0  0  0  0
  -28.6428  -23.5434   21.3261 H   0  0  0  0  0  0
  -27.1600  -24.6852   19.9866 H   0  0  0  0  0  0
  -28.2684  -25.0747   18.6999 H   0  0  0  0  0  0
  -28.9685  -15.5812   21.0602 H   0  0  0  0  0  0
  1 25  1  0  0  0
  1 30  2  0  0  0
  1 84  1  0  0  0
  2  3  1  0  0  0
  2 25  1  0  0  0
  2 85  1  0  0  0
  2 86  1  0  0  0
  3  4  1  0  0  0
  3 87  1  0  0  0
  3 88  1  0  0  0
  4  5  1  0  0  0
  4 89  1  0  0  0
  4 90  1  0  0  0
  5  6  1  0  0  0
  5 26  1  0  0  0
  5 91  1  0  0  0
  6 25  1  0  0  0
  6 92  1  0  0  0
  6 93  1  0  0  0
  7  8  2  0  0  0
  7 26  1  0  0  0
  7 29  1  0  0  0
  8  9  1  0  0  0
  8 22  1  0  0  0
  9 10  1  0  0  0
  9 27  2  0  0  0
 10 11  2  0  0  0
 10 15  1  0  0  0
 11 12  1  0  0  0
 11 94  1  0  0  0
 12 13  2  0  0  0
 12 95  1  0  0  0
 13 14  1  0  0  0
 13 31  1  0  0  0
 14 15  2  0  0  0
 14 96  1  0  0  0
 15 97  1  0  0  0
 16 17  2  0  0  0
 16 21  1  0  0  0
 16 31  1  0  0  0
 17 18  1  0  0  0
 17 98  1  0  0  0
 18 19  2  0  0  0
 18 99  1  0  0  0
 19 20  1  0  0  0
 19 24  1  0  0  0
 20 21  2  0  0  0
 20100  1  0  0  0
 21 23  1  0  0  0
 22 28  1  0  0  0
 22 32  2  0  0  0
 26 27  1  0  0  0
 28101  1  0  0  0
 28102  1  0  0  0
 29103  1  0  0  0
 29104  1  0  0  0
 33 34  1  0  0  0
 33 66  1  0  0  0
 33 70  2  0  0  0
 34 36  1  0  0  0
 34 59  1  0  0  0
 34105  1  0  0  0
 35 44  2  0  0  0
 35 45  1  0  0  0
 35 68  1  0  0  0
 36 56  1  0  0  0
 36106  1  0  0  0
 37 39  1  0  0  0
 37 47  1  0  0  0
 37 66  1  0  0  0
 37107  1  0  0  0
 38 43  2  0  0  0
 38 46  1  0  0  0
 38 47  1  0  0  0
 39 64  1  0  0  0
 39 67  2  0  0  0
 40 52  1  0  0  0
 40 53  2  0  0  0
 40 58  1  0  0  0
 41108  1  0  0  0
 41109  1  0  0  0
 41110  1  0  0  0
 41 48  1  0  0  0
 42 43  1  0  0  0
 42 66  1  0  0  0
 42111  1  0  0  0
 42112  1  0  0  0
 43 44  1  0  0  0
 44113  1  0  0  0
 45 46  2  0  0  0
 45114  1  0  0  0
 46115  1  0  0  0
 47116  1  0  0  0
 47117  1  0  0  0
 48 56  1  0  0  0
 48 65  1  0  0  0
 48118  1  0  0  0
 49 50  1  0  0  0
 49 53  1  0  0  0
 49 64  1  0  0  0
 49119  1  0  0  0
 50 51  1  0  0  0
 50120  1  0  0  0
 50121  1  0  0  0
 51 52  1  0  0  0
 51122  1  0  0  0
 51123  1  0  0  0
 52124  1  0  0  0
 52125  1  0  0  0
 53 54  1  0  0  0
 54 55  2  0  0  0
 54126  1  0  0  0
 55 57  1  0  0  0
 55127  1  0  0  0
 56 69  2  0  0  0
 57 58  2  0  0  0
 57128  1  0  0  0
 58129  1  0  0  0
 59 60  1  0  0  0
 59 61  1  0  0  0
 59 62  1  0  0  0
 60130  1  0  0  0
 60131  1  0  0  0
 60132  1  0  0  0
 61133  1  0  0  0
 61134  1  0  0  0
 61135  1  0  0  0
 62136  1  0  0  0
 62137  1  0  0  0
 62138  1  0  0  0
 63 65  1  0  0  0
 63139  1  0  0  0
 63140  1  0  0  0
 63141  1  0  0  0
 64142  1  0  0  0
 65143  1  0  0  0
 68 83  1  0  0  0
 71 72  2  0  0  0
 71 74  1  0  0  0
 71144  1  0  0  0
 72 75  1  0  0  0
 72145  1  0  0  0
 73 75  2  0  0  0
 73 76  1  0  0  0
 73146  1  0  0  0
 74 76  2  0  0  0
 74 79  1  0  0  0
 75 81  1  0  0  0
 76 80  1  0  0  0
 77 78  1  0  0  0
 77 79  1  0  0  0
 77147  1  0  0  0
 77148  1  0  0  0
 78 79  1  0  0  0
 78149  1  0  0  0
 78150  1  0  0  0
 79 82  1  0  0  0
 80151  1  0  0  0
 80152  1  0  0  0
 80153  1  0  0  0
 81 84  1  0  0  0
 81154  1  0  0  0
 81155  1  0  0  0
 82 83  1  0  0  0
 82156  1  0  0  0
 82157  1  0  0  0
 83158  1  0  0  0
 83159  1  0  0  0
 84160  1  0  0  0
M  ISO  4   1 100  68 101  83 101  84 100
M  END
> <chiral flag>
0

> <version>
0

> <s_m_source_file>
/data/baiqing/PycharmProjects/Reinvent-master-3.2/result/LINK_invent/BTK/process_docking_weight1_custom_sum_contain_oxygen_bond_distance_aromatic_linkinvent_7_9_3/rearranged_h_0125.sdf

> <i_m_source_file_index>
20

> <r_mmod_Potential_Energy-OPLS-2005>
78.7323760986328

> <r_mmod_Stretch_Energy-OPLS-2005>
84.030143737793

> <r_mmod_Bend_Energy-OPLS-2005>
156.227355957031

> <r_mmod_Torsional_Energy-OPLS-2005>
255.889465332031

> <r_mmod_Improper_Torsional_Energy-OPLS-2005>
4.53501462936401

> <r_mmod_Van_der_Waal_Energy-OPLS-2005>
153.63525390625

> <r_mmod_Electrostatic_Energy-OPLS-2005>
-419.365295410156

> <r_mmod_Solvation_Energy-OPLS-2005>
-206.759017944336

> <b_mmod_Minimization_Converged-OPLS-2005>
0

> <r_mmod_RMS_Derivative-OPLS-2005>
2.69994735717773

$$$$
20
                    3D
 Structure written by MMmdl.
159168  0  0  1  0            999 V2000
  -30.5342  -14.9860   20.4138 C   0  0  0  0  0  0
  -30.4396  -12.6111   19.5137 C   0  0  0  0  0  0
  -29.5262  -12.5355   18.2676 C   0  0  0  0  0  0
  -28.0595  -12.3174   18.6822 C   0  0  0  0  0  0
  -27.6293  -13.2533   19.8419 C   0  0  2  0  0  0
  -28.6696  -13.2995   20.9824 C   0  0  0  0  0  0
  -25.2461  -13.8225   20.5731 C   0  0  0  0  0  0
  -24.1782  -13.0445   20.9248 C   0  0  0  0  0  0
  -24.6397  -11.6928   20.8759 C   0  0  0  0  0  0
  -23.9079  -10.4299   21.0402 C   0  0  0  0  0  0
  -24.3623   -9.4212   21.9182 C   0  0  0  0  0  0
  -23.6298   -8.2247   22.0750 C   0  0  0  0  0  0
  -22.4281   -8.0283   21.3538 C   0  0  0  0  0  0
  -21.9918   -9.0257   20.4640 C   0  0  0  0  0  0
  -22.7247  -10.2138   20.3052 C   0  0  0  0  0  0
  -21.6854   -6.0736   22.5276 C   0  0  0  0  0  0
  -21.4012   -6.5635   23.8210 C   0  0  0  0  0  0
  -21.3663   -5.6788   24.9172 C   0  0  0  0  0  0
  -21.6044   -4.3053   24.7220 C   0  0  0  0  0  0
  -21.8819   -3.8144   23.4341 C   0  0  0  0  0  0
  -21.9192   -4.6962   22.3397 C   0  0  0  0  0  0
  -22.7801  -13.5217   21.1888 C   0  0  0  0  0  0
  -22.1662   -4.2148   21.0975 F   0  0  0  0  0  0
  -21.5629   -3.4536   25.7733 F   0  0  0  0  0  0
  -29.9434  -13.7191   20.3845 N   0  0  0  0  0  0
  -26.2887  -12.9464   20.3267 N   0  0  0  0  0  0
  -25.9335  -11.6586   20.5750 N   0  0  0  0  0  0
  -22.0446  -12.8209   22.0438 N   0  0  0  0  0  0
  -25.4124  -15.1953   20.4145 N   0  0  0  0  0  0
  -31.7331  -15.0418   20.1210 O   0  0  0  0  0  0
  -21.6644   -6.8878   21.4237 O   0  0  0  0  0  0
  -22.3484  -14.5513   20.6718 O   0  0  0  0  0  0
  -24.6472  -31.8398   23.1858 C   0  0  0  0  0  0
  -25.9223  -32.4677   23.8260 C   0  0  1  0  0  0
  -27.2148  -27.0969   20.1633 C   0  0  0  0  0  0
  -25.5958  -33.8488   24.2177 N   0  0  0  0  0  0
  -23.4533  -30.4581   21.5315 C   0  0  2  0  0  0
  -24.9050  -28.8811   20.1093 C   0  0  0  0  0  0
  -22.7591  -29.4518   22.4844 C   0  0  0  0  0  0
  -18.0306  -28.1398   22.8471 C   0  0  0  0  0  0
  -24.1493  -36.7249   23.2641 C   0  0  0  0  0  0
  -26.0122  -30.7020   21.3915 C   0  0  0  0  0  0
  -26.0829  -29.3098   20.7345 C   0  0  0  0  0  0
  -27.2389  -28.4344   20.7440 C   0  0  0  0  0  0
  -26.0155  -26.7887   19.4824 C   0  0  0  0  0  0
  -24.8868  -27.6364   19.4651 C   0  0  0  0  0  0
  -23.6832  -29.7871   20.1511 C   0  0  0  0  0  0
  -25.4127  -36.3021   24.0312 C   0  0  1  0  0  0
  -20.5922  -28.3725   23.1230 C   0  0  2  0  0  0
  -20.6789  -26.9425   22.5403 C   0  0  0  0  0  0
  -19.5762  -26.6378   21.5211 C   0  0  0  0  0  0
  -18.1945  -26.7937   22.1620 C   0  0  0  0  0  0
  -19.1562  -28.8881   23.2842 C   0  0  0  0  0  0
  -18.9476  -30.1478   23.8865 C   0  0  0  0  0  0
  -17.6471  -30.6591   24.0557 C   0  0  0  0  0  0
  -25.9076  -34.9397   23.5056 C   0  0  0  0  0  0
  -16.5362  -29.9084   23.6334 C   0  0  0  0  0  0
  -16.7289  -28.6503   23.0353 C   0  0  0  0  0  0
  -26.4528  -31.6559   25.0717 C   0  0  0  0  0  0
  -25.3698  -31.3763   26.1402 C   0  0  0  0  0  0
  -27.0396  -30.2949   24.6330 C   0  0  0  0  0  0
  -27.6059  -32.4323   25.7501 C   0  0  0  0  0  0
  -27.5575  -37.1785   24.8464 C   0  0  0  0  0  0
  -21.4276  -29.3049   22.3604 N   0  0  0  0  0  0
  -26.4286  -37.3740   23.9403 N   0  0  0  0  0  0
  -24.7239  -31.0222   22.0909 N   0  0  0  0  0  0
  -23.4216  -28.8063   23.3004 O   0  0  0  0  0  0
  -28.2437  -26.0706   20.2504 O   0  0  0  0  0  0
  -26.5666  -34.8899   22.4637 O   0  0  0  0  0  0
  -23.5580  -32.1289   23.7053 O   0  0  0  0  0  0
  -28.1559  -20.1464   22.7157 C   0  0  0  0  0  0
  -28.2358  -21.4108   22.1050 C   0  0  0  0  0  0
  -28.7109  -18.9851   22.1350 C   0  0  0  0  0  0
  -28.8257  -21.5930   20.8430 C   0  0  0  0  0  0
  -29.3327  -19.0787   20.8647 C   0  0  0  0  0  0
  -28.8149  -17.6943   24.4322 C   0  0  0  0  0  0
  -29.8729  -17.0868   23.5484 C   0  0  0  0  0  0
  -28.6391  -17.7060   22.9254 C   0  0  0  0  0  0
  -27.0351  -24.4199   21.6392 C   0  0  0  0  0  0
  -28.9931  -23.1703   20.2800 C   0  0  0  0  0  0
  -30.0606  -17.7151   20.2370 C   0  0  0  0  0  0
  -27.9213  -24.5223   20.3845 C   0  0  2  0  0  0
  -29.3709  -20.3909   20.2653 N   0  0  0  0  0  0
  -29.7636  -16.1797   20.5523 N   0  0  0  0  0  0
  -31.4739  -12.7668   19.2035 H   0  0  0  0  0  0
  -30.4346  -11.6646   20.0569 H   0  0  0  0  0  0
  -29.8527  -11.7328   17.6058 H   0  0  0  0  0  0
  -29.6113  -13.4600   17.6941 H   0  0  0  0  0  0
  -27.9582  -11.2764   18.9919 H   0  0  0  0  0  0
  -27.3977  -12.4448   17.8247 H   0  0  0  0  0  0
  -27.5876  -14.2528   19.4080 H   0  0  0  0  0  0
  -28.7638  -12.3279   21.4697 H   0  0  0  0  0  0
  -28.3628  -14.0053   21.7558 H   0  0  0  0  0  0
  -25.2763   -9.5692   22.4764 H   0  0  0  0  0  0
  -24.0006   -7.4634   22.7466 H   0  0  0  0  0  0
  -21.0850   -8.8772   19.8944 H   0  0  0  0  0  0
  -22.3696  -10.9678   19.6166 H   0  0  0  0  0  0
  -21.2003   -7.6143   23.9712 H   0  0  0  0  0  0
  -21.1489   -6.0518   25.9075 H   0  0  0  0  0  0
  -22.0596   -2.7606   23.2839 H   0  0  0  0  0  0
  -22.4074  -11.9882   22.4837 H   0  0  0  0  0  0
  -21.1050  -13.1210   22.2616 H   0  0  0  0  0  0
  -24.6385  -15.8425   20.5192 H   0  0  0  0  0  0
  -26.2412  -15.6321   20.0336 H   0  0  0  0  0  0
  -26.7291  -32.5271   23.0987 H   0  0  0  0  0  0
  -25.0079  -33.9599   25.0306 H   0  0  0  0  0  0
  -22.7573  -31.2845   21.3748 H   0  0  0  0  0  0
  -23.3757  -35.9577   23.3285 H   0  0  0  0  0  0
  -24.3574  -36.8897   22.2057 H   0  0  0  0  0  0
  -23.7242  -37.6439   23.6691 H   0  0  0  0  0  0
  -26.1729  -31.4529   20.6169 H   0  0  0  0  0  0
  -26.8808  -30.7534   22.0360 H   0  0  0  0  0  0
  -28.1308  -28.7549   21.2641 H   0  0  0  0  0  0
  -25.9114  -25.8415   18.9767 H   0  0  0  0  0  0
  -23.9911  -27.3071   18.9558 H   0  0  0  0  0  0
  -23.8231  -30.5607   19.3951 H   0  0  0  0  0  0
  -22.7983  -29.2298   19.8387 H   0  0  0  0  0  0
  -25.1318  -36.1842   25.0804 H   0  0  0  0  0  0
  -21.0012  -28.3307   24.1352 H   0  0  0  0  0  0
  -20.5676  -26.2336   23.3623 H   0  0  0  0  0  0
  -21.6656  -26.7420   22.1206 H   0  0  0  0  0  0
  -19.6921  -25.6280   21.1264 H   0  0  0  0  0  0
  -19.6704  -27.3168   20.6727 H   0  0  0  0  0  0
  -17.4216  -26.6674   21.4024 H   0  0  0  0  0  0
  -18.0344  -26.0090   22.9027 H   0  0  0  0  0  0
  -19.7951  -30.7307   24.2220 H   0  0  0  0  0  0
  -17.5021  -31.6267   24.5168 H   0  0  0  0  0  0
  -15.5363  -30.2974   23.7680 H   0  0  0  0  0  0
  -15.8687  -28.0815   22.7085 H   0  0  0  0  0  0
  -24.5895  -30.7090   25.7719 H   0  0  0  0  0  0
  -24.8867  -32.2951   26.4743 H   0  0  0  0  0  0
  -25.7968  -30.8991   27.0232 H   0  0  0  0  0  0
  -26.3027  -29.6663   24.1322 H   0  0  0  0  0  0
  -27.3975  -29.7261   25.4921 H   0  0  0  0  0  0
  -27.8947  -30.4170   23.9679 H   0  0  0  0  0  0
  -27.2663  -33.3656   26.2009 H   0  0  0  0  0  0
  -28.3912  -32.6827   25.0352 H   0  0  0  0  0  0
  -28.0682  -31.8485   26.5472 H   0  0  0  0  0  0
  -28.2589  -38.0085   24.7511 H   0  0  0  0  0  0
  -28.1077  -36.2618   24.6294 H   0  0  0  0  0  0
  -27.2294  -37.1435   25.8866 H   0  0  0  0  0  0
  -20.9491  -29.8767   21.6782 H   0  0  0  0  0  0
  -26.0146  -38.2804   24.1406 H   0  0  0  0  0  0
  -27.6870  -20.0827   23.6871 H   0  0  0  0  0  0
  -27.8686  -22.2475   22.6735 H   0  0  0  0  0  0
  -29.0863  -18.6156   24.9452 H   0  0  0  0  0  0
  -28.2024  -17.0048   25.0099 H   0  0  0  0  0  0
  -29.9524  -16.0012   23.5582 H   0  0  0  0  0  0
  -30.8163  -17.6213   23.4533 H   0  0  0  0  0  0
  -27.8798  -17.0414   22.5165 H   0  0  0  0  0  0
  -26.4713  -23.4883   21.6409 H   0  0  0  0  0  0
  -26.2861  -25.2067   21.7008 H   0  0  0  0  0  0
  -27.6344  -24.4787   22.5478 H   0  0  0  0  0  0
  -29.2839  -23.0817   19.2338 H   0  0  0  0  0  0
  -29.9043  -23.5056   20.7748 H   0  0  0  0  0  0
  -29.9750  -17.8098   19.1544 H   0  0  0  0  0  0
  -31.1238  -17.8502   20.4380 H   0  0  0  0  0  0
  -27.2493  -24.3173   19.5537 H   0  0  0  0  0  0
  -28.7996  -16.0115   20.7919 H   0  0  0  0  0  0
  1 25  1  0  0  0
  1 30  2  0  0  0
  1 84  1  0  0  0
  2  3  1  0  0  0
  2 25  1  0  0  0
  2 85  1  0  0  0
  2 86  1  0  0  0
  3  4  1  0  0  0
  3 87  1  0  0  0
  3 88  1  0  0  0
  4  5  1  0  0  0
  4 89  1  0  0  0
  4 90  1  0  0  0
  5  6  1  0  0  0
  5 26  1  0  0  0
  5 91  1  0  0  0
  6 25  1  0  0  0
  6 92  1  0  0  0
  6 93  1  0  0  0
  7  8  2  0  0  0
  7 26  1  0  0  0
  7 29  1  0  0  0
  8  9  1  0  0  0
  8 22  1  0  0  0
  9 10  1  0  0  0
  9 27  2  0  0  0
 10 11  2  0  0  0
 10 15  1  0  0  0
 11 12  1  0  0  0
 11 94  1  0  0  0
 12 13  2  0  0  0
 12 95  1  0  0  0
 13 14  1  0  0  0
 13 31  1  0  0  0
 14 15  2  0  0  0
 14 96  1  0  0  0
 15 97  1  0  0  0
 16 17  2  0  0  0
 16 21  1  0  0  0
 16 31  1  0  0  0
 17 18  1  0  0  0
 17 98  1  0  0  0
 18 19  2  0  0  0
 18 99  1  0  0  0
 19 20  1  0  0  0
 19 24  1  0  0  0
 20 21  2  0  0  0
 20100  1  0  0  0
 21 23  1  0  0  0
 22 28  1  0  0  0
 22 32  2  0  0  0
 26 27  1  0  0  0
 28101  1  0  0  0
 28102  1  0  0  0
 29103  1  0  0  0
 29104  1  0  0  0
 33 34  1  0  0  0
 33 66  1  0  0  0
 33 70  2  0  0  0
 34 36  1  0  0  0
 34 59  1  0  0  0
 34105  1  0  0  0
 35 44  2  0  0  0
 35 45  1  0  0  0
 35 68  1  0  0  0
 36 56  1  0  0  0
 36106  1  0  0  0
 37 39  1  0  0  0
 37 47  1  0  0  0
 37 66  1  0  0  0
 37107  1  0  0  0
 38 43  2  0  0  0
 38 46  1  0  0  0
 38 47  1  0  0  0
 39 64  1  0  0  0
 39 67  2  0  0  0
 40 52  1  0  0  0
 40 53  2  0  0  0
 40 58  1  0  0  0
 41108  1  0  0  0
 41109  1  0  0  0
 41110  1  0  0  0
 41 48  1  0  0  0
 42 43  1  0  0  0
 42 66  1  0  0  0
 42111  1  0  0  0
 42112  1  0  0  0
 43 44  1  0  0  0
 44113  1  0  0  0
 45 46  2  0  0  0
 45114  1  0  0  0
 46115  1  0  0  0
 47116  1  0  0  0
 47117  1  0  0  0
 48 56  1  0  0  0
 48 65  1  0  0  0
 48118  1  0  0  0
 49 50  1  0  0  0
 49 53  1  0  0  0
 49 64  1  0  0  0
 49119  1  0  0  0
 50 51  1  0  0  0
 50120  1  0  0  0
 50121  1  0  0  0
 51 52  1  0  0  0
 51122  1  0  0  0
 51123  1  0  0  0
 52124  1  0  0  0
 52125  1  0  0  0
 53 54  1  0  0  0
 54 55  2  0  0  0
 54126  1  0  0  0
 55 57  1  0  0  0
 55127  1  0  0  0
 56 69  2  0  0  0
 57 58  2  0  0  0
 57128  1  0  0  0
 58129  1  0  0  0
 59 60  1  0  0  0
 59 61  1  0  0  0
 59 62  1  0  0  0
 60130  1  0  0  0
 60131  1  0  0  0
 60132  1  0  0  0
 61133  1  0  0  0
 61134  1  0  0  0
 61135  1  0  0  0
 62136  1  0  0  0
 62137  1  0  0  0
 62138  1  0  0  0
 63 65  1  0  0  0
 63139  1  0  0  0
 63140  1  0  0  0
 63141  1  0  0  0
 64142  1  0  0  0
 65143  1  0  0  0
 68 82  1  0  0  0
 71 72  2  0  0  0
 71 73  1  0  0  0
 71144  1  0  0  0
 72 74  1  0  0  0
 72145  1  0  0  0
 73 75  2  0  0  0
 73 78  1  0  0  0
 74 80  1  0  0  0
 74 83  2  0  0  0
 75 81  1  0  0  0
 75 83  1  0  0  0
 76 77  1  0  0  0
 76 78  1  0  0  0
 76146  1  0  0  0
 76147  1  0  0  0
 77 78  1  0  0  0
 77148  1  0  0  0
 77149  1  0  0  0
 78150  1  0  0  0
 79151  1  0  0  0
 79152  1  0  0  0
 79153  1  0  0  0
 79 82  1  0  0  0
 80 82  1  0  0  0
 80154  1  0  0  0
 80155  1  0  0  0
 81 84  1  0  0  0
 81156  1  0  0  0
 81157  1  0  0  0
 82158  1  0  0  0
 84159  1  0  0  0
M  ISO  4   1 100  68 101  82 101  84 100
M  END
> <chiral flag>
0

> <version>
0

> <s_m_source_file>
/data/baiqing/PycharmProjects/Reinvent-master-3.2/result/LINK_invent/BTK/process_docking_weight1_custom_sum_contain_oxygen_bond_distance_aromatic_linkinvent_7_9_3/rearranged_h_0125.sdf

> <i_m_source_file_index>
21

> <r_mmod_Potential_Energy-OPLS-2005>
425.624389648438

> <r_mmod_Stretch_Energy-OPLS-2005>
321.504364013672

> <r_mmod_Bend_Energy-OPLS-2005>
285.492126464844

> <r_mmod_Torsional_Energy-OPLS-2005>
238.331298828125

> <r_mmod_Improper_Torsional_Energy-OPLS-2005>
6.04973411560059

> <r_mmod_Van_der_Waal_Energy-OPLS-2005>
133.416732788086

> <r_mmod_Electrostatic_Energy-OPLS-2005>
-564.141906738281

> <r_mmod_Solvation_Energy-OPLS-2005>
-222.139770507812

> <b_mmod_Minimization_Converged-OPLS-2005>
0

> <r_mmod_RMS_Derivative-OPLS-2005>
0.922445118427277

$$$$
21
                    3D
 Structure written by MMmdl.
164172  0  0  1  0            999 V2000
  -30.7505  -14.4553   20.6529 C   0  0  0  0  0  0
  -30.4227  -12.3292   19.4207 C   0  0  0  0  0  0
  -29.4891  -12.5026   18.2068 C   0  0  0  0  0  0
  -28.0167  -12.3288   18.6222 C   0  0  0  0  0  0
  -27.6553  -13.1826   19.8614 C   0  0  2  0  0  0
  -28.6980  -12.9945   20.9903 C   0  0  0  0  0  0
  -25.2602  -13.8092   20.5649 C   0  0  0  0  0  0
  -24.1842  -13.0402   20.9188 C   0  0  0  0  0  0
  -24.6373  -11.6865   20.8756 C   0  0  0  0  0  0
  -23.9038  -10.4259   21.0434 C   0  0  0  0  0  0
  -24.3594   -9.4169   21.9202 C   0  0  0  0  0  0
  -23.6269   -8.2209   22.0758 C   0  0  0  0  0  0
  -22.4249   -8.0257   21.3542 C   0  0  0  0  0  0
  -21.9889   -9.0237   20.4641 C   0  0  0  0  0  0
  -22.7227  -10.2114   20.3071 C   0  0  0  0  0  0
  -21.6840   -6.0728   22.5277 C   0  0  0  0  0  0
  -21.4005   -6.5637   23.8212 C   0  0  0  0  0  0
  -21.3662   -5.6794   24.9176 C   0  0  0  0  0  0
  -21.6044   -4.3059   24.7224 C   0  0  0  0  0  0
  -21.8821   -3.8156   23.4344 C   0  0  0  0  0  0
  -21.9185   -4.6963   22.3401 C   0  0  0  0  0  0
  -22.7871  -13.5222   21.1860 C   0  0  0  0  0  0
  -22.1655   -4.2153   21.0977 F   0  0  0  0  0  0
  -21.5634   -3.4549   25.7741 F   0  0  0  0  0  0
  -30.0322  -13.3108   20.4506 N   0  0  0  0  0  0
  -26.2989  -12.9204   20.3302 N   0  0  0  0  0  0
  -25.9288  -11.6391   20.5763 N   0  0  0  0  0  0
  -22.0509  -12.8208   22.0407 N   0  0  0  0  0  0
  -25.4354  -15.1811   20.4018 N   0  0  0  0  0  0
  -31.8356  -14.6496   20.0934 O   0  0  0  0  0  0
  -21.6616   -6.8865   21.4235 O   0  0  0  0  0  0
  -22.3566  -14.5544   20.6725 O   0  0  0  0  0  0
  -24.6118  -31.8694   23.2146 C   0  0  0  0  0  0
  -25.9006  -32.4847   23.8429 C   0  0  1  0  0  0
  -27.2376  -27.4512   20.0964 C   0  0  0  0  0  0
  -25.5877  -33.8640   24.2376 N   0  0  0  0  0  0
  -23.3986  -30.4947   21.5527 C   0  0  2  0  0  0
  -24.8443  -28.9657   20.1166 C   0  0  0  0  0  0
  -22.7394  -29.4657   22.5003 C   0  0  0  0  0  0
  -18.0275  -28.1359   22.8504 C   0  0  0  0  0  0
  -24.1468  -36.7320   23.2641 C   0  0  0  0  0  0
  -25.9248  -30.8417   21.3640 C   0  0  0  0  0  0
  -26.0026  -29.4759   20.7149 C   0  0  0  0  0  0
  -27.1975  -28.7246   20.7056 C   0  0  0  0  0  0
  -26.0603  -26.9602   19.4783 C   0  0  0  0  0  0
  -24.8680  -27.7061   19.4980 C   0  0  0  0  0  0
  -23.6045  -29.8286   20.1665 C   0  0  0  0  0  0
  -25.4090  -36.3136   24.0348 C   0  0  1  0  0  0
  -20.5864  -28.3636   23.1329 C   0  0  2  0  0  0
  -20.6770  -26.9368   22.5430 C   0  0  0  0  0  0
  -19.5748  -26.6360   21.5229 C   0  0  0  0  0  0
  -18.1910  -26.7921   22.1598 C   0  0  0  0  0  0
  -19.1525  -28.8821   23.2916 C   0  0  0  0  0  0
  -18.9453  -30.1438   23.8916 C   0  0  0  0  0  0
  -17.6452  -30.6573   24.0570 C   0  0  0  0  0  0
  -25.9012  -34.9486   23.5161 C   0  0  0  0  0  0
  -16.5352  -29.9071   23.6332 C   0  0  0  0  0  0
  -16.7266  -28.6479   23.0362 C   0  0  0  0  0  0
  -26.4455  -31.6625   25.0752 C   0  0  0  0  0  0
  -25.3739  -31.3713   26.1521 C   0  0  0  0  0  0
  -27.0301  -30.3092   24.6091 C   0  0  0  0  0  0
  -27.6054  -32.4355   25.7462 C   0  0  0  0  0  0
  -27.5596  -37.1798   24.8454 C   0  0  0  0  0  0
  -21.4127  -29.3024   22.3747 N   0  0  0  0  0  0
  -26.4286  -37.3823   23.9432 N   0  0  0  0  0  0
  -24.6630  -31.0825   22.1033 N   0  0  0  0  0  0
  -23.4175  -28.8188   23.3022 O   0  0  0  0  0  0
  -28.4290  -26.7521   20.1406 O   0  0  0  0  0  0
  -26.5566  -34.8924   22.4721 O   0  0  0  0  0  0
  -23.5310  -32.1436   23.7546 O   0  0  0  0  0  0
  -29.3206  -24.5377   20.6917 C   0  0  0  0  0  0
  -31.5789  -17.4103   22.2342 C   0  0  0  0  0  0
  -29.4303  -17.6063   20.9742 C   0  0  0  0  0  0
  -31.2111  -15.9445   22.5789 C   0  0  0  0  0  0
  -29.0947  -16.1589   21.3992 C   0  0  0  0  0  0
  -30.3340  -18.2988   22.0161 C   0  0  0  0  0  0
  -28.9459  -25.3092   18.2964 C   0  0  0  0  0  0
  -28.9354  -23.0572   20.8317 C   0  0  0  0  0  0
  -30.0496  -22.1188   21.3509 C   0  0  0  0  0  0
  -29.6058  -20.6352   21.3580 C   0  0  0  0  0  0
  -28.4423  -25.3756   19.7452 C   0  0  2  0  0  0
  -30.3013  -15.3348   21.5914 N   0  0  0  0  0  0
  -30.7167  -19.6944   21.6560 N   0  3  0  0  0  0
  -30.2741  -25.0244   21.3082 O   0  0  0  0  0  0
  -31.4628  -12.4358   19.1095 H   0  0  0  0  0  0
  -30.3418  -11.3187   19.8233 H   0  0  0  0  0  0
  -29.7430  -11.7801   17.4301 H   0  0  0  0  0  0
  -29.6344  -13.4903   17.7684 H   0  0  0  0  0  0
  -27.8494  -11.2729   18.8391 H   0  0  0  0  0  0
  -27.3583  -12.5772   17.7895 H   0  0  0  0  0  0
  -27.6767  -14.2070   19.5042 H   0  0  0  0  0  0
  -28.6874  -11.9615   21.3420 H   0  0  0  0  0  0
  -28.4395  -13.5923   21.8636 H   0  0  0  0  0  0
  -25.2744   -9.5645   22.4766 H   0  0  0  0  0  0
  -23.9989   -7.4599   22.7479 H   0  0  0  0  0  0
  -21.0830   -8.8766   19.8934 H   0  0  0  0  0  0
  -22.3710  -10.9660   19.6180 H   0  0  0  0  0  0
  -21.1991   -7.6146   23.9715 H   0  0  0  0  0  0
  -21.1488   -6.0526   25.9079 H   0  0  0  0  0  0
  -22.0600   -2.7613   23.2855 H   0  0  0  0  0  0
  -22.4119  -11.9841   22.4757 H   0  0  0  0  0  0
  -21.1142  -13.1248   22.2646 H   0  0  0  0  0  0
  -24.6699  -15.8386   20.5031 H   0  0  0  0  0  0
  -26.2811  -15.6110   20.0511 H   0  0  0  0  0  0
  -26.7071  -32.5561   23.1188 H   0  0  0  0  0  0
  -25.0085  -33.9819   25.0566 H   0  0  0  0  0  0
  -22.6863  -31.3099   21.4156 H   0  0  0  0  0  0
  -23.3756  -35.9627   23.3278 H   0  0  0  0  0  0
  -24.3585  -36.8971   22.2072 H   0  0  0  0  0  0
  -23.7170  -37.6491   23.6676 H   0  0  0  0  0  0
  -26.0315  -31.6034   20.5911 H   0  0  0  0  0  0
  -26.8159  -30.9009   21.9762 H   0  0  0  0  0  0
  -28.0915  -29.1157   21.1721 H   0  0  0  0  0  0
  -26.0264  -26.0138   18.9615 H   0  0  0  0  0  0
  -23.9794  -27.3123   19.0254 H   0  0  0  0  0  0
  -23.7052  -30.6038   19.4066 H   0  0  0  0  0  0
  -22.7296  -29.2459   19.8751 H   0  0  0  0  0  0
  -25.1256  -36.2021   25.0835 H   0  0  0  0  0  0
  -20.9979  -28.3214   24.1437 H   0  0  0  0  0  0
  -20.5669  -26.2239   23.3616 H   0  0  0  0  0  0
  -21.6645  -26.7392   22.1230 H   0  0  0  0  0  0
  -19.6900  -25.6270   21.1242 H   0  0  0  0  0  0
  -19.6710  -27.3193   20.6779 H   0  0  0  0  0  0
  -17.4206  -26.6750   21.3957 H   0  0  0  0  0  0
  -18.0241  -26.0022   22.8928 H   0  0  0  0  0  0
  -19.7930  -30.7275   24.2255 H   0  0  0  0  0  0
  -17.4996  -31.6260   24.5160 H   0  0  0  0  0  0
  -15.5348  -30.2976   23.7628 H   0  0  0  0  0  0
  -15.8667  -28.0807   22.7060 H   0  0  0  0  0  0
  -24.5990  -30.6926   25.7933 H   0  0  0  0  0  0
  -24.8797  -32.2820   26.4904 H   0  0  0  0  0  0
  -25.8138  -30.9012   27.0324 H   0  0  0  0  0  0
  -26.2837  -29.6824   24.1193 H   0  0  0  0  0  0
  -27.4172  -29.7355   25.4524 H   0  0  0  0  0  0
  -27.8606  -30.4465   23.9167 H   0  0  0  0  0  0
  -27.2736  -33.3693   26.1999 H   0  0  0  0  0  0
  -28.3850  -32.6853   25.0259 H   0  0  0  0  0  0
  -28.0716  -31.8490   26.5397 H   0  0  0  0  0  0
  -28.2596  -38.0121   24.7584 H   0  0  0  0  0  0
  -28.1116  -36.2670   24.6162 H   0  0  0  0  0  0
  -27.2329  -37.1304   25.8855 H   0  0  0  0  0  0
  -20.9261  -29.8766   21.7007 H   0  0  0  0  0  0
  -26.0182  -38.2888   24.1506 H   0  0  0  0  0  0
  -32.1991  -17.4167   21.3370 H   0  0  0  0  0  0
  -32.1961  -17.8243   23.0330 H   0  0  0  0  0  0
  -28.4955  -18.1548   20.8517 H   0  0  0  0  0  0
  -29.9186  -17.5971   19.9979 H   0  0  0  0  0  0
  -30.7270  -15.9096   23.5559 H   0  0  0  0  0  0
  -32.1227  -15.3535   22.6837 H   0  0  0  0  0  0
  -28.4408  -15.7446   20.6427 H   0  0  0  0  0  0
  -28.5182  -16.1589   22.3263 H   0  0  0  0  0  0
  -29.7853  -18.3535   22.9581 H   0  0  0  0  0  0
  -29.0465  -24.2806   17.9529 H   0  0  0  0  0  0
  -29.9206  -25.7900   18.1984 H   0  0  0  0  0  0
  -28.2598  -25.8204   17.6213 H   0  0  0  0  0  0
  -28.6007  -22.7156   19.8523 H   0  0  0  0  0  0
  -28.0662  -23.0023   21.4877 H   0  0  0  0  0  0
  -30.3416  -22.4197   22.3590 H   0  0  0  0  0  0
  -30.9339  -22.2391   20.7232 H   0  0  0  0  0  0
  -29.1911  -20.3805   20.3808 H   0  0  0  0  0  0
  -28.8038  -20.4997   22.0847 H   0  0  0  0  0  0
  -27.4566  -24.9218   19.8266 H   0  0  0  0  0  0
  -31.3425  -19.6776   20.8672 H   0  0  0  0  0  0
  -31.2322  -20.0711   22.4352 H   0  0  0  0  0  0
  1 25  1  0  0  0
  1 30  2  0  0  0
  1 82  1  0  0  0
  2  3  1  0  0  0
  2 25  1  0  0  0
  2 85  1  0  0  0
  2 86  1  0  0  0
  3  4  1  0  0  0
  3 87  1  0  0  0
  3 88  1  0  0  0
  4  5  1  0  0  0
  4 89  1  0  0  0
  4 90  1  0  0  0
  5  6  1  0  0  0
  5 26  1  0  0  0
  5 91  1  0  0  0
  6 25  1  0  0  0
  6 92  1  0  0  0
  6 93  1  0  0  0
  7  8  2  0  0  0
  7 26  1  0  0  0
  7 29  1  0  0  0
  8  9  1  0  0  0
  8 22  1  0  0  0
  9 10  1  0  0  0
  9 27  2  0  0  0
 10 11  2  0  0  0
 10 15  1  0  0  0
 11 12  1  0  0  0
 11 94  1  0  0  0
 12 13  2  0  0  0
 12 95  1  0  0  0
 13 14  1  0  0  0
 13 31  1  0  0  0
 14 15  2  0  0  0
 14 96  1  0  0  0
 15 97  1  0  0  0
 16 17  2  0  0  0
 16 21  1  0  0  0
 16 31  1  0  0  0
 17 18  1  0  0  0
 17 98  1  0  0  0
 18 19  2  0  0  0
 18 99  1  0  0  0
 19 20  1  0  0  0
 19 24  1  0  0  0
 20 21  2  0  0  0
 20100  1  0  0  0
 21 23  1  0  0  0
 22 28  1  0  0  0
 22 32  2  0  0  0
 26 27  1  0  0  0
 28101  1  0  0  0
 28102  1  0  0  0
 29103  1  0  0  0
 29104  1  0  0  0
 33 34  1  0  0  0
 33 66  1  0  0  0
 33 70  2  0  0  0
 34 36  1  0  0  0
 34 59  1  0  0  0
 34105  1  0  0  0
 35 44  2  0  0  0
 35 45  1  0  0  0
 35 68  1  0  0  0
 36 56  1  0  0  0
 36106  1  0  0  0
 37 39  1  0  0  0
 37 47  1  0  0  0
 37 66  1  0  0  0
 37107  1  0  0  0
 38 43  2  0  0  0
 38 46  1  0  0  0
 38 47  1  0  0  0
 39 64  1  0  0  0
 39 67  2  0  0  0
 40 52  1  0  0  0
 40 53  2  0  0  0
 40 58  1  0  0  0
 41108  1  0  0  0
 41109  1  0  0  0
 41110  1  0  0  0
 41 48  1  0  0  0
 42 43  1  0  0  0
 42 66  1  0  0  0
 42111  1  0  0  0
 42112  1  0  0  0
 43 44  1  0  0  0
 44113  1  0  0  0
 45 46  2  0  0  0
 45114  1  0  0  0
 46115  1  0  0  0
 47116  1  0  0  0
 47117  1  0  0  0
 48 56  1  0  0  0
 48 65  1  0  0  0
 48118  1  0  0  0
 49 50  1  0  0  0
 49 53  1  0  0  0
 49 64  1  0  0  0
 49119  1  0  0  0
 50 51  1  0  0  0
 50120  1  0  0  0
 50121  1  0  0  0
 51 52  1  0  0  0
 51122  1  0  0  0
 51123  1  0  0  0
 52124  1  0  0  0
 52125  1  0  0  0
 53 54  1  0  0  0
 54 55  2  0  0  0
 54126  1  0  0  0
 55 57  1  0  0  0
 55127  1  0  0  0
 56 69  2  0  0  0
 57 58  2  0  0  0
 57128  1  0  0  0
 58129  1  0  0  0
 59 60  1  0  0  0
 59 61  1  0  0  0
 59 62  1  0  0  0
 60130  1  0  0  0
 60131  1  0  0  0
 60132  1  0  0  0
 61133  1  0  0  0
 61134  1  0  0  0
 61135  1  0  0  0
 62136  1  0  0  0
 62137  1  0  0  0
 62138  1  0  0  0
 63 65  1  0  0  0
 63139  1  0  0  0
 63140  1  0  0  0
 63141  1  0  0  0
 64142  1  0  0  0
 65143  1  0  0  0
 68 81  1  0  0  0
 71 78  1  0  0  0
 71 81  1  0  0  0
 71 84  2  0  0  0
 72 74  1  0  0  0
 72 76  1  0  0  0
 72144  1  0  0  0
 72145  1  0  0  0
 73 75  1  0  0  0
 73 76  1  0  0  0
 73146  1  0  0  0
 73147  1  0  0  0
 74 82  1  0  0  0
 74148  1  0  0  0
 74149  1  0  0  0
 75 82  1  0  0  0
 75150  1  0  0  0
 75151  1  0  0  0
 76 83  1  0  0  0
 76152  1  0  0  0
 77153  1  0  0  0
 77154  1  0  0  0
 77155  1  0  0  0
 77 81  1  0  0  0
 78 79  1  0  0  0
 78156  1  0  0  0
 78157  1  0  0  0
 79 80  1  0  0  0
 79158  1  0  0  0
 79159  1  0  0  0
 80 83  1  0  0  0
 80160  1  0  0  0
 80161  1  0  0  0
 81162  1  0  0  0
 83163  1  0  0  0
 83164  1  0  0  0
M  CHG  1  83   1
M  ISO  4   1 100  68 101  81 101  82 100
M  END
> <chiral flag>
0

> <version>
0

> <s_m_source_file>
/data/baiqing/PycharmProjects/Reinvent-master-3.2/result/LINK_invent/BTK/process_docking_weight1_custom_sum_contain_oxygen_bond_distance_aromatic_linkinvent_7_9_3/rearranged_h_0125.sdf

> <i_m_source_file_index>
22

> <r_mmod_Potential_Energy-OPLS-2005>
-8.59285163879395

> <r_mmod_Stretch_Energy-OPLS-2005>
38.3019332885742

> <r_mmod_Bend_Energy-OPLS-2005>
107.323631286621

> <r_mmod_Torsional_Energy-OPLS-2005>
310.205352783203

> <r_mmod_Improper_Torsional_Energy-OPLS-2005>
4.19212007522583

> <r_mmod_Van_der_Waal_Energy-OPLS-2005>
140.811645507812

> <r_mmod_Electrostatic_Energy-OPLS-2005>
-148.134750366211

> <r_mmod_Solvation_Energy-OPLS-2005>
-473.885528564453

> <b_mmod_Minimization_Converged-OPLS-2005>
0

> <r_mmod_RMS_Derivative-OPLS-2005>
2.32106280326843

$$$$
22
                    3D
 Structure written by MMmdl.
153161  0  0  1  0            999 V2000
  -30.7010  -14.6073   20.4625 C   0  0  0  0  0  0
  -30.4134  -12.3656   19.4645 C   0  0  0  0  0  0
  -29.4941  -12.4957   18.2324 C   0  0  0  0  0  0
  -28.0202  -12.3488   18.6475 C   0  0  0  0  0  0
  -27.6497  -13.2334   19.8685 C   0  0  2  0  0  0
  -28.7012  -13.1343   20.9981 C   0  0  0  0  0  0
  -25.2531  -13.8226   20.5709 C   0  0  0  0  0  0
  -24.1826  -13.0446   20.9215 C   0  0  0  0  0  0
  -24.6434  -11.6935   20.8776 C   0  0  0  0  0  0
  -23.9107  -10.4300   21.0419 C   0  0  0  0  0  0
  -24.3651   -9.4210   21.9191 C   0  0  0  0  0  0
  -23.6315   -8.2244   22.0754 C   0  0  0  0  0  0
  -22.4297   -8.0289   21.3544 C   0  0  0  0  0  0
  -21.9944   -9.0270   20.4654 C   0  0  0  0  0  0
  -22.7283  -10.2151   20.3075 C   0  0  0  0  0  0
  -21.6852   -6.0755   22.5284 C   0  0  0  0  0  0
  -21.4017   -6.5659   23.8222 C   0  0  0  0  0  0
  -21.3649   -5.6807   24.9177 C   0  0  0  0  0  0
  -21.6038   -4.3069   24.7214 C   0  0  0  0  0  0
  -21.8824   -3.8169   23.4337 C   0  0  0  0  0  0
  -21.9190   -4.6985   22.3397 C   0  0  0  0  0  0
  -22.7845  -13.5223   21.1829 C   0  0  0  0  0  0
  -22.1665   -4.2180   21.0969 F   0  0  0  0  0  0
  -21.5616   -3.4545   25.7719 F   0  0  0  0  0  0
  -30.0157  -13.4251   20.4129 N   0  0  0  0  0  0
  -26.2991  -12.9443   20.3420 N   0  0  0  0  0  0
  -25.9381  -11.6578   20.5869 N   0  0  0  0  0  0
  -22.0506  -12.8219   22.0415 N   0  0  0  0  0  0
  -25.4201  -15.1940   20.4084 N   0  0  0  0  0  0
  -31.8825  -14.6639   20.1152 O   0  0  0  0  0  0
  -21.6647   -6.8897   21.4248 O   0  0  0  0  0  0
  -22.3512  -14.5488   20.6636 O   0  0  0  0  0  0
  -24.6248  -31.8609   23.2030 C   0  0  0  0  0  0
  -25.9091  -32.4792   23.8356 C   0  0  1  0  0  0
  -27.2392  -27.3474   20.1186 C   0  0  0  0  0  0
  -25.5912  -33.8594   24.2286 N   0  0  0  0  0  0
  -23.4179  -30.4785   21.5479 C   0  0  2  0  0  0
  -24.8665  -28.9255   20.1226 C   0  0  0  0  0  0
  -22.7481  -29.4601   22.4994 C   0  0  0  0  0  0
  -18.0289  -28.1402   22.8481 C   0  0  0  0  0  0
  -24.1480  -36.7296   23.2637 C   0  0  0  0  0  0
  -25.9548  -30.8001   21.3642 C   0  0  0  0  0  0
  -26.0345  -29.4254   20.7145 C   0  0  0  0  0  0
  -27.2275  -28.6489   20.6940 C   0  0  0  0  0  0
  -26.0506  -26.8796   19.5236 C   0  0  0  0  0  0
  -24.8743  -27.6568   19.5175 C   0  0  0  0  0  0
  -23.6324  -29.8034   20.1673 C   0  0  0  0  0  0
  -25.4105  -36.3090   24.0333 C   0  0  1  0  0  0
  -20.5884  -28.3688   23.1309 C   0  0  2  0  0  0
  -20.6771  -26.9413   22.5429 C   0  0  0  0  0  0
  -19.5757  -26.6390   21.5221 C   0  0  0  0  0  0
  -18.1932  -26.7941   22.1626 C   0  0  0  0  0  0
  -19.1537  -28.8872   23.2882 C   0  0  0  0  0  0
  -18.9454  -30.1471   23.8904 C   0  0  0  0  0  0
  -17.6450  -30.6601   24.0559 C   0  0  0  0  0  0
  -25.9044  -34.9460   23.5111 C   0  0  0  0  0  0
  -16.5345  -29.9092   23.6334 C   0  0  0  0  0  0
  -16.7273  -28.6516   23.0348 C   0  0  0  0  0  0
  -26.4484  -31.6596   25.0720 C   0  0  0  0  0  0
  -25.3745  -31.3712   26.1474 C   0  0  0  0  0  0
  -27.0300  -30.3030   24.6117 C   0  0  0  0  0  0
  -27.6050  -32.4319   25.7505 C   0  0  0  0  0  0
  -27.5582  -37.1806   24.8467 C   0  0  0  0  0  0
  -21.4204  -29.3011   22.3698 N   0  0  0  0  0  0
  -26.4287  -37.3780   23.9411 N   0  0  0  0  0  0
  -24.6846  -31.0625   22.0964 N   0  0  0  0  0  0
  -23.4200  -28.8146   23.3077 O   0  0  0  0  0  0
  -28.3718  -26.5352   20.0994 O   0  0  0  0  0  0
  -26.5622  -34.8927   22.4680 O   0  0  0  0  0  0
  -23.5412  -32.1393   23.7374 O   0  0  0  0  0  0
  -29.4652  -20.8102   19.5851 C   0  0  0  0  0  0
  -29.0071  -20.2115   21.8730 C   0  0  0  0  0  0
  -29.8507  -19.4608   19.3383 C   0  0  0  0  0  0
  -29.4020  -18.8651   21.6289 C   0  0  0  0  0  0
  -29.0526  -21.2234   20.8728 C   0  0  0  0  0  0
  -29.8561  -18.4637   20.3536 C   0  0  0  0  0  0
  -28.6789  -22.6955   21.2567 C   0  0  0  0  0  0
  -30.5070  -17.0703   20.0675 C   0  0  0  0  0  0
  -28.7716  -23.9088   20.2451 C   0  0  0  0  0  0
  -28.3061  -25.2922   20.8762 C   0  0  0  0  0  0
  -29.9967  -15.7687   20.6198 N   0  0  0  0  0  0
  -31.4585  -12.4336   19.1574 H   0  0  0  0  0  0
  -30.3051  -11.3869   19.9352 H   0  0  0  0  0  0
  -29.7519  -11.7407   17.4885 H   0  0  0  0  0  0
  -29.6412  -13.4673   17.7567 H   0  0  0  0  0  0
  -27.8509  -11.2978   18.8831 H   0  0  0  0  0  0
  -27.3658  -12.5805   17.8074 H   0  0  0  0  0  0
  -27.6580  -14.2643   19.5131 H   0  0  0  0  0  0
  -28.7060  -12.1385   21.4435 H   0  0  0  0  0  0
  -28.4692  -13.8291   21.8074 H   0  0  0  0  0  0
  -25.2796   -9.5674   22.4780 H   0  0  0  0  0  0
  -24.0013   -7.4633   22.7474 H   0  0  0  0  0  0
  -21.0875   -8.8810   19.8961 H   0  0  0  0  0  0
  -22.3752  -10.9703   19.6205 H   0  0  0  0  0  0
  -21.2040   -7.6178   23.9727 H   0  0  0  0  0  0
  -21.1451   -6.0536   25.9074 H   0  0  0  0  0  0
  -22.0617   -2.7633   23.2820 H   0  0  0  0  0  0
  -22.4143  -11.9893   22.4802 H   0  0  0  0  0  0
  -21.1129  -13.1249   22.2624 H   0  0  0  0  0  0
  -26.2744  -15.6327   20.0892 H   0  0  0  0  0  0
  -24.6538  -15.8506   20.5082 H   0  0  0  0  0  0
  -26.7154  -32.5475   23.1105 H   0  0  0  0  0  0
  -25.0014  -33.9723   25.0395 H   0  0  0  0  0  0
  -22.7103  -31.2976   21.4046 H   0  0  0  0  0  0
  -23.3745  -35.9625   23.3317 H   0  0  0  0  0  0
  -24.3554  -36.8905   22.2045 H   0  0  0  0  0  0
  -23.7232  -37.6503   23.6646 H   0  0  0  0  0  0
  -26.0721  -31.5573   20.5887 H   0  0  0  0  0  0
  -26.8428  -30.8609   21.9820 H   0  0  0  0  0  0
  -28.1355  -29.0323   21.1350 H   0  0  0  0  0  0
  -26.0338  -25.8999   19.0676 H   0  0  0  0  0  0
  -23.9800  -27.2645   19.0523 H   0  0  0  0  0  0
  -23.7501  -30.5769   19.4093 H   0  0  0  0  0  0
  -22.7567  -29.2268   19.8644 H   0  0  0  0  0  0
  -25.1276  -36.1936   25.0824 H   0  0  0  0  0  0
  -20.9965  -28.3256   24.1437 H   0  0  0  0  0  0
  -20.5680  -26.2283   23.3612 H   0  0  0  0  0  0
  -21.6636  -26.7443   22.1216 H   0  0  0  0  0  0
  -19.6901  -25.6295   21.1258 H   0  0  0  0  0  0
  -19.6707  -27.3208   20.6757 H   0  0  0  0  0  0
  -17.4193  -26.6696   21.4033 H   0  0  0  0  0  0
  -18.0336  -26.0082   22.9030 H   0  0  0  0  0  0
  -19.7923  -30.7286   24.2282 H   0  0  0  0  0  0
  -17.5002  -31.6282   24.5159 H   0  0  0  0  0  0
  -15.5346  -30.2991   23.7674 H   0  0  0  0  0  0
  -15.8670  -28.0842   22.7062 H   0  0  0  0  0  0
  -24.5924  -30.7046   25.7818 H   0  0  0  0  0  0
  -24.8948  -32.2873   26.4944 H   0  0  0  0  0  0
  -25.8117  -30.8884   27.0228 H   0  0  0  0  0  0
  -26.2843  -29.6806   24.1164 H   0  0  0  0  0  0
  -27.4031  -29.7255   25.4583 H   0  0  0  0  0  0
  -27.8688  -30.4325   23.9278 H   0  0  0  0  0  0
  -27.2663  -33.3607   26.2114 H   0  0  0  0  0  0
  -28.3862  -32.6908   25.0342 H   0  0  0  0  0  0
  -28.0702  -31.8421   26.5420 H   0  0  0  0  0  0
  -28.2600  -38.0105   24.7513 H   0  0  0  0  0  0
  -28.1087  -36.2641   24.6294 H   0  0  0  0  0  0
  -27.2308  -37.1450   25.8873 H   0  0  0  0  0  0
  -20.9408  -29.8677   21.6848 H   0  0  0  0  0  0
  -26.0180  -38.2852   24.1431 H   0  0  0  0  0  0
  -29.5112  -21.5320   18.7811 H   0  0  0  0  0  0
  -28.6979  -20.4799   22.8738 H   0  0  0  0  0  0
  -30.1919  -19.2001   18.3456 H   0  0  0  0  0  0
  -29.4001  -18.1484   22.4396 H   0  0  0  0  0  0
  -29.3004  -22.9468   22.1175 H   0  0  0  0  0  0
  -27.6603  -22.6697   21.6422 H   0  0  0  0  0  0
  -30.5246  -16.9509   18.9836 H   0  0  0  0  0  0
  -31.5561  -17.1871   20.3518 H   0  0  0  0  0  0
  -28.1623  -23.6860   19.3698 H   0  0  0  0  0  0
  -29.8000  -23.9974   19.8926 H   0  0  0  0  0  0
  -28.9375  -25.4829   21.7456 H   0  0  0  0  0  0
  -27.3047  -25.1583   21.2873 H   0  0  0  0  0  0
  -29.0228  -15.7009   20.8695 H   0  0  0  0  0  0
  1 25  1  0  0  0
  1 30  2  0  0  0
  1 81  1  0  0  0
  2  3  1  0  0  0
  2 25  1  0  0  0
  2 82  1  0  0  0
  2 83  1  0  0  0
  3  4  1  0  0  0
  3 84  1  0  0  0
  3 85  1  0  0  0
  4  5  1  0  0  0
  4 86  1  0  0  0
  4 87  1  0  0  0
  5  6  1  0  0  0
  5 26  1  0  0  0
  5 88  1  0  0  0
  6 25  1  0  0  0
  6 89  1  0  0  0
  6 90  1  0  0  0
  7  8  2  0  0  0
  7 26  1  0  0  0
  7 29  1  0  0  0
  8  9  1  0  0  0
  8 22  1  0  0  0
  9 10  1  0  0  0
  9 27  2  0  0  0
 10 11  2  0  0  0
 10 15  1  0  0  0
 11 12  1  0  0  0
 11 91  1  0  0  0
 12 13  2  0  0  0
 12 92  1  0  0  0
 13 14  1  0  0  0
 13 31  1  0  0  0
 14 15  2  0  0  0
 14 93  1  0  0  0
 15 94  1  0  0  0
 16 17  2  0  0  0
 16 21  1  0  0  0
 16 31  1  0  0  0
 17 18  1  0  0  0
 17 95  1  0  0  0
 18 19  2  0  0  0
 18 96  1  0  0  0
 19 20  1  0  0  0
 19 24  1  0  0  0
 20 21  2  0  0  0
 20 97  1  0  0  0
 21 23  1  0  0  0
 22 28  1  0  0  0
 22 32  2  0  0  0
 26 27  1  0  0  0
 28 98  1  0  0  0
 28 99  1  0  0  0
 29100  1  0  0  0
 29101  1  0  0  0
 33 34  1  0  0  0
 33 66  1  0  0  0
 33 70  2  0  0  0
 34 36  1  0  0  0
 34 59  1  0  0  0
 34102  1  0  0  0
 35 44  2  0  0  0
 35 45  1  0  0  0
 35 68  1  0  0  0
 36 56  1  0  0  0
 36103  1  0  0  0
 37 39  1  0  0  0
 37 47  1  0  0  0
 37 66  1  0  0  0
 37104  1  0  0  0
 38 43  2  0  0  0
 38 46  1  0  0  0
 38 47  1  0  0  0
 39 64  1  0  0  0
 39 67  2  0  0  0
 40 52  1  0  0  0
 40 53  2  0  0  0
 40 58  1  0  0  0
 41105  1  0  0  0
 41106  1  0  0  0
 41107  1  0  0  0
 41 48  1  0  0  0
 42 43  1  0  0  0
 42 66  1  0  0  0
 42108  1  0  0  0
 42109  1  0  0  0
 43 44  1  0  0  0
 44110  1  0  0  0
 45 46  2  0  0  0
 45111  1  0  0  0
 46112  1  0  0  0
 47113  1  0  0  0
 47114  1  0  0  0
 48 56  1  0  0  0
 48 65  1  0  0  0
 48115  1  0  0  0
 49 50  1  0  0  0
 49 53  1  0  0  0
 49 64  1  0  0  0
 49116  1  0  0  0
 50 51  1  0  0  0
 50117  1  0  0  0
 50118  1  0  0  0
 51 52  1  0  0  0
 51119  1  0  0  0
 51120  1  0  0  0
 52121  1  0  0  0
 52122  1  0  0  0
 53 54  1  0  0  0
 54 55  2  0  0  0
 54123  1  0  0  0
 55 57  1  0  0  0
 55124  1  0  0  0
 56 69  2  0  0  0
 57 58  2  0  0  0
 57125  1  0  0  0
 58126  1  0  0  0
 59 60  1  0  0  0
 59 61  1  0  0  0
 59 62  1  0  0  0
 60127  1  0  0  0
 60128  1  0  0  0
 60129  1  0  0  0
 61130  1  0  0  0
 61131  1  0  0  0
 61132  1  0  0  0
 62133  1  0  0  0
 62134  1  0  0  0
 62135  1  0  0  0
 63 65  1  0  0  0
 63136  1  0  0  0
 63137  1  0  0  0
 63138  1  0  0  0
 64139  1  0  0  0
 65140  1  0  0  0
 68 80  1  0  0  0
 71 73  2  0  0  0
 71 75  1  0  0  0
 71141  1  0  0  0
 72 74  1  0  0  0
 72 75  2  0  0  0
 72142  1  0  0  0
 73 76  1  0  0  0
 73143  1  0  0  0
 74 76  2  0  0  0
 74144  1  0  0  0
 75 77  1  0  0  0
 76 78  1  0  0  0
 77 79  1  0  0  0
 77145  1  0  0  0
 77146  1  0  0  0
 78 81  1  0  0  0
 78147  1  0  0  0
 78148  1  0  0  0
 79 80  1  0  0  0
 79149  1  0  0  0
 79150  1  0  0  0
 80151  1  0  0  0
 80152  1  0  0  0
 81153  1  0  0  0
M  ISO  4   1 100  68 101  80 101  81 100
M  END
> <chiral flag>
0

> <version>
0

> <s_m_source_file>
/data/baiqing/PycharmProjects/Reinvent-master-3.2/result/LINK_invent/BTK/process_docking_weight1_custom_sum_contain_oxygen_bond_distance_aromatic_linkinvent_7_9_3/rearranged_h_0125.sdf

> <i_m_source_file_index>
23

> <r_mmod_Potential_Energy-OPLS-2005>
6.73714447021484

> <r_mmod_Stretch_Energy-OPLS-2005>
65.5948028564453

> <r_mmod_Bend_Energy-OPLS-2005>
137.06755065918

> <r_mmod_Torsional_Energy-OPLS-2005>
229.946670532227

> <r_mmod_Improper_Torsional_Energy-OPLS-2005>
8.2436580657959

> <r_mmod_Van_der_Waal_Energy-OPLS-2005>
139.744369506836

> <r_mmod_Electrostatic_Energy-OPLS-2005>
-411.423431396484

> <r_mmod_Solvation_Energy-OPLS-2005>
-203.2041015625

> <b_mmod_Minimization_Converged-OPLS-2005>
0

> <r_mmod_RMS_Derivative-OPLS-2005>
3.4685492515564

$$$$
23
                    3D
 Structure written by MMmdl.
176185  0  0  1  0            999 V2000
  -30.7835  -14.3823   20.6733 C   0  0  0  0  0  0
  -30.4233  -12.2910   19.4263 C   0  0  0  0  0  0
  -29.5026  -12.5137   18.2112 C   0  0  0  0  0  0
  -28.0244  -12.3617   18.6150 C   0  0  0  0  0  0
  -27.6711  -13.2012   19.8734 C   0  0  2  0  0  0
  -28.7079  -12.9689   21.0016 C   0  0  0  0  0  0
  -25.2617  -13.8235   20.5552 C   0  0  0  0  0  0
  -24.1810  -13.0509   20.9102 C   0  0  0  0  0  0
  -24.6368  -11.6983   20.8718 C   0  0  0  0  0  0
  -23.9002  -10.4364   21.0417 C   0  0  0  0  0  0
  -24.3590   -9.4291   21.9182 C   0  0  0  0  0  0
  -23.6286   -8.2308   22.0768 C   0  0  0  0  0  0
  -22.4273   -8.0304   21.3547 C   0  0  0  0  0  0
  -21.9876   -9.0290   20.4660 C   0  0  0  0  0  0
  -22.7190  -10.2183   20.3044 C   0  0  0  0  0  0
  -21.6856   -6.0714   22.5275 C   0  0  0  0  0  0
  -21.4026   -6.5613   23.8215 C   0  0  0  0  0  0
  -21.3651   -5.6776   24.9194 C   0  0  0  0  0  0
  -21.6058   -4.3039   24.7266 C   0  0  0  0  0  0
  -21.8826   -3.8103   23.4393 C   0  0  0  0  0  0
  -21.9191   -4.6918   22.3424 C   0  0  0  0  0  0
  -22.7821  -13.5338   21.1731 C   0  0  0  0  0  0
  -22.1639   -4.2082   21.1007 F   0  0  0  0  0  0
  -21.5639   -3.4530   25.7796 F   0  0  0  0  0  0
  -30.0567  -13.2530   20.4773 N   0  0  0  0  0  0
  -26.3041  -12.9347   20.3310 N   0  0  0  0  0  0
  -25.9307  -11.6527   20.5733 N   0  0  0  0  0  0
  -22.0401  -12.8389   22.0343 N   0  0  0  0  0  0
  -25.4381  -15.1922   20.3894 N   0  0  0  0  0  0
  -31.7900  -14.6628   20.0165 O   0  0  0  0  0  0
  -21.6635   -6.8881   21.4253 O   0  0  0  0  0  0
  -22.3507  -14.5580   20.6492 O   0  0  0  0  0  0
  -24.6133  -31.8648   23.2134 C   0  0  0  0  0  0
  -25.9054  -32.4800   23.8404 C   0  0  1  0  0  0
  -27.2952  -27.4421   20.1773 C   0  0  0  0  0  0
  -25.5954  -33.8611   24.2328 N   0  0  0  0  0  0
  -23.4099  -30.4836   21.5411 C   0  0  2  0  0  0
  -24.8842  -28.9453   20.1247 C   0  0  0  0  0  0
  -22.7406  -29.4639   22.4918 C   0  0  0  0  0  0
  -18.0292  -28.1383   22.8477 C   0  0  0  0  0  0
  -24.1484  -36.7310   23.2623 C   0  0  0  0  0  0
  -25.9281  -30.8479   21.3633 C   0  0  0  0  0  0
  -26.0244  -29.4660   20.7452 C   0  0  0  0  0  0
  -27.2201  -28.7102   20.7992 C   0  0  0  0  0  0
  -26.1384  -26.9423   19.5367 C   0  0  0  0  0  0
  -24.9295  -27.6714   19.5257 C   0  0  0  0  0  0
  -23.6394  -29.8063   20.1578 C   0  0  0  0  0  0
  -25.4105  -36.3102   24.0310 C   0  0  1  0  0  0
  -20.5868  -28.3718   23.1286 C   0  0  2  0  0  0
  -20.6782  -26.9453   22.5406 C   0  0  0  0  0  0
  -19.5793  -26.6422   21.5166 C   0  0  0  0  0  0
  -18.1967  -26.7923   22.1583 C   0  0  0  0  0  0
  -19.1537  -28.8863   23.2850 C   0  0  0  0  0  0
  -18.9469  -30.1459   23.8871 C   0  0  0  0  0  0
  -17.6486  -30.6607   24.0582 C   0  0  0  0  0  0
  -25.9053  -34.9461   23.5100 C   0  0  0  0  0  0
  -16.5367  -29.9115   23.6360 C   0  0  0  0  0  0
  -16.7267  -28.6522   23.0357 C   0  0  0  0  0  0
  -26.4510  -31.6553   25.0678 C   0  0  0  0  0  0
  -25.3837  -31.3694   26.1479 C   0  0  0  0  0  0
  -27.0278  -30.2994   24.5963 C   0  0  0  0  0  0
  -27.6053  -32.4279   25.7478 C   0  0  0  0  0  0
  -27.5554  -37.1812   24.8451 C   0  0  0  0  0  0
  -21.4138  -29.3045   22.3650 N   0  0  0  0  0  0
  -26.4268  -37.3799   23.9414 N   0  0  0  0  0  0
  -24.6662  -31.0779   22.1004 N   0  0  0  0  0  0
  -23.4130  -28.8225   23.3033 O   0  0  0  0  0  0
  -28.4322  -26.6441   20.1569 O   0  0  0  0  0  0
  -26.5561  -34.8881   22.4630 O   0  0  0  0  0  0
  -23.5336  -32.1399   23.7579 O   0  0  0  0  0  0
  -29.3601  -22.9513   23.8034 C   0  0  0  0  0  0
  -31.2510  -23.7507   22.9627 C   0  0  0  0  0  0
  -30.7766  -22.7636   23.7978 C   0  0  0  0  0  0
  -29.0138  -23.9391   22.9194 C   0  0  0  0  0  0
  -30.8979  -20.2718   24.3539 C   0  0  0  0  0  0
  -33.0673  -21.6195   24.2237 C   0  0  0  0  0  0
  -31.6919  -19.1004   24.9804 C   0  0  0  0  0  0
  -33.8216  -20.3874   24.8039 C   0  0  0  0  0  0
  -31.5502  -21.6665   24.5601 C   0  0  1  0  0  0
  -33.1484  -19.0350   24.4761 C   0  0  2  0  0  0
  -27.6569  -24.4298   22.5207 C   0  0  0  0  0  0
  -32.3219  -16.3022   22.8622 C   0  0  0  0  0  0
  -30.3466  -25.4762   21.3197 C   0  0  0  0  0  0
  -31.0275  -16.4684   22.0217 C   0  0  0  0  0  0
  -33.4689  -17.3167   22.6158 C   0  0  0  0  0  0
  -29.3757  -26.7134   21.2533 C   0  0  0  0  0  0
  -30.1881  -24.4597   22.3912 N   0  0  0  0  0  0
  -30.3850  -15.1874   21.6697 N   0  0  0  0  0  0
  -33.2329  -18.7268   23.0224 N   0  3  0  0  0  0
  -31.4744  -12.3608   19.1374 H   0  0  0  0  0  0
  -30.3104  -11.2759   19.8091 H   0  0  0  0  0  0
  -29.7615  -11.8034   17.4263 H   0  0  0  0  0  0
  -29.6692  -13.5099   17.7936 H   0  0  0  0  0  0
  -27.8417  -11.3021   18.8049 H   0  0  0  0  0  0
  -27.3749  -12.6324   17.7819 H   0  0  0  0  0  0
  -27.7285  -14.2482   19.5720 H   0  0  0  0  0  0
  -28.6769  -11.9305   21.3374 H   0  0  0  0  0  0
  -28.4542  -13.5663   21.8778 H   0  0  0  0  0  0
  -25.2774   -9.5768   22.4715 H   0  0  0  0  0  0
  -24.0001   -7.4713   22.7504 H   0  0  0  0  0  0
  -21.0803   -8.8840   19.8982 H   0  0  0  0  0  0
  -22.3686  -10.9718   19.6101 H   0  0  0  0  0  0
  -21.2021   -7.6115   23.9723 H   0  0  0  0  0  0
  -21.1439   -6.0493   25.9093 H   0  0  0  0  0  0
  -22.0598   -2.7543   23.2927 H   0  0  0  0  0  0
  -22.3940  -12.0106   22.4862 H   0  0  0  0  0  0
  -21.1008  -13.1443   22.2451 H   0  0  0  0  0  0
  -24.6870  -15.8670   20.4925 H   0  0  0  0  0  0
  -26.3109  -15.6193   20.0969 H   0  0  0  0  0  0
  -26.7158  -32.5630   23.1222 H   0  0  0  0  0  0
  -25.0222  -33.9737   25.0560 H   0  0  0  0  0  0
  -22.6939  -31.2935   21.3830 H   0  0  0  0  0  0
  -23.3697  -35.9694   23.3310 H   0  0  0  0  0  0
  -24.3597  -36.8917   22.2045 H   0  0  0  0  0  0
  -23.7289  -37.6530   23.6623 H   0  0  0  0  0  0
  -26.0049  -31.6074   20.5825 H   0  0  0  0  0  0
  -26.8262  -30.9433   21.9588 H   0  0  0  0  0  0
  -28.0768  -29.0990   21.3276 H   0  0  0  0  0  0
  -26.1801  -25.9678   19.0732 H   0  0  0  0  0  0
  -24.0506  -27.2440   19.0636 H   0  0  0  0  0  0
  -23.7563  -30.5705   19.3885 H   0  0  0  0  0  0
  -22.7763  -29.2148   19.8518 H   0  0  0  0  0  0
  -25.1310  -36.1919   25.0794 H   0  0  0  0  0  0
  -20.9943  -28.3262   24.1414 H   0  0  0  0  0  0
  -20.5692  -26.2298   23.3572 H   0  0  0  0  0  0
  -21.6666  -26.7520   22.1202 H   0  0  0  0  0  0
  -19.7002  -25.6315   21.1252 H   0  0  0  0  0  0
  -19.6728  -27.3156   20.6613 H   0  0  0  0  0  0
  -17.4215  -26.6607   21.3987 H   0  0  0  0  0  0
  -18.0448  -25.9999   22.8938 H   0  0  0  0  0  0
  -19.7937  -30.7290   24.2167 H   0  0  0  0  0  0
  -17.5054  -31.6285   24.5199 H   0  0  0  0  0  0
  -15.5377  -30.3061   23.7696 H   0  0  0  0  0  0
  -15.8627  -28.0897   22.7094 H   0  0  0  0  0  0
  -24.5953  -30.7070   25.7861 H   0  0  0  0  0  0
  -24.9120  -32.2893   26.4936 H   0  0  0  0  0  0
  -25.8307  -30.8865   27.0184 H   0  0  0  0  0  0
  -26.2744  -29.6786   24.1089 H   0  0  0  0  0  0
  -27.4125  -29.7180   25.4336 H   0  0  0  0  0  0
  -27.8555  -30.4238   23.8987 H   0  0  0  0  0  0
  -27.2591  -33.3557   26.2038 H   0  0  0  0  0  0
  -28.3921  -32.6895   25.0386 H   0  0  0  0  0  0
  -28.0624  -31.8407   26.5447 H   0  0  0  0  0  0
  -28.2578  -38.0092   24.7524 H   0  0  0  0  0  0
  -28.1043  -36.2651   24.6271 H   0  0  0  0  0  0
  -27.2282  -37.1470   25.8844 H   0  0  0  0  0  0
  -20.9295  -29.8672   21.6802 H   0  0  0  0  0  0
  -26.0127  -38.2836   24.1485 H   0  0  0  0  0  0
  -28.6452  -22.3775   24.3752 H   0  0  0  0  0  0
  -32.2743  -23.9959   22.6962 H   0  0  0  0  0  0
  -29.9044  -20.2785   24.8038 H   0  0  0  0  0  0
  -30.7504  -20.0784   23.2891 H   0  0  0  0  0  0
  -33.2010  -21.6514   23.1422 H   0  0  0  0  0  0
  -33.5483  -22.5173   24.6141 H   0  0  0  0  0  0
  -31.1581  -18.1672   24.8042 H   0  0  0  0  0  0
  -31.7046  -19.2228   26.0666 H   0  0  0  0  0  0
  -33.8740  -20.4808   25.8899 H   0  0  0  0  0  0
  -34.8673  -20.3862   24.4882 H   0  0  0  0  0  0
  -31.4548  -21.9102   25.6203 H   0  0  0  0  0  0
  -33.6803  -18.2499   25.0206 H   0  0  0  0  0  0
  -27.6448  -24.7576   21.4845 H   0  0  0  0  0  0
  -27.3540  -25.2655   23.1547 H   0  0  0  0  0  0
  -26.8987  -23.6489   22.5698 H   0  0  0  0  0  0
  -32.7534  -15.3314   22.6214 H   0  0  0  0  0  0
  -32.0930  -16.2520   23.9234 H   0  0  0  0  0  0
  -31.3634  -25.8570   21.4186 H   0  0  0  0  0  0
  -30.3356  -24.9456   20.3645 H   0  0  0  0  0  0
  -30.3116  -17.0635   22.5860 H   0  0  0  0  0  0
  -31.2351  -17.0349   21.1117 H   0  0  0  0  0  0
  -33.7118  -17.3076   21.5508 H   0  0  0  0  0  0
  -34.3654  -16.9517   23.1174 H   0  0  0  0  0  0
  -29.9902  -27.6032   21.1013 H   0  0  0  0  0  0
  -28.8655  -26.8633   22.2052 H   0  0  0  0  0  0
  -29.5639  -14.8897   22.1790 H   0  0  0  0  0  0
  -34.0360  -19.2429   22.6967 H   0  0  0  0  0  0
  -32.4417  -19.1023   22.5283 H   0  0  0  0  0  0
  1 25  1  0  0  0
  1 30  2  0  0  0
  1 88  1  0  0  0
  2  3  1  0  0  0
  2 25  1  0  0  0
  2 90  1  0  0  0
  2 91  1  0  0  0
  3  4  1  0  0  0
  3 92  1  0  0  0
  3 93  1  0  0  0
  4  5  1  0  0  0
  4 94  1  0  0  0
  4 95  1  0  0  0
  5  6  1  0  0  0
  5 26  1  0  0  0
  5 96  1  0  0  0
  6 25  1  0  0  0
  6 97  1  0  0  0
  6 98  1  0  0  0
  7  8  2  0  0  0
  7 26  1  0  0  0
  7 29  1  0  0  0
  8  9  1  0  0  0
  8 22  1  0  0  0
  9 10  1  0  0  0
  9 27  2  0  0  0
 10 11  2  0  0  0
 10 15  1  0  0  0
 11 12  1  0  0  0
 11 99  1  0  0  0
 12 13  2  0  0  0
 12100  1  0  0  0
 13 14  1  0  0  0
 13 31  1  0  0  0
 14 15  2  0  0  0
 14101  1  0  0  0
 15102  1  0  0  0
 16 17  2  0  0  0
 16 21  1  0  0  0
 16 31  1  0  0  0
 17 18  1  0  0  0
 17103  1  0  0  0
 18 19  2  0  0  0
 18104  1  0  0  0
 19 20  1  0  0  0
 19 24  1  0  0  0
 20 21  2  0  0  0
 20105  1  0  0  0
 21 23  1  0  0  0
 22 28  1  0  0  0
 22 32  2  0  0  0
 26 27  1  0  0  0
 28106  1  0  0  0
 28107  1  0  0  0
 29108  1  0  0  0
 29109  1  0  0  0
 33 34  1  0  0  0
 33 66  1  0  0  0
 33 70  2  0  0  0
 34 36  1  0  0  0
 34 59  1  0  0  0
 34110  1  0  0  0
 35 44  2  0  0  0
 35 45  1  0  0  0
 35 68  1  0  0  0
 36 56  1  0  0  0
 36111  1  0  0  0
 37 39  1  0  0  0
 37 47  1  0  0  0
 37 66  1  0  0  0
 37112  1  0  0  0
 38 43  2  0  0  0
 38 46  1  0  0  0
 38 47  1  0  0  0
 39 64  1  0  0  0
 39 67  2  0  0  0
 40 52  1  0  0  0
 40 53  2  0  0  0
 40 58  1  0  0  0
 41113  1  0  0  0
 41114  1  0  0  0
 41115  1  0  0  0
 41 48  1  0  0  0
 42 43  1  0  0  0
 42 66  1  0  0  0
 42116  1  0  0  0
 42117  1  0  0  0
 43 44  1  0  0  0
 44118  1  0  0  0
 45 46  2  0  0  0
 45119  1  0  0  0
 46120  1  0  0  0
 47121  1  0  0  0
 47122  1  0  0  0
 48 56  1  0  0  0
 48 65  1  0  0  0
 48123  1  0  0  0
 49 50  1  0  0  0
 49 53  1  0  0  0
 49 64  1  0  0  0
 49124  1  0  0  0
 50 51  1  0  0  0
 50125  1  0  0  0
 50126  1  0  0  0
 51 52  1  0  0  0
 51127  1  0  0  0
 51128  1  0  0  0
 52129  1  0  0  0
 52130  1  0  0  0
 53 54  1  0  0  0
 54 55  2  0  0  0
 54131  1  0  0  0
 55 57  1  0  0  0
 55132  1  0  0  0
 56 69  2  0  0  0
 57 58  2  0  0  0
 57133  1  0  0  0
 58134  1  0  0  0
 59 60  1  0  0  0
 59 61  1  0  0  0
 59 62  1  0  0  0
 60135  1  0  0  0
 60136  1  0  0  0
 60137  1  0  0  0
 61138  1  0  0  0
 61139  1  0  0  0
 61140  1  0  0  0
 62141  1  0  0  0
 62142  1  0  0  0
 62143  1  0  0  0
 63 65  1  0  0  0
 63144  1  0  0  0
 63145  1  0  0  0
 63146  1  0  0  0
 64147  1  0  0  0
 65148  1  0  0  0
 68 86  1  0  0  0
 71 73  1  0  0  0
 71 74  2  0  0  0
 71149  1  0  0  0
 72 73  2  0  0  0
 72 87  1  0  0  0
 72150  1  0  0  0
 73 79  1  0  0  0
 74 81  1  0  0  0
 74 87  1  0  0  0
 75 77  1  0  0  0
 75 79  1  0  0  0
 75151  1  0  0  0
 75152  1  0  0  0
 76 78  1  0  0  0
 76 79  1  0  0  0
 76153  1  0  0  0
 76154  1  0  0  0
 77 80  1  0  0  0
 77155  1  0  0  0
 77156  1  0  0  0
 78 80  1  0  0  0
 78157  1  0  0  0
 78158  1  0  0  0
 79159  1  0  0  0
 80 89  1  0  0  0
 80160  1  0  0  0
 81161  1  0  0  0
 81162  1  0  0  0
 81163  1  0  0  0
 82 84  1  0  0  0
 82 85  1  0  0  0
 82164  1  0  0  0
 82165  1  0  0  0
 83 86  1  0  0  0
 83 87  1  0  0  0
 83166  1  0  0  0
 83167  1  0  0  0
 84 88  1  0  0  0
 84168  1  0  0  0
 84169  1  0  0  0
 85 89  1  0  0  0
 85170  1  0  0  0
 85171  1  0  0  0
 86172  1  0  0  0
 86173  1  0  0  0
 88174  1  0  0  0
 89175  1  0  0  0
 89176  1  0  0  0
M  CHG  1  89   1
M  ISO  4   1 100  68 101  86 101  88 100
M  END
> <chiral flag>
0

> <version>
0

> <s_m_source_file>
/data/baiqing/PycharmProjects/Reinvent-master-3.2/result/LINK_invent/BTK/process_docking_weight1_custom_sum_contain_oxygen_bond_distance_aromatic_linkinvent_7_9_3/rearranged_h_0125.sdf

> <i_m_source_file_index>
24

> <r_mmod_Potential_Energy-OPLS-2005>
-150.928161621094

> <r_mmod_Stretch_Energy-OPLS-2005>
47.8753890991211

> <r_mmod_Bend_Energy-OPLS-2005>
132.492004394531

> <r_mmod_Torsional_Energy-OPLS-2005>
275.789642333984

> <r_mmod_Improper_Torsional_Energy-OPLS-2005>
2.32034230232239

> <r_mmod_Van_der_Waal_Energy-OPLS-2005>
125.492111206055

> <r_mmod_Electrostatic_Energy-OPLS-2005>
-301.210174560547

> <r_mmod_Solvation_Energy-OPLS-2005>
-446.309722900391

> <b_mmod_Minimization_Converged-OPLS-2005>
0

> <r_mmod_RMS_Derivative-OPLS-2005>
8.07382488250732

$$$$
24
                    3D
 Structure written by MMmdl.
160168  0  0  1  0            999 V2000
  -30.6531  -14.5561   20.4628 C   0  0  0  0  0  0
  -30.4243  -12.3287   19.4500 C   0  0  0  0  0  0
  -29.5014  -12.5005   18.2210 C   0  0  0  0  0  0
  -28.0198  -12.3672   18.6244 C   0  0  0  0  0  0
  -27.6572  -13.2165   19.8747 C   0  0  2  0  0  0
  -28.7039  -13.0456   21.0034 C   0  0  0  0  0  0
  -25.2551  -13.8180   20.5690 C   0  0  0  0  0  0
  -24.1818  -13.0446   20.9200 C   0  0  0  0  0  0
  -24.6399  -11.6921   20.8765 C   0  0  0  0  0  0
  -23.9084  -10.4303   21.0434 C   0  0  0  0  0  0
  -24.3622   -9.4207   21.9198 C   0  0  0  0  0  0
  -23.6293   -8.2248   22.0750 C   0  0  0  0  0  0
  -22.4283   -8.0291   21.3531 C   0  0  0  0  0  0
  -21.9930   -9.0287   20.4654 C   0  0  0  0  0  0
  -22.7266  -10.2156   20.3075 C   0  0  0  0  0  0
  -21.6859   -6.0756   22.5269 C   0  0  0  0  0  0
  -21.4048   -6.5648   23.8214 C   0  0  0  0  0  0
  -21.3657   -5.6786   24.9165 C   0  0  0  0  0  0
  -21.6049   -4.3049   24.7219 C   0  0  0  0  0  0
  -21.8814   -3.8151   23.4332 C   0  0  0  0  0  0
  -21.9192   -4.6980   22.3394 C   0  0  0  0  0  0
  -22.7830  -13.5253   21.1815 C   0  0  0  0  0  0
  -22.1650   -4.2160   21.0974 F   0  0  0  0  0  0
  -21.5599   -3.4524   25.7731 F   0  0  0  0  0  0
  -30.0309  -13.3441   20.4400 N   0  0  0  0  0  0
  -26.3007  -12.9373   20.3381 N   0  0  0  0  0  0
  -25.9336  -11.6533   20.5806 N   0  0  0  0  0  0
  -22.0440  -12.8307   22.0388 N   0  0  0  0  0  0
  -25.4239  -15.1890   20.4053 N   0  0  0  0  0  0
  -31.8146  -14.7075   20.0755 O   0  0  0  0  0  0
  -21.6639   -6.8889   21.4227 O   0  0  0  0  0  0
  -22.3536  -14.5540   20.6598 O   0  0  0  0  0  0
  -24.6147  -31.8654   23.2054 C   0  0  0  0  0  0
  -25.9002  -32.4823   23.8395 C   0  0  1  0  0  0
  -27.2407  -27.4137   20.1165 C   0  0  0  0  0  0
  -25.5837  -33.8618   24.2307 N   0  0  0  0  0  0
  -23.4063  -30.4868   21.5475 C   0  0  2  0  0  0
  -24.8587  -28.9455   20.1199 C   0  0  0  0  0  0
  -22.7441  -29.4632   22.4994 C   0  0  0  0  0  0
  -18.0272  -28.1401   22.8501 C   0  0  0  0  0  0
  -24.1478  -36.7345   23.2645 C   0  0  0  0  0  0
  -25.9363  -30.8287   21.3586 C   0  0  0  0  0  0
  -26.0173  -29.4584   20.7143 C   0  0  0  0  0  0
  -27.2160  -28.7025   20.7023 C   0  0  0  0  0  0
  -26.0660  -26.9149   19.5207 C   0  0  0  0  0  0
  -24.8790  -27.6772   19.5129 C   0  0  0  0  0  0
  -23.6196  -29.8131   20.1647 C   0  0  0  0  0  0
  -25.4091  -36.3116   24.0339 C   0  0  1  0  0  0
  -20.5868  -28.3684   23.1338 C   0  0  2  0  0  0
  -20.6745  -26.9421   22.5436 C   0  0  0  0  0  0
  -19.5706  -26.6404   21.5240 C   0  0  0  0  0  0
  -18.1901  -26.7950   22.1647 C   0  0  0  0  0  0
  -19.1525  -28.8858   23.2915 C   0  0  0  0  0  0
  -18.9447  -30.1466   23.8922 C   0  0  0  0  0  0
  -17.6450  -30.6605   24.0597 C   0  0  0  0  0  0
  -25.9019  -34.9474   23.5131 C   0  0  0  0  0  0
  -16.5342  -29.9110   23.6331 C   0  0  0  0  0  0
  -16.7265  -28.6526   23.0352 C   0  0  0  0  0  0
  -26.4433  -31.6601   25.0719 C   0  0  0  0  0  0
  -25.3687  -31.3717   26.1465 C   0  0  0  0  0  0
  -27.0257  -30.3038   24.6079 C   0  0  0  0  0  0
  -27.6018  -32.4335   25.7460 C   0  0  0  0  0  0
  -27.5583  -37.1831   24.8459 C   0  0  0  0  0  0
  -21.4155  -29.3034   22.3738 N   0  0  0  0  0  0
  -26.4277  -37.3795   23.9428 N   0  0  0  0  0  0
  -24.6711  -31.0757   22.0964 N   0  0  0  0  0  0
  -23.4207  -28.8166   23.3033 O   0  0  0  0  0  0
  -28.3999  -26.6601   20.0857 O   0  0  0  0  0  0
  -26.5627  -34.8912   22.4730 O   0  0  0  0  0  0
  -23.5326  -32.1404   23.7432 O   0  0  0  0  0  0
  -31.0235  -19.4487   22.6240 C   0  0  0  0  0  0
  -30.4118  -20.6096   22.1222 C   0  0  0  0  0  0
  -30.8915  -18.2231   21.9297 C   0  0  0  0  0  0
  -30.0816  -18.2037   20.7679 C   0  0  0  0  0  0
  -29.6935  -20.5412   20.9155 C   0  0  0  0  0  0
  -28.6528  -16.9805   19.0053 C   0  0  0  0  0  0
  -32.8224  -17.2165   22.9230 C   0  0  0  0  0  0
  -28.6720  -24.1340   20.0615 C   0  0  0  0  0  0
  -28.4043  -25.4442   20.8680 C   0  0  0  0  0  0
  -29.1520  -22.9309   20.9376 C   0  0  0  0  0  0
  -29.9050  -16.9143   19.9119 C   0  0  2  0  0  0
  -29.5390  -19.3561   20.2664 N   0  0  0  0  0  0
  -29.8275  -15.6152   20.6354 N   0  0  0  0  0  0
  -31.5366  -17.0742   22.3321 O   0  0  0  0  0  0
  -29.1264  -21.6446   20.2757 O   0  0  0  0  0  0
  -31.4721  -12.4149   19.1543 H   0  0  0  0  0  0
  -30.3140  -11.3327   19.8800 H   0  0  0  0  0  0
  -29.7501  -11.7611   17.4572 H   0  0  0  0  0  0
  -29.6653  -13.4782   17.7624 H   0  0  0  0  0  0
  -27.8219  -11.3135   18.8201 H   0  0  0  0  0  0
  -27.3781  -12.6423   17.7863 H   0  0  0  0  0  0
  -27.6793  -14.2556   19.5554 H   0  0  0  0  0  0
  -28.6879  -12.0262   21.3892 H   0  0  0  0  0  0
  -28.4729  -13.6916   21.8528 H   0  0  0  0  0  0
  -25.2764   -9.5671   22.4779 H   0  0  0  0  0  0
  -23.9985   -7.4655   22.7488 H   0  0  0  0  0  0
  -21.0851   -8.8848   19.8988 H   0  0  0  0  0  0
  -22.3742  -10.9704   19.6183 H   0  0  0  0  0  0
  -21.2079   -7.6155   23.9717 H   0  0  0  0  0  0
  -21.1463   -6.0514   25.9057 H   0  0  0  0  0  0
  -22.0598   -2.7616   23.2822 H   0  0  0  0  0  0
  -22.4050  -12.0030   22.4889 H   0  0  0  0  0  0
  -21.1039  -13.1347   22.2509 H   0  0  0  0  0  0
  -24.6520  -15.8409   20.5007 H   0  0  0  0  0  0
  -26.2630  -15.6223   20.0458 H   0  0  0  0  0  0
  -26.7094  -32.5550   23.1191 H   0  0  0  0  0  0
  -24.9880  -33.9764   25.0374 H   0  0  0  0  0  0
  -22.6914  -31.2994   21.4033 H   0  0  0  0  0  0
  -23.3696  -35.9726   23.3312 H   0  0  0  0  0  0
  -24.3562  -36.8959   22.2057 H   0  0  0  0  0  0
  -23.7259  -37.6562   23.6670 H   0  0  0  0  0  0
  -26.0388  -31.5873   20.5808 H   0  0  0  0  0  0
  -26.8264  -30.8966   21.9695 H   0  0  0  0  0  0
  -28.1162  -29.0976   21.1522 H   0  0  0  0  0  0
  -26.0717  -25.9411   19.0545 H   0  0  0  0  0  0
  -23.9912  -27.2769   19.0432 H   0  0  0  0  0  0
  -23.7312  -30.5852   19.4018 H   0  0  0  0  0  0
  -22.7434  -29.2342   19.8735 H   0  0  0  0  0  0
  -25.1260  -36.1994   25.0829 H   0  0  0  0  0  0
  -20.9982  -28.3270   24.1445 H   0  0  0  0  0  0
  -20.5656  -26.2286   23.3623 H   0  0  0  0  0  0
  -21.6614  -26.7454   22.1221 H   0  0  0  0  0  0
  -19.6855  -25.6318   21.1259 H   0  0  0  0  0  0
  -19.6650  -27.3221   20.6780 H   0  0  0  0  0  0
  -17.4171  -26.6725   21.4064 H   0  0  0  0  0  0
  -18.0281  -26.0090   22.9038 H   0  0  0  0  0  0
  -19.7915  -30.7306   24.2294 H   0  0  0  0  0  0
  -17.4987  -31.6283   24.5224 H   0  0  0  0  0  0
  -15.5328  -30.3043   23.7621 H   0  0  0  0  0  0
  -15.8654  -28.0878   22.7048 H   0  0  0  0  0  0
  -24.5832  -30.7090   25.7816 H   0  0  0  0  0  0
  -24.8868  -32.2862   26.4950 H   0  0  0  0  0  0
  -25.8007  -30.8864   27.0219 H   0  0  0  0  0  0
  -26.2802  -29.6813   24.1106 H   0  0  0  0  0  0
  -27.4000  -29.7264   25.4544 H   0  0  0  0  0  0
  -27.8652  -30.4347   23.9235 H   0  0  0  0  0  0
  -27.2651  -33.3630   26.2071 H   0  0  0  0  0  0
  -28.3802  -32.6921   25.0269 H   0  0  0  0  0  0
  -28.0719  -31.8432   26.5333 H   0  0  0  0  0  0
  -28.2617  -38.0115   24.7494 H   0  0  0  0  0  0
  -28.1060  -36.2648   24.6295 H   0  0  0  0  0  0
  -27.2311  -37.1509   25.8862 H   0  0  0  0  0  0
  -20.9303  -29.8764   21.6978 H   0  0  0  0  0  0
  -26.0165  -38.2885   24.1385 H   0  0  0  0  0  0
  -31.6029  -19.5136   23.5331 H   0  0  0  0  0  0
  -30.5370  -21.5343   22.6660 H   0  0  0  0  0  0
  -28.6824  -17.8413   18.3346 H   0  0  0  0  0  0
  -27.7413  -17.0494   19.5970 H   0  0  0  0  0  0
  -28.5716  -16.1004   18.3681 H   0  0  0  0  0  0
  -33.4171  -16.3383   22.6768 H   0  0  0  0  0  0
  -32.7496  -17.2758   24.0085 H   0  0  0  0  0  0
  -33.3762  -18.0809   22.5506 H   0  0  0  0  0  0
  -29.4306  -24.3286   19.3029 H   0  0  0  0  0  0
  -27.7690  -23.8645   19.5157 H   0  0  0  0  0  0
  -29.1918  -25.5609   21.6125 H   0  0  0  0  0  0
  -27.4853  -25.3379   21.4468 H   0  0  0  0  0  0
  -28.5338  -22.8620   21.8326 H   0  0  0  0  0  0
  -30.1676  -23.1602   21.2609 H   0  0  0  0  0  0
  -30.7755  -16.8952   19.2540 H   0  0  0  0  0  0
  -28.9357  -15.4077   21.0523 H   0  0  0  0  0  0
  1 25  1  0  0  0
  1 30  2  0  0  0
  1 83  1  0  0  0
  2  3  1  0  0  0
  2 25  1  0  0  0
  2 86  1  0  0  0
  2 87  1  0  0  0
  3  4  1  0  0  0
  3 88  1  0  0  0
  3 89  1  0  0  0
  4  5  1  0  0  0
  4 90  1  0  0  0
  4 91  1  0  0  0
  5  6  1  0  0  0
  5 26  1  0  0  0
  5 92  1  0  0  0
  6 25  1  0  0  0
  6 93  1  0  0  0
  6 94  1  0  0  0
  7  8  2  0  0  0
  7 26  1  0  0  0
  7 29  1  0  0  0
  8  9  1  0  0  0
  8 22  1  0  0  0
  9 10  1  0  0  0
  9 27  2  0  0  0
 10 11  2  0  0  0
 10 15  1  0  0  0
 11 12  1  0  0  0
 11 95  1  0  0  0
 12 13  2  0  0  0
 12 96  1  0  0  0
 13 14  1  0  0  0
 13 31  1  0  0  0
 14 15  2  0  0  0
 14 97  1  0  0  0
 15 98  1  0  0  0
 16 17  2  0  0  0
 16 21  1  0  0  0
 16 31  1  0  0  0
 17 18  1  0  0  0
 17 99  1  0  0  0
 18 19  2  0  0  0
 18100  1  0  0  0
 19 20  1  0  0  0
 19 24  1  0  0  0
 20 21  2  0  0  0
 20101  1  0  0  0
 21 23  1  0  0  0
 22 28  1  0  0  0
 22 32  2  0  0  0
 26 27  1  0  0  0
 28102  1  0  0  0
 28103  1  0  0  0
 29104  1  0  0  0
 29105  1  0  0  0
 33 34  1  0  0  0
 33 66  1  0  0  0
 33 70  2  0  0  0
 34 36  1  0  0  0
 34 59  1  0  0  0
 34106  1  0  0  0
 35 44  2  0  0  0
 35 45  1  0  0  0
 35 68  1  0  0  0
 36 56  1  0  0  0
 36107  1  0  0  0
 37 39  1  0  0  0
 37 47  1  0  0  0
 37 66  1  0  0  0
 37108  1  0  0  0
 38 43  2  0  0  0
 38 46  1  0  0  0
 38 47  1  0  0  0
 39 64  1  0  0  0
 39 67  2  0  0  0
 40 52  1  0  0  0
 40 53  2  0  0  0
 40 58  1  0  0  0
 41109  1  0  0  0
 41110  1  0  0  0
 41111  1  0  0  0
 41 48  1  0  0  0
 42 43  1  0  0  0
 42 66  1  0  0  0
 42112  1  0  0  0
 42113  1  0  0  0
 43 44  1  0  0  0
 44114  1  0  0  0
 45 46  2  0  0  0
 45115  1  0  0  0
 46116  1  0  0  0
 47117  1  0  0  0
 47118  1  0  0  0
 48 56  1  0  0  0
 48 65  1  0  0  0
 48119  1  0  0  0
 49 50  1  0  0  0
 49 53  1  0  0  0
 49 64  1  0  0  0
 49120  1  0  0  0
 50 51  1  0  0  0
 50121  1  0  0  0
 50122  1  0  0  0
 51 52  1  0  0  0
 51123  1  0  0  0
 51124  1  0  0  0
 52125  1  0  0  0
 52126  1  0  0  0
 53 54  1  0  0  0
 54 55  2  0  0  0
 54127  1  0  0  0
 55 57  1  0  0  0
 55128  1  0  0  0
 56 69  2  0  0  0
 57 58  2  0  0  0
 57129  1  0  0  0
 58130  1  0  0  0
 59 60  1  0  0  0
 59 61  1  0  0  0
 59 62  1  0  0  0
 60131  1  0  0  0
 60132  1  0  0  0
 60133  1  0  0  0
 61134  1  0  0  0
 61135  1  0  0  0
 61136  1  0  0  0
 62137  1  0  0  0
 62138  1  0  0  0
 62139  1  0  0  0
 63 65  1  0  0  0
 63140  1  0  0  0
 63141  1  0  0  0
 63142  1  0  0  0
 64143  1  0  0  0
 65144  1  0  0  0
 68 79  1  0  0  0
 71 72  2  0  0  0
 71 73  1  0  0  0
 71145  1  0  0  0
 72 75  1  0  0  0
 72146  1  0  0  0
 73 74  2  0  0  0
 73 84  1  0  0  0
 74 81  1  0  0  0
 74 82  1  0  0  0
 75 82  2  0  0  0
 75 85  1  0  0  0
 76147  1  0  0  0
 76148  1  0  0  0
 76149  1  0  0  0
 76 81  1  0  0  0
 77 84  1  0  0  0
 77150  1  0  0  0
 77151  1  0  0  0
 77152  1  0  0  0
 78 79  1  0  0  0
 78 80  1  0  0  0
 78153  1  0  0  0
 78154  1  0  0  0
 79155  1  0  0  0
 79156  1  0  0  0
 80 85  1  0  0  0
 80157  1  0  0  0
 80158  1  0  0  0
 81 83  1  0  0  0
 81159  1  0  0  0
 83160  1  0  0  0
M  ISO  4   1 100  68 101  79 101  83 100
M  END
> <chiral flag>
0

> <version>
0

> <s_m_source_file>
/data/baiqing/PycharmProjects/Reinvent-master-3.2/result/LINK_invent/BTK/process_docking_weight1_custom_sum_contain_oxygen_bond_distance_aromatic_linkinvent_7_9_3/rearranged_h_0125.sdf

> <i_m_source_file_index>
25

> <r_mmod_Potential_Energy-OPLS-2005>
-222.050064086914

> <r_mmod_Stretch_Energy-OPLS-2005>
49.7078437805176

> <r_mmod_Bend_Energy-OPLS-2005>
112.622215270996

> <r_mmod_Torsional_Energy-OPLS-2005>
252.077407836914

> <r_mmod_Improper_Torsional_Energy-OPLS-2005>
9.73817729949951

> <r_mmod_Van_der_Waal_Energy-OPLS-2005>
154.501708984375

> <r_mmod_Electrostatic_Energy-OPLS-2005>
-599.583557128906

> <r_mmod_Solvation_Energy-OPLS-2005>
-223.638931274414

> <b_mmod_Minimization_Converged-OPLS-2005>
0

> <r_mmod_RMS_Derivative-OPLS-2005>
4.08136653900146

$$$$
25
                    3D
 Structure written by MMmdl.
166174  0  0  1  0            999 V2000
  -30.6496  -14.5631   20.5345 C   0  0  0  0  0  0
  -30.4339  -12.3542   19.4310 C   0  0  0  0  0  0
  -29.4970  -12.4934   18.2116 C   0  0  0  0  0  0
  -28.0194  -12.3428   18.6272 C   0  0  0  0  0  0
  -27.6541  -13.2063   19.8625 C   0  0  2  0  0  0
  -28.6987  -13.0307   20.9869 C   0  0  0  0  0  0
  -25.2570  -13.8155   20.5673 C   0  0  0  0  0  0
  -24.1835  -13.0438   20.9195 C   0  0  0  0  0  0
  -24.6388  -11.6899   20.8747 C   0  0  0  0  0  0
  -23.9067  -10.4284   21.0404 C   0  0  0  0  0  0
  -24.3617   -9.4196   21.9178 C   0  0  0  0  0  0
  -23.6292   -8.2234   22.0748 C   0  0  0  0  0  0
  -22.4273   -8.0277   21.3539 C   0  0  0  0  0  0
  -21.9916   -9.0250   20.4636 C   0  0  0  0  0  0
  -22.7249  -10.2125   20.3045 C   0  0  0  0  0  0
  -21.6855   -6.0736   22.5270 C   0  0  0  0  0  0
  -21.4013   -6.5640   23.8207 C   0  0  0  0  0  0
  -21.3656   -5.6792   24.9172 C   0  0  0  0  0  0
  -21.6046   -4.3058   24.7222 C   0  0  0  0  0  0
  -21.8822   -3.8148   23.4344 C   0  0  0  0  0  0
  -21.9191   -4.6961   22.3396 C   0  0  0  0  0  0
  -22.7861  -13.5224   21.1866 C   0  0  0  0  0  0
  -22.1664   -4.2151   21.0975 F   0  0  0  0  0  0
  -21.5627   -3.4537   25.7735 F   0  0  0  0  0  0
  -30.0199  -13.3576   20.4246 N   0  0  0  0  0  0
  -26.2985  -12.9312   20.3316 N   0  0  0  0  0  0
  -25.9305  -11.6479   20.5757 N   0  0  0  0  0  0
  -22.0517  -12.8184   22.0412 N   0  0  0  0  0  0
  -25.4320  -15.1866   20.4058 N   0  0  0  0  0  0
  -31.8019  -14.7516   20.1365 O   0  0  0  0  0  0
  -21.6638   -6.8873   21.4231 O   0  0  0  0  0  0
  -22.3537  -14.5534   20.6734 O   0  0  0  0  0  0
  -24.6201  -31.8658   23.2103 C   0  0  0  0  0  0
  -25.9083  -32.4825   23.8387 C   0  0  1  0  0  0
  -27.2193  -27.3826   20.0925 C   0  0  0  0  0  0
  -25.5928  -33.8624   24.2309 N   0  0  0  0  0  0
  -23.4097  -30.4918   21.5556 C   0  0  2  0  0  0
  -24.8541  -28.9548   20.1134 C   0  0  0  0  0  0
  -22.7434  -29.4665   22.5012 C   0  0  0  0  0  0
  -18.0277  -28.1377   22.8486 C   0  0  0  0  0  0
  -24.1496  -36.7300   23.2645 C   0  0  0  0  0  0
  -25.9463  -30.8091   21.3786 C   0  0  0  0  0  0
  -26.0206  -29.4424   20.7188 C   0  0  0  0  0  0
  -27.2103  -28.6618   20.7120 C   0  0  0  0  0  0
  -26.0517  -26.9516   19.4406 C   0  0  0  0  0  0
  -24.8660  -27.7069   19.4699 C   0  0  0  0  0  0
  -23.6179  -29.8279   20.1700 C   0  0  0  0  0  0
  -25.4112  -36.3101   24.0331 C   0  0  1  0  0  0
  -20.5871  -28.3677   23.1292 C   0  0  2  0  0  0
  -20.6777  -26.9414   22.5404 C   0  0  0  0  0  0
  -19.5762  -26.6376   21.5200 C   0  0  0  0  0  0
  -18.1930  -26.7923   22.1608 C   0  0  0  0  0  0
  -19.1532  -28.8840   23.2882 C   0  0  0  0  0  0
  -18.9470  -30.1446   23.8894 C   0  0  0  0  0  0
  -17.6481  -30.6597   24.0553 C   0  0  0  0  0  0
  -25.9054  -34.9473   23.5116 C   0  0  0  0  0  0
  -16.5360  -29.9091   23.6345 C   0  0  0  0  0  0
  -16.7265  -28.6505   23.0359 C   0  0  0  0  0  0
  -26.4497  -31.6620   25.0734 C   0  0  0  0  0  0
  -25.3743  -31.3721   26.1469 C   0  0  0  0  0  0
  -27.0348  -30.3049   24.6155 C   0  0  0  0  0  0
  -27.6050  -32.4371   25.7507 C   0  0  0  0  0  0
  -27.5588  -37.1795   24.8470 C   0  0  0  0  0  0
  -21.4163  -29.3043   22.3709 N   0  0  0  0  0  0
  -26.4301  -37.3780   23.9403 N   0  0  0  0  0  0
  -24.6773  -31.0696   22.1054 N   0  0  0  0  0  0
  -23.4176  -28.8204   23.3083 O   0  0  0  0  0  0
  -28.3225  -26.5422   20.0859 O   0  0  0  0  0  0
  -26.5627  -34.8934   22.4689 O   0  0  0  0  0  0
  -23.5380  -32.1453   23.7461 O   0  0  0  0  0  0
  -29.1924  -22.9682   20.2208 C   0  0  0  0  0  0
  -28.1377  -23.9430   20.2986 C   0  0  0  0  0  0
  -28.7420  -21.7899   19.6622 C   0  0  0  0  0  0
  -27.0302  -23.2781   19.8265 C   0  0  0  0  0  0
  -25.5890  -23.6947   19.8401 C   0  0  0  0  0  0
  -26.2753  -19.7884   19.0058 C   0  0  0  0  0  0
  -26.9730  -21.2248   16.9820 C   0  0  0  0  0  0
  -28.2105  -25.3614   20.9389 C   0  0  0  0  0  0
  -29.4911  -20.4760   19.3678 C   0  0  0  0  0  0
  -30.1683  -17.0325   21.1432 C   0  0  0  0  0  0
  -29.5258  -18.0179   20.1000 C   0  0  0  0  0  0
  -26.5329  -21.1989   18.4559 C   0  0  0  0  0  0
  -27.4135  -22.0379   19.2958 N   0  0  0  0  0  0
  -29.8620  -15.5868   20.9495 N   0  0  0  0  0  0
  -29.5691  -19.4759   20.4808 N   0  3  0  0  0  0
  -31.4735  -12.4790   19.1245 H   0  0  0  0  0  0
  -30.3669  -11.3528   19.8589 H   0  0  0  0  0  0
  -29.7476  -11.7439   17.4599 H   0  0  0  0  0  0
  -29.6463  -13.4640   17.7377 H   0  0  0  0  0  0
  -27.8456  -11.2890   18.8499 H   0  0  0  0  0  0
  -27.3650  -12.5870   17.7896 H   0  0  0  0  0  0
  -27.6833  -14.2449   19.5328 H   0  0  0  0  0  0
  -28.6954  -12.0042   21.3566 H   0  0  0  0  0  0
  -28.4508  -13.6515   21.8486 H   0  0  0  0  0  0
  -25.2769   -9.5669   22.4756 H   0  0  0  0  0  0
  -24.0007   -7.4622   22.7451 H   0  0  0  0  0  0
  -21.0866   -8.8761   19.8929 H   0  0  0  0  0  0
  -22.3716  -10.9662   19.6149 H   0  0  0  0  0  0
  -21.2008   -7.6149   23.9711 H   0  0  0  0  0  0
  -21.1476   -6.0525   25.9077 H   0  0  0  0  0  0
  -22.0602   -2.7607   23.2841 H   0  0  0  0  0  0
  -22.4166  -11.9835   22.4770 H   0  0  0  0  0  0
  -21.1125  -13.1147   22.2624 H   0  0  0  0  0  0
  -24.6666  -15.8446   20.5096 H   0  0  0  0  0  0
  -26.2723  -15.6139   20.0384 H   0  0  0  0  0  0
  -26.7157  -32.5501   23.1140 H   0  0  0  0  0  0
  -25.0030  -33.9796   25.0418 H   0  0  0  0  0  0
  -22.6981  -31.3091   21.4188 H   0  0  0  0  0  0
  -23.3765  -35.9631   23.3321 H   0  0  0  0  0  0
  -24.3587  -36.8918   22.2066 H   0  0  0  0  0  0
  -23.7259  -37.6499   23.6670 H   0  0  0  0  0  0
  -26.0706  -31.5746   20.6130 H   0  0  0  0  0  0
  -26.8284  -30.8547   22.0043 H   0  0  0  0  0  0
  -28.1058  -29.0267   21.1945 H   0  0  0  0  0  0
  -26.0687  -26.0262   18.8903 H   0  0  0  0  0  0
  -23.9760  -27.3350   18.9797 H   0  0  0  0  0  0
  -23.7232  -30.6062   19.4135 H   0  0  0  0  0  0
  -22.7377  -29.2532   19.8791 H   0  0  0  0  0  0
  -25.1289  -36.1963   25.0823 H   0  0  0  0  0  0
  -20.9942  -28.3272   24.1425 H   0  0  0  0  0  0
  -20.5688  -26.2293   23.3598 H   0  0  0  0  0  0
  -21.6649  -26.7467   22.1198 H   0  0  0  0  0  0
  -19.6940  -25.6279   21.1255 H   0  0  0  0  0  0
  -19.6729  -27.3172   20.6715 H   0  0  0  0  0  0
  -17.4205  -26.6667   21.4013 H   0  0  0  0  0  0
  -18.0341  -26.0055   22.8999 H   0  0  0  0  0  0
  -19.7961  -30.7234   24.2277 H   0  0  0  0  0  0
  -17.5058  -31.6289   24.5136 H   0  0  0  0  0  0
  -15.5373  -30.2992   23.7693 H   0  0  0  0  0  0
  -15.8657  -28.0828   22.7080 H   0  0  0  0  0  0
  -24.5934  -30.7066   25.7785 H   0  0  0  0  0  0
  -24.8905  -32.2865   26.4908 H   0  0  0  0  0  0
  -25.8073  -30.8895   27.0238 H   0  0  0  0  0  0
  -26.2919  -29.6789   24.1209 H   0  0  0  0  0  0
  -27.4097  -29.7308   25.4635 H   0  0  0  0  0  0
  -27.8752  -30.4333   23.9330 H   0  0  0  0  0  0
  -27.2666  -33.3680   26.2058 H   0  0  0  0  0  0
  -28.3865  -32.6938   25.0353 H   0  0  0  0  0  0
  -28.0709  -31.8524   26.5446 H   0  0  0  0  0  0
  -28.2597  -38.0104   24.7527 H   0  0  0  0  0  0
  -28.1102  -36.2635   24.6289 H   0  0  0  0  0  0
  -27.2305  -37.1422   25.8876 H   0  0  0  0  0  0
  -20.9338  -29.8761   21.6921 H   0  0  0  0  0  0
  -26.0199  -38.2867   24.1387 H   0  0  0  0  0  0
  -30.2062  -23.1205   20.5651 H   0  0  0  0  0  0
  -25.4184  -24.5283   20.5193 H   0  0  0  0  0  0
  -24.9534  -22.8862   20.2001 H   0  0  0  0  0  0
  -25.2432  -23.9731   18.8436 H   0  0  0  0  0  0
  -25.3912  -19.3608   18.5303 H   0  0  0  0  0  0
  -26.0867  -19.8016   20.0787 H   0  0  0  0  0  0
  -27.0911  -19.1036   18.8020 H   0  0  0  0  0  0
  -26.2401  -20.7190   16.3530 H   0  0  0  0  0  0
  -27.9366  -20.7510   16.8059 H   0  0  0  0  0  0
  -27.0501  -22.2515   16.6230 H   0  0  0  0  0  0
  -29.0892  -25.3703   21.5835 H   0  0  0  0  0  0
  -27.3636  -25.4653   21.6197 H   0  0  0  0  0  0
  -30.5177  -20.7156   19.0869 H   0  0  0  0  0  0
  -29.0818  -19.9918   18.4858 H   0  0  0  0  0  0
  -29.8154  -17.2942   22.1409 H   0  0  0  0  0  0
  -31.2483  -17.1811   21.1623 H   0  0  0  0  0  0
  -28.4858  -17.7389   19.9301 H   0  0  0  0  0  0
  -30.0355  -17.8825   19.1454 H   0  0  0  0  0  0
  -25.5462  -21.6557   18.4361 H   0  0  0  0  0  0
  -28.9304  -15.3002   21.2161 H   0  0  0  0  0  0
  -28.8188  -19.6698   21.1229 H   0  0  0  0  0  0
  -30.4299  -19.6580   20.9692 H   0  0  0  0  0  0
  1 25  1  0  0  0
  1 30  2  0  0  0
  1 84  1  0  0  0
  2  3  1  0  0  0
  2 25  1  0  0  0
  2 86  1  0  0  0
  2 87  1  0  0  0
  3  4  1  0  0  0
  3 88  1  0  0  0
  3 89  1  0  0  0
  4  5  1  0  0  0
  4 90  1  0  0  0
  4 91  1  0  0  0
  5  6  1  0  0  0
  5 26  1  0  0  0
  5 92  1  0  0  0
  6 25  1  0  0  0
  6 93  1  0  0  0
  6 94  1  0  0  0
  7  8  2  0  0  0
  7 26  1  0  0  0
  7 29  1  0  0  0
  8  9  1  0  0  0
  8 22  1  0  0  0
  9 10  1  0  0  0
  9 27  2  0  0  0
 10 11  2  0  0  0
 10 15  1  0  0  0
 11 12  1  0  0  0
 11 95  1  0  0  0
 12 13  2  0  0  0
 12 96  1  0  0  0
 13 14  1  0  0  0
 13 31  1  0  0  0
 14 15  2  0  0  0
 14 97  1  0  0  0
 15 98  1  0  0  0
 16 17  2  0  0  0
 16 21  1  0  0  0
 16 31  1  0  0  0
 17 18  1  0  0  0
 17 99  1  0  0  0
 18 19  2  0  0  0
 18100  1  0  0  0
 19 20  1  0  0  0
 19 24  1  0  0  0
 20 21  2  0  0  0
 20101  1  0  0  0
 21 23  1  0  0  0
 22 28  1  0  0  0
 22 32  2  0  0  0
 26 27  1  0  0  0
 28102  1  0  0  0
 28103  1  0  0  0
 29104  1  0  0  0
 29105  1  0  0  0
 33 34  1  0  0  0
 33 66  1  0  0  0
 33 70  2  0  0  0
 34 36  1  0  0  0
 34 59  1  0  0  0
 34106  1  0  0  0
 35 44  2  0  0  0
 35 45  1  0  0  0
 35 68  1  0  0  0
 36 56  1  0  0  0
 36107  1  0  0  0
 37 39  1  0  0  0
 37 47  1  0  0  0
 37 66  1  0  0  0
 37108  1  0  0  0
 38 43  2  0  0  0
 38 46  1  0  0  0
 38 47  1  0  0  0
 39 64  1  0  0  0
 39 67  2  0  0  0
 40 52  1  0  0  0
 40 53  2  0  0  0
 40 58  1  0  0  0
 41109  1  0  0  0
 41110  1  0  0  0
 41111  1  0  0  0
 41 48  1  0  0  0
 42 43  1  0  0  0
 42 66  1  0  0  0
 42112  1  0  0  0
 42113  1  0  0  0
 43 44  1  0  0  0
 44114  1  0  0  0
 45 46  2  0  0  0
 45115  1  0  0  0
 46116  1  0  0  0
 47117  1  0  0  0
 47118  1  0  0  0
 48 56  1  0  0  0
 48 65  1  0  0  0
 48119  1  0  0  0
 49 50  1  0  0  0
 49 53  1  0  0  0
 49 64  1  0  0  0
 49120  1  0  0  0
 50 51  1  0  0  0
 50121  1  0  0  0
 50122  1  0  0  0
 51 52  1  0  0  0
 51123  1  0  0  0
 51124  1  0  0  0
 52125  1  0  0  0
 52126  1  0  0  0
 53 54  1  0  0  0
 54 55  2  0  0  0
 54127  1  0  0  0
 55 57  1  0  0  0
 55128  1  0  0  0
 56 69  2  0  0  0
 57 58  2  0  0  0
 57129  1  0  0  0
 58130  1  0  0  0
 59 60  1  0  0  0
 59 61  1  0  0  0
 59 62  1  0  0  0
 60131  1  0  0  0
 60132  1  0  0  0
 60133  1  0  0  0
 61134  1  0  0  0
 61135  1  0  0  0
 61136  1  0  0  0
 62137  1  0  0  0
 62138  1  0  0  0
 62139  1  0  0  0
 63 65  1  0  0  0
 63140  1  0  0  0
 63141  1  0  0  0
 63142  1  0  0  0
 64143  1  0  0  0
 65144  1  0  0  0
 68 78  1  0  0  0
 71 72  1  0  0  0
 71 73  2  0  0  0
 71145  1  0  0  0
 72 74  2  0  0  0
 72 78  1  0  0  0
 73 79  1  0  0  0
 73 83  1  0  0  0
 74 75  1  0  0  0
 74 83  1  0  0  0
 75146  1  0  0  0
 75147  1  0  0  0
 75148  1  0  0  0
 76149  1  0  0  0
 76150  1  0  0  0
 76151  1  0  0  0
 76 82  1  0  0  0
 77 82  1  0  0  0
 77152  1  0  0  0
 77153  1  0  0  0
 77154  1  0  0  0
 78155  1  0  0  0
 78156  1  0  0  0
 79 85  1  0  0  0
 79157  1  0  0  0
 79158  1  0  0  0
 80 81  1  0  0  0
 80 84  1  0  0  0
 80159  1  0  0  0
 80160  1  0  0  0
 81 85  1  0  0  0
 81161  1  0  0  0
 81162  1  0  0  0
 82 83  1  0  0  0
 82163  1  0  0  0
 84164  1  0  0  0
 85165  1  0  0  0
 85166  1  0  0  0
M  CHG  1  85   1
M  ISO  4   1 100  68 101  78 101  84 100
M  END
> <chiral flag>
0

> <version>
0

> <s_m_source_file>
/data/baiqing/PycharmProjects/Reinvent-master-3.2/result/LINK_invent/BTK/process_docking_weight1_custom_sum_contain_oxygen_bond_distance_aromatic_linkinvent_7_9_3/rearranged_h_0125.sdf

> <i_m_source_file_index>
26

> <r_mmod_Potential_Energy-OPLS-2005>
-221.264831542969

> <r_mmod_Stretch_Energy-OPLS-2005>
55.0483207702637

> <r_mmod_Bend_Energy-OPLS-2005>
120.732620239258

> <r_mmod_Torsional_Energy-OPLS-2005>
278.151763916016

> <r_mmod_Improper_Torsional_Energy-OPLS-2005>
4.8550386428833

> <r_mmod_Van_der_Waal_Energy-OPLS-2005>
122.581176757812

> <r_mmod_Electrostatic_Energy-OPLS-2005>
-356.398376464844

> <r_mmod_Solvation_Energy-OPLS-2005>
-475.119567871094

> <b_mmod_Minimization_Converged-OPLS-2005>
0

> <r_mmod_RMS_Derivative-OPLS-2005>
2.61953401565552

$$$$
26
                    3D
 Structure written by MMmdl.
161170  0  0  1  0            999 V2000
  -30.5399  -14.9978   20.4035 C   0  0  0  0  0  0
  -30.4439  -12.6162   19.5209 C   0  0  0  0  0  0
  -29.5345  -12.5344   18.2712 C   0  0  0  0  0  0
  -28.0686  -12.3103   18.6852 C   0  0  0  0  0  0
  -27.6298  -13.2567   19.8353 C   0  0  2  0  0  0
  -28.6672  -13.3182   20.9784 C   0  0  0  0  0  0
  -25.2453  -13.8226   20.5689 C   0  0  0  0  0  0
  -24.1769  -13.0453   20.9200 C   0  0  0  0  0  0
  -24.6390  -11.6945   20.8709 C   0  0  0  0  0  0
  -23.9076  -10.4309   21.0382 C   0  0  0  0  0  0
  -24.3623   -9.4221   21.9157 C   0  0  0  0  0  0
  -23.6289   -8.2254   22.0741 C   0  0  0  0  0  0
  -22.4274   -8.0264   21.3534 C   0  0  0  0  0  0
  -21.9918   -9.0258   20.4655 C   0  0  0  0  0  0
  -22.7243  -10.2142   20.3043 C   0  0  0  0  0  0
  -21.6864   -6.0721   22.5286 C   0  0  0  0  0  0
  -21.4030   -6.5624   23.8223 C   0  0  0  0  0  0
  -21.3665   -5.6769   24.9181 C   0  0  0  0  0  0
  -21.6041   -4.3028   24.7231 C   0  0  0  0  0  0
  -21.8815   -3.8132   23.4345 C   0  0  0  0  0  0
  -21.9193   -4.6949   22.3406 C   0  0  0  0  0  0
  -22.7798  -13.5246   21.1856 C   0  0  0  0  0  0
  -22.1671   -4.2134   21.0990 F   0  0  0  0  0  0
  -21.5628   -3.4526   25.7747 F   0  0  0  0  0  0
  -29.9457  -13.7321   20.3816 N   0  0  0  0  0  0
  -26.2889  -12.9477   20.3198 N   0  0  0  0  0  0
  -25.9329  -11.6602   20.5668 N   0  0  0  0  0  0
  -22.0420  -12.8275   22.0427 N   0  0  0  0  0  0
  -25.4093  -15.1960   20.4126 N   0  0  0  0  0  0
  -31.7393  -15.0485   20.1100 O   0  0  0  0  0  0
  -21.6635   -6.8860   21.4243 O   0  0  0  0  0  0
  -22.3487  -14.5528   20.6639 O   0  0  0  0  0  0
  -24.6496  -31.8413   23.1838 C   0  0  0  0  0  0
  -25.9229  -32.4688   23.8261 C   0  0  1  0  0  0
  -27.2161  -27.0743   20.1461 C   0  0  0  0  0  0
  -25.5943  -33.8498   24.2161 N   0  0  0  0  0  0
  -23.4565  -30.4604   21.5324 C   0  0  2  0  0  0
  -24.9063  -28.8784   20.1138 C   0  0  0  0  0  0
  -22.7596  -29.4535   22.4829 C   0  0  0  0  0  0
  -18.0313  -28.1413   22.8475 C   0  0  0  0  0  0
  -24.1490  -36.7257   23.2647 C   0  0  0  0  0  0
  -26.0211  -30.6898   21.3980 C   0  0  0  0  0  0
  -26.0900  -29.2977   20.7350 C   0  0  0  0  0  0
  -27.2451  -28.4147   20.7326 C   0  0  0  0  0  0
  -25.9974  -26.7754   19.4919 C   0  0  0  0  0  0
  -24.8758  -27.6315   19.4793 C   0  0  0  0  0  0
  -23.6880  -29.7913   20.1534 C   0  0  0  0  0  0
  -25.4131  -36.3031   24.0307 C   0  0  1  0  0  0
  -20.5936  -28.3749   23.1221 C   0  0  2  0  0  0
  -20.6803  -26.9444   22.5408 C   0  0  0  0  0  0
  -19.5770  -26.6384   21.5227 C   0  0  0  0  0  0
  -18.1945  -26.7950   22.1626 C   0  0  0  0  0  0
  -19.1572  -28.8894   23.2846 C   0  0  0  0  0  0
  -18.9483  -30.1483   23.8881 C   0  0  0  0  0  0
  -17.6482  -30.6610   24.0562 C   0  0  0  0  0  0
  -25.9085  -34.9404   23.5054 C   0  0  0  0  0  0
  -16.5373  -29.9106   23.6336 C   0  0  0  0  0  0
  -16.7298  -28.6520   23.0365 C   0  0  0  0  0  0
  -26.4523  -31.6583   25.0744 C   0  0  0  0  0  0
  -25.3665  -31.3820   26.1417 C   0  0  0  0  0  0
  -27.0395  -30.2957   24.6406 C   0  0  0  0  0  0
  -27.6033  -32.4369   25.7534 C   0  0  0  0  0  0
  -27.5575  -37.1795   24.8464 C   0  0  0  0  0  0
  -21.4278  -29.3062   22.3567 N   0  0  0  0  0  0
  -26.4298  -37.3738   23.9396 N   0  0  0  0  0  0
  -24.7296  -31.0199   22.0922 N   0  0  0  0  0  0
  -23.4214  -28.8085   23.3000 O   0  0  0  0  0  0
  -28.2381  -26.0305   20.2063 O   0  0  0  0  0  0
  -26.5684  -34.8896   22.4639 O   0  0  0  0  0  0
  -23.5595  -32.1324   23.7002 O   0  0  0  0  0  0
  -29.6377  -22.5584   19.1089 C   0  0  0  0  0  0
  -28.7019  -23.0495   20.0815 C   0  0  0  0  0  0
  -28.5754  -21.8557   20.8674 C   0  0  0  0  0  0
  -29.9449  -21.2086   19.2615 C   0  0  0  0  0  0
  -27.4743  -22.9531   23.0060 C   0  0  0  0  0  0
  -28.4784  -21.9329   23.4702 C   0  0  0  0  0  0
  -27.7832  -21.7489   22.1368 C   0  0  0  0  0  0
  -30.8391  -20.3805   18.3965 C   0  0  0  0  0  0
  -29.5238  -18.9881   22.3314 C   0  0  0  0  0  0
  -27.8423  -24.5102   20.0222 C   0  0  0  0  0  0
  -30.0382  -17.7371   20.1612 C   0  0  0  0  0  0
  -29.2312  -19.0908   20.8273 C   0  0  2  0  0  0
  -29.2651  -20.6525   20.3530 N   0  0  0  0  0  0
  -29.7746  -16.1997   20.5367 N   0  0  0  0  0  0
  -31.4830  -12.7596   19.2185 H   0  0  0  0  0  0
  -30.4316  -11.6755   20.0718 H   0  0  0  0  0  0
  -29.8692  -11.7345   17.6078 H   0  0  0  0  0  0
  -29.6143  -13.4559   17.6943 H   0  0  0  0  0  0
  -27.9778  -11.2738   19.0116 H   0  0  0  0  0  0
  -27.4124  -12.4190   17.8195 H   0  0  0  0  0  0
  -27.5849  -14.2521   19.3909 H   0  0  0  0  0  0
  -28.7590  -12.3544   21.4818 H   0  0  0  0  0  0
  -28.3564  -14.0348   21.7396 H   0  0  0  0  0  0
  -25.2768   -9.5705   22.4732 H   0  0  0  0  0  0
  -23.9994   -7.4663   22.7490 H   0  0  0  0  0  0
  -21.0823   -8.8786   19.8988 H   0  0  0  0  0  0
  -22.3678  -10.9674   19.6148 H   0  0  0  0  0  0
  -21.2037   -7.6134   23.9727 H   0  0  0  0  0  0
  -21.1488   -6.0498   25.9081 H   0  0  0  0  0  0
  -22.0582   -2.7592   23.2843 H   0  0  0  0  0  0
  -22.3997  -11.9982   22.4924 H   0  0  0  0  0  0
  -21.1031  -13.1318   22.2571 H   0  0  0  0  0  0
  -24.6302  -15.8377   20.5053 H   0  0  0  0  0  0
  -26.2473  -15.6453   20.0683 H   0  0  0  0  0  0
  -26.7302  -32.5267   23.0989 H   0  0  0  0  0  0
  -24.9986  -33.9611   25.0239 H   0  0  0  0  0  0
  -22.7644  -31.2908   21.3749 H   0  0  0  0  0  0
  -23.3754  -35.9592   23.3336 H   0  0  0  0  0  0
  -24.3540  -36.8865   22.2049 H   0  0  0  0  0  0
  -23.7256  -37.6461   23.6681 H   0  0  0  0  0  0
  -26.1953  -31.4433   20.6282 H   0  0  0  0  0  0
  -26.8823  -30.7348   22.0511 H   0  0  0  0  0  0
  -28.1429  -28.7297   21.2449 H   0  0  0  0  0  0
  -25.8573  -25.8250   19.0017 H   0  0  0  0  0  0
  -23.9693  -27.3052   18.9878 H   0  0  0  0  0  0
  -23.8368  -30.5676   19.4022 H   0  0  0  0  0  0
  -22.8002  -29.2438   19.8315 H   0  0  0  0  0  0
  -25.1328  -36.1868   25.0803 H   0  0  0  0  0  0
  -21.0040  -28.3355   24.1342 H   0  0  0  0  0  0
  -20.5718  -26.2356   23.3633 H   0  0  0  0  0  0
  -21.6665  -26.7451   22.1196 H   0  0  0  0  0  0
  -19.6939  -25.6283   21.1280 H   0  0  0  0  0  0
  -19.6723  -27.3171   20.6743 H   0  0  0  0  0  0
  -17.4221  -26.6702   21.4025 H   0  0  0  0  0  0
  -18.0346  -26.0104   22.9030 H   0  0  0  0  0  0
  -19.7959  -30.7298   24.2264 H   0  0  0  0  0  0
  -17.5040  -31.6296   24.5165 H   0  0  0  0  0  0
  -15.5373  -30.3014   23.7677 H   0  0  0  0  0  0
  -15.8688  -28.0832   22.7118 H   0  0  0  0  0  0
  -24.5803  -30.7236   25.7714 H   0  0  0  0  0  0
  -24.8910  -32.3035   26.4797 H   0  0  0  0  0  0
  -25.7887  -30.8984   27.0232 H   0  0  0  0  0  0
  -26.3036  -29.6682   24.1368 H   0  0  0  0  0  0
  -27.3909  -29.7276   25.5030 H   0  0  0  0  0  0
  -27.8991  -30.4171   23.9809 H   0  0  0  0  0  0
  -27.2599  -33.3670   26.2072 H   0  0  0  0  0  0
  -28.3853  -32.6939   25.0380 H   0  0  0  0  0  0
  -28.0706  -31.8547   26.5484 H   0  0  0  0  0  0
  -28.2612  -38.0072   24.7461 H   0  0  0  0  0  0
  -28.1043  -36.2592   24.6357 H   0  0  0  0  0  0
  -27.2269  -37.1512   25.8861 H   0  0  0  0  0  0
  -20.9502  -29.8766   21.6721 H   0  0  0  0  0  0
  -26.0171  -38.2810   24.1389 H   0  0  0  0  0  0
  -30.0172  -23.1448   18.2820 H   0  0  0  0  0  0
  -27.8816  -23.9257   22.7431 H   0  0  0  0  0  0
  -26.5138  -22.9724   23.5188 H   0  0  0  0  0  0
  -28.1887  -21.2815   24.2913 H   0  0  0  0  0  0
  -29.5308  -22.2134   23.4477 H   0  0  0  0  0  0
  -27.0181  -20.9774   22.0677 H   0  0  0  0  0  0
  -31.3316  -20.9966   17.6432 H   0  0  0  0  0  0
  -30.2760  -19.6153   17.8628 H   0  0  0  0  0  0
  -31.6239  -19.8990   18.9811 H   0  0  0  0  0  0
  -29.5894  -17.9489   22.6496 H   0  0  0  0  0  0
  -28.7289  -19.4146   22.9342 H   0  0  0  0  0  0
  -30.4656  -19.4746   22.5901 H   0  0  0  0  0  0
  -26.9372  -24.3465   20.6093 H   0  0  0  0  0  0
  -27.5029  -24.4775   18.9864 H   0  0  0  0  0  0
  -31.1092  -17.8980   20.2903 H   0  0  0  0  0  0
  -29.8788  -17.7762   19.0855 H   0  0  0  0  0  0
  -28.1789  -18.8267   20.7118 H   0  0  0  0  0  0
  -28.8141  -16.0155   20.7858 H   0  0  0  0  0  0
  1 25  1  0  0  0
  1 30  2  0  0  0
  1 84  1  0  0  0
  2  3  1  0  0  0
  2 25  1  0  0  0
  2 85  1  0  0  0
  2 86  1  0  0  0
  3  4  1  0  0  0
  3 87  1  0  0  0
  3 88  1  0  0  0
  4  5  1  0  0  0
  4 89  1  0  0  0
  4 90  1  0  0  0
  5  6  1  0  0  0
  5 26  1  0  0  0
  5 91  1  0  0  0
  6 25  1  0  0  0
  6 92  1  0  0  0
  6 93  1  0  0  0
  7  8  2  0  0  0
  7 26  1  0  0  0
  7 29  1  0  0  0
  8  9  1  0  0  0
  8 22  1  0  0  0
  9 10  1  0  0  0
  9 27  2  0  0  0
 10 11  2  0  0  0
 10 15  1  0  0  0
 11 12  1  0  0  0
 11 94  1  0  0  0
 12 13  2  0  0  0
 12 95  1  0  0  0
 13 14  1  0  0  0
 13 31  1  0  0  0
 14 15  2  0  0  0
 14 96  1  0  0  0
 15 97  1  0  0  0
 16 17  2  0  0  0
 16 21  1  0  0  0
 16 31  1  0  0  0
 17 18  1  0  0  0
 17 98  1  0  0  0
 18 19  2  0  0  0
 18 99  1  0  0  0
 19 20  1  0  0  0
 19 24  1  0  0  0
 20 21  2  0  0  0
 20100  1  0  0  0
 21 23  1  0  0  0
 22 28  1  0  0  0
 22 32  2  0  0  0
 26 27  1  0  0  0
 28101  1  0  0  0
 28102  1  0  0  0
 29103  1  0  0  0
 29104  1  0  0  0
 33 34  1  0  0  0
 33 66  1  0  0  0
 33 70  2  0  0  0
 34 36  1  0  0  0
 34 59  1  0  0  0
 34105  1  0  0  0
 35 44  2  0  0  0
 35 45  1  0  0  0
 35 68  1  0  0  0
 36 56  1  0  0  0
 36106  1  0  0  0
 37 39  1  0  0  0
 37 47  1  0  0  0
 37 66  1  0  0  0
 37107  1  0  0  0
 38 43  2  0  0  0
 38 46  1  0  0  0
 38 47  1  0  0  0
 39 64  1  0  0  0
 39 67  2  0  0  0
 40 52  1  0  0  0
 40 53  2  0  0  0
 40 58  1  0  0  0
 41108  1  0  0  0
 41109  1  0  0  0
 41110  1  0  0  0
 41 48  1  0  0  0
 42 43  1  0  0  0
 42 66  1  0  0  0
 42111  1  0  0  0
 42112  1  0  0  0
 43 44  1  0  0  0
 44113  1  0  0  0
 45 46  2  0  0  0
 45114  1  0  0  0
 46115  1  0  0  0
 47116  1  0  0  0
 47117  1  0  0  0
 48 56  1  0  0  0
 48 65  1  0  0  0
 48118  1  0  0  0
 49 50  1  0  0  0
 49 53  1  0  0  0
 49 64  1  0  0  0
 49119  1  0  0  0
 50 51  1  0  0  0
 50120  1  0  0  0
 50121  1  0  0  0
 51 52  1  0  0  0
 51122  1  0  0  0
 51123  1  0  0  0
 52124  1  0  0  0
 52125  1  0  0  0
 53 54  1  0  0  0
 54 55  2  0  0  0
 54126  1  0  0  0
 55 57  1  0  0  0
 55127  1  0  0  0
 56 69  2  0  0  0
 57 58  2  0  0  0
 57128  1  0  0  0
 58129  1  0  0  0
 59 60  1  0  0  0
 59 61  1  0  0  0
 59 62  1  0  0  0
 60130  1  0  0  0
 60131  1  0  0  0
 60132  1  0  0  0
 61133  1  0  0  0
 61134  1  0  0  0
 61135  1  0  0  0
 62136  1  0  0  0
 62137  1  0  0  0
 62138  1  0  0  0
 63 65  1  0  0  0
 63139  1  0  0  0
 63140  1  0  0  0
 63141  1  0  0  0
 64142  1  0  0  0
 65143  1  0  0  0
 68 80  1  0  0  0
 71 72  1  0  0  0
 71 74  2  0  0  0
 71144  1  0  0  0
 72 73  2  0  0  0
 72 80  1  0  0  0
 73 83  1  0  0  0
 73 77  1  0  0  0
 74 78  1  0  0  0
 74 83  1  0  0  0
 75 76  1  0  0  0
 75 77  1  0  0  0
 75145  1  0  0  0
 75146  1  0  0  0
 76 77  1  0  0  0
 76147  1  0  0  0
 76148  1  0  0  0
 77149  1  0  0  0
 78150  1  0  0  0
 78151  1  0  0  0
 78152  1  0  0  0
 79153  1  0  0  0
 79154  1  0  0  0
 79155  1  0  0  0
 79 82  1  0  0  0
 80156  1  0  0  0
 80157  1  0  0  0
 81 82  1  0  0  0
 81 84  1  0  0  0
 81158  1  0  0  0
 81159  1  0  0  0
 82 83  1  0  0  0
 82160  1  0  0  0
 84161  1  0  0  0
M  ISO  4   1 100  68 101  80 101  84 100
M  END
> <chiral flag>
0

> <version>
0

> <s_m_source_file>
/data/baiqing/PycharmProjects/Reinvent-master-3.2/result/LINK_invent/BTK/process_docking_weight1_custom_sum_contain_oxygen_bond_distance_aromatic_linkinvent_7_9_3/rearranged_h_0125.sdf

> <i_m_source_file_index>
27

> <r_mmod_Potential_Energy-OPLS-2005>
659.875

> <r_mmod_Stretch_Energy-OPLS-2005>
328.311340332031

> <r_mmod_Bend_Energy-OPLS-2005>
308.922760009766

> <r_mmod_Torsional_Energy-OPLS-2005>
280.131530761719

> <r_mmod_Improper_Torsional_Energy-OPLS-2005>
7.2940354347229

> <r_mmod_Van_der_Waal_Energy-OPLS-2005>
110.574440002441

> <r_mmod_Electrostatic_Energy-OPLS-2005>
-400.818481445312

> <r_mmod_Solvation_Energy-OPLS-2005>
-217.153350830078

> <b_mmod_Minimization_Converged-OPLS-2005>
0

> <r_mmod_RMS_Derivative-OPLS-2005>
3.46977972984314

$$$$
27
                    3D
 Structure written by MMmdl.
158167  0  0  1  0            999 V2000
  -30.6713  -14.7505   20.4767 C   0  0  0  0  0  0
  -30.4036  -12.4746   19.4790 C   0  0  0  0  0  0
  -29.4987  -12.5042   18.2315 C   0  0  0  0  0  0
  -28.0289  -12.3182   18.6456 C   0  0  0  0  0  0
  -27.6307  -13.2339   19.8356 C   0  0  2  0  0  0
  -28.6702  -13.1913   20.9725 C   0  0  0  0  0  0
  -25.2530  -13.8223   20.5685 C   0  0  0  0  0  0
  -24.1797  -13.0467   20.9147 C   0  0  0  0  0  0
  -24.6381  -11.6935   20.8671 C   0  0  0  0  0  0
  -23.9065  -10.4312   21.0369 C   0  0  0  0  0  0
  -24.3618   -9.4246   21.9149 C   0  0  0  0  0  0
  -23.6290   -8.2294   22.0771 C   0  0  0  0  0  0
  -22.4267   -8.0309   21.3564 C   0  0  0  0  0  0
  -21.9888   -9.0276   20.4661 C   0  0  0  0  0  0
  -22.7228  -10.2147   20.3043 C   0  0  0  0  0  0
  -21.6859   -6.0761   22.5292 C   0  0  0  0  0  0
  -21.4011   -6.5674   23.8220 C   0  0  0  0  0  0
  -21.3649   -5.6824   24.9178 C   0  0  0  0  0  0
  -21.6030   -4.3084   24.7228 C   0  0  0  0  0  0
  -21.8817   -3.8175   23.4345 C   0  0  0  0  0  0
  -21.9200   -4.6991   22.3408 C   0  0  0  0  0  0
  -22.7845  -13.5251   21.1886 C   0  0  0  0  0  0
  -22.1654   -4.2189   21.0971 F   0  0  0  0  0  0
  -21.5628   -3.4552   25.7726 F   0  0  0  0  0  0
  -29.9524  -13.5714   20.3830 N   0  0  0  0  0  0
  -26.2895  -12.9407   20.3208 N   0  0  0  0  0  0
  -25.9289  -11.6546   20.5630 N   0  0  0  0  0  0
  -22.0503  -12.8165   22.0395 N   0  0  0  0  0  0
  -25.4365  -15.1920   20.4161 N   0  0  0  0  0  0
  -31.8595  -14.7178   20.1576 O   0  0  0  0  0  0
  -21.6649   -6.8890   21.4248 O   0  0  0  0  0  0
  -22.3514  -14.5579   20.6799 O   0  0  0  0  0  0
  -24.6316  -31.8542   23.1954 C   0  0  0  0  0  0
  -25.9139  -32.4743   23.8303 C   0  0  1  0  0  0
  -27.1988  -27.2317   20.1224 C   0  0  0  0  0  0
  -25.5938  -33.8547   24.2225 N   0  0  0  0  0  0
  -23.4259  -30.4766   21.5407 C   0  0  2  0  0  0
  -24.8671  -28.9207   20.1006 C   0  0  0  0  0  0
  -22.7480  -29.4625   22.4908 C   0  0  0  0  0  0
  -18.0281  -28.1422   22.8482 C   0  0  0  0  0  0
  -24.1481  -36.7271   23.2635 C   0  0  0  0  0  0
  -25.9721  -30.7561   21.3773 C   0  0  0  0  0  0
  -26.0385  -29.3759   20.7190 C   0  0  0  0  0  0
  -27.2028  -28.5396   20.7222 C   0  0  0  0  0  0
  -26.0045  -26.8486   19.4736 C   0  0  0  0  0  0
  -24.8580  -27.6686   19.4651 C   0  0  0  0  0  0
  -23.6380  -29.8094   20.1560 C   0  0  0  0  0  0
  -25.4112  -36.3062   24.0312 C   0  0  1  0  0  0
  -20.5877  -28.3751   23.1287 C   0  0  2  0  0  0
  -20.6779  -26.9459   22.5460 C   0  0  0  0  0  0
  -19.5771  -26.6390   21.5254 C   0  0  0  0  0  0
  -18.1954  -26.7933   22.1679 C   0  0  0  0  0  0
  -19.1522  -28.8901   23.2866 C   0  0  0  0  0  0
  -18.9453  -30.1489   23.8894 C   0  0  0  0  0  0
  -17.6460  -30.6612   24.0582 C   0  0  0  0  0  0
  -25.9065  -34.9431   23.5089 C   0  0  0  0  0  0
  -16.5349  -29.9097   23.6369 C   0  0  0  0  0  0
  -16.7257  -28.6527   23.0367 C   0  0  0  0  0  0
  -26.4498  -31.6584   25.0702 C   0  0  0  0  0  0
  -25.3707  -31.3747   26.1413 C   0  0  0  0  0  0
  -27.0349  -30.2996   24.6210 C   0  0  0  0  0  0
  -27.6059  -32.4315   25.7479 C   0  0  0  0  0  0
  -27.5573  -37.1792   24.8467 C   0  0  0  0  0  0
  -21.4184  -29.3066   22.3647 N   0  0  0  0  0  0
  -26.4292  -37.3760   23.9404 N   0  0  0  0  0  0
  -24.6968  -31.0471   22.0952 N   0  0  0  0  0  0
  -23.4164  -28.8169   23.3015 O   0  0  0  0  0  0
  -28.2942  -26.3371   20.2143 O   0  0  0  0  0  0
  -26.5634  -34.8907   22.4649 O   0  0  0  0  0  0
  -23.5479  -32.1394   23.7252 O   0  0  0  0  0  0
  -27.2303  -23.5448   21.4179 C   0  0  0  0  0  0
  -28.6500  -22.2856   19.9295 C   0  0  0  0  0  0
  -26.9358  -22.3105   22.0297 C   0  0  0  0  0  0
  -28.1111  -23.5869   20.3234 C   0  0  0  0  0  0
  -28.3331  -21.0477   20.6228 C   0  0  0  0  0  0
  -29.1448  -17.4849   23.2491 C   0  0  0  0  0  0
  -29.4081  -18.8306   22.5883 C   0  0  0  0  0  0
  -28.2944  -16.7443   22.2217 C   0  0  0  0  0  0
  -29.4251  -18.5843   21.0560 C   0  0  1  0  0  0
  -29.0216  -16.9876   20.8886 C   0  0  1  0  0  0
  -28.3717  -24.9734   19.5609 C   0  0  0  0  0  0
  -27.4555  -21.1181   21.6435 N   0  0  0  0  0  0
  -28.7738  -19.7069   20.2333 N   0  0  0  0  0  0
  -30.2136  -16.0280   20.8112 N   0  0  0  0  0  0
  -31.4507  -12.5571   19.1850 H   0  0  0  0  0  0
  -30.3247  -11.5082   19.9783 H   0  0  0  0  0  0
  -29.7920  -11.7206   17.5321 H   0  0  0  0  0  0
  -29.6194  -13.4526   17.7058 H   0  0  0  0  0  0
  -27.8971  -11.2702   18.9179 H   0  0  0  0  0  0
  -27.3702  -12.4836   17.7944 H   0  0  0  0  0  0
  -27.6180  -14.2486   19.4351 H   0  0  0  0  0  0
  -28.7277  -12.1893   21.4007 H   0  0  0  0  0  0
  -28.3920  -13.8412   21.7917 H   0  0  0  0  0  0
  -25.2771   -9.5746   22.4713 H   0  0  0  0  0  0
  -24.0028   -7.4703   22.7516 H   0  0  0  0  0  0
  -21.0823   -8.8766   19.8969 H   0  0  0  0  0  0
  -22.3667  -10.9668   19.6147 H   0  0  0  0  0  0
  -21.1984   -7.6181   23.9713 H   0  0  0  0  0  0
  -21.1467   -6.0561   25.9078 H   0  0  0  0  0  0
  -22.0591   -2.7646   23.2830 H   0  0  0  0  0  0
  -22.4118  -11.9728   22.4585 H   0  0  0  0  0  0
  -21.1189  -13.1255   22.2796 H   0  0  0  0  0  0
  -24.6949  -15.8674   20.5653 H   0  0  0  0  0  0
  -26.3106  -15.6150   20.1318 H   0  0  0  0  0  0
  -26.7178  -32.5364   23.1024 H   0  0  0  0  0  0
  -25.0082  -33.9664   25.0372 H   0  0  0  0  0  0
  -22.7264  -31.3020   21.3972 H   0  0  0  0  0  0
  -23.3756  -35.9606   23.3326 H   0  0  0  0  0  0
  -24.3565  -36.8874   22.2051 H   0  0  0  0  0  0
  -23.7226  -37.6466   23.6653 H   0  0  0  0  0  0
  -26.1058  -31.5155   20.6047 H   0  0  0  0  0  0
  -26.8534  -30.8090   22.0074 H   0  0  0  0  0  0
  -28.0967  -28.8765   21.2293 H   0  0  0  0  0  0
  -25.9146  -25.8842   18.9974 H   0  0  0  0  0  0
  -23.9602  -27.3206   18.9722 H   0  0  0  0  0  0
  -23.7442  -30.5829   19.3953 H   0  0  0  0  0  0
  -22.7553  -29.2355   19.8631 H   0  0  0  0  0  0
  -25.1301  -36.1924   25.0808 H   0  0  0  0  0  0
  -20.9958  -28.3354   24.1414 H   0  0  0  0  0  0
  -20.5648  -26.2395   23.3697 H   0  0  0  0  0  0
  -21.6658  -26.7411   22.1336 H   0  0  0  0  0  0
  -19.6943  -25.6262   21.1376 H   0  0  0  0  0  0
  -19.6713  -27.3153   20.6741 H   0  0  0  0  0  0
  -17.4190  -26.6563   21.4137 H   0  0  0  0  0  0
  -18.0444  -26.0129   22.9153 H   0  0  0  0  0  0
  -19.7920  -30.7335   24.2258 H   0  0  0  0  0  0
  -17.5012  -31.6294   24.5186 H   0  0  0  0  0  0
  -15.5361  -30.2996   23.7747 H   0  0  0  0  0  0
  -15.8652  -28.0862   22.7083 H   0  0  0  0  0  0
  -24.5896  -30.7078   25.7732 H   0  0  0  0  0  0
  -24.8873  -32.2922   26.4779 H   0  0  0  0  0  0
  -25.8004  -30.8958   27.0225 H   0  0  0  0  0  0
  -26.2946  -29.6733   24.1216 H   0  0  0  0  0  0
  -27.4000  -29.7259   25.4741 H   0  0  0  0  0  0
  -27.8834  -30.4251   23.9481 H   0  0  0  0  0  0
  -27.2684  -33.3634   26.2030 H   0  0  0  0  0  0
  -28.3897  -32.6847   25.0323 H   0  0  0  0  0  0
  -28.0707  -31.8452   26.5417 H   0  0  0  0  0  0
  -28.2609  -38.0068   24.7489 H   0  0  0  0  0  0
  -28.1046  -36.2597   24.6344 H   0  0  0  0  0  0
  -27.2278  -37.1500   25.8864 H   0  0  0  0  0  0
  -20.9401  -29.8690   21.6752 H   0  0  0  0  0  0
  -26.0182  -38.2846   24.1399 H   0  0  0  0  0  0
  -26.7611  -24.4497   21.7766 H   0  0  0  0  0  0
  -29.3048  -22.2424   19.0692 H   0  0  0  0  0  0
  -26.2397  -22.2743   22.8566 H   0  0  0  0  0  0
  -28.6401  -17.5900   24.2098 H   0  0  0  0  0  0
  -30.0831  -16.9536   23.4245 H   0  0  0  0  0  0
  -30.3191  -19.3088   22.9506 H   0  0  0  0  0  0
  -28.5830  -19.4554   22.9110 H   0  0  0  0  0  0
  -28.1465  -15.7111   22.5083 H   0  0  0  0  0  0
  -27.2989  -17.1942   22.1832 H   0  0  0  0  0  0
  -30.4710  -18.6456   20.7433 H   0  0  0  0  0  0
  -28.3547  -16.8073   20.0462 H   0  0  0  0  0  0
  -27.8095  -24.9643   18.6291 H   0  0  0  0  0  0
  -29.4094  -24.9064   19.2328 H   0  0  0  0  0  0
  -29.1447  -19.7029   19.2885 H   0  0  0  0  0  0
  -31.0517  -16.5885   20.8549 H   0  0  0  0  0  0
  1 25  1  0  0  0
  1 30  2  0  0  0
  1 84  1  0  0  0
  2  3  1  0  0  0
  2 25  1  0  0  0
  2 85  1  0  0  0
  2 86  1  0  0  0
  3  4  1  0  0  0
  3 87  1  0  0  0
  3 88  1  0  0  0
  4  5  1  0  0  0
  4 89  1  0  0  0
  4 90  1  0  0  0
  5  6  1  0  0  0
  5 26  1  0  0  0
  5 91  1  0  0  0
  6 25  1  0  0  0
  6 92  1  0  0  0
  6 93  1  0  0  0
  7  8  2  0  0  0
  7 26  1  0  0  0
  7 29  1  0  0  0
  8  9  1  0  0  0
  8 22  1  0  0  0
  9 10  1  0  0  0
  9 27  2  0  0  0
 10 11  2  0  0  0
 10 15  1  0  0  0
 11 12  1  0  0  0
 11 94  1  0  0  0
 12 13  2  0  0  0
 12 95  1  0  0  0
 13 14  1  0  0  0
 13 31  1  0  0  0
 14 15  2  0  0  0
 14 96  1  0  0  0
 15 97  1  0  0  0
 16 17  2  0  0  0
 16 21  1  0  0  0
 16 31  1  0  0  0
 17 18  1  0  0  0
 17 98  1  0  0  0
 18 19  2  0  0  0
 18 99  1  0  0  0
 19 20  1  0  0  0
 19 24  1  0  0  0
 20 21  2  0  0  0
 20100  1  0  0  0
 21 23  1  0  0  0
 22 28  1  0  0  0
 22 32  2  0  0  0
 26 27  1  0  0  0
 28101  1  0  0  0
 28102  1  0  0  0
 29103  1  0  0  0
 29104  1  0  0  0
 33 34  1  0  0  0
 33 66  1  0  0  0
 33 70  2  0  0  0
 34 36  1  0  0  0
 34 59  1  0  0  0
 34105  1  0  0  0
 35 44  2  0  0  0
 35 45  1  0  0  0
 35 68  1  0  0  0
 36 56  1  0  0  0
 36106  1  0  0  0
 37 39  1  0  0  0
 37 47  1  0  0  0
 37 66  1  0  0  0
 37107  1  0  0  0
 38 43  2  0  0  0
 38 46  1  0  0  0
 38 47  1  0  0  0
 39 64  1  0  0  0
 39 67  2  0  0  0
 40 52  1  0  0  0
 40 53  2  0  0  0
 40 58  1  0  0  0
 41108  1  0  0  0
 41109  1  0  0  0
 41110  1  0  0  0
 41 48  1  0  0  0
 42 43  1  0  0  0
 42 66  1  0  0  0
 42111  1  0  0  0
 42112  1  0  0  0
 43 44  1  0  0  0
 44113  1  0  0  0
 45 46  2  0  0  0
 45114  1  0  0  0
 46115  1  0  0  0
 47116  1  0  0  0
 47117  1  0  0  0
 48 56  1  0  0  0
 48 65  1  0  0  0
 48118  1  0  0  0
 49 50  1  0  0  0
 49 53  1  0  0  0
 49 64  1  0  0  0
 49119  1  0  0  0
 50 51  1  0  0  0
 50120  1  0  0  0
 50121  1  0  0  0
 51 52  1  0  0  0
 51122  1  0  0  0
 51123  1  0  0  0
 52124  1  0  0  0
 52125  1  0  0  0
 53 54  1  0  0  0
 54 55  2  0  0  0
 54126  1  0  0  0
 55 57  1  0  0  0
 55127  1  0  0  0
 56 69  2  0  0  0
 57 58  2  0  0  0
 57128  1  0  0  0
 58129  1  0  0  0
 59 60  1  0  0  0
 59 61  1  0  0  0
 59 62  1  0  0  0
 60130  1  0  0  0
 60131  1  0  0  0
 60132  1  0  0  0
 61133  1  0  0  0
 61134  1  0  0  0
 61135  1  0  0  0
 62136  1  0  0  0
 62137  1  0  0  0
 62138  1  0  0  0
 63 65  1  0  0  0
 63139  1  0  0  0
 63140  1  0  0  0
 63141  1  0  0  0
 64142  1  0  0  0
 65143  1  0  0  0
 68 81  1  0  0  0
 71 73  2  0  0  0
 71 74  1  0  0  0
 71144  1  0  0  0
 72 74  2  0  0  0
 72 75  1  0  0  0
 72145  1  0  0  0
 73 82  1  0  0  0
 73146  1  0  0  0
 74 81  1  0  0  0
 75 82  2  0  0  0
 75 83  1  0  0  0
 76 77  1  0  0  0
 76 78  1  0  0  0
 76147  1  0  0  0
 76148  1  0  0  0
 77 79  1  0  0  0
 77149  1  0  0  0
 77150  1  0  0  0
 78 80  1  0  0  0
 78151  1  0  0  0
 78152  1  0  0  0
 79 80  1  0  0  0
 79 83  1  0  0  0
 79153  1  0  0  0
 80 84  1  0  0  0
 80154  1  0  0  0
 81155  1  0  0  0
 81156  1  0  0  0
 83157  1  0  0  0
 84158  1  0  0  0
M  ISO  4   1 100  68 101  81 101  84 100
M  END
> <chiral flag>
0

> <version>
0

> <s_m_source_file>
/data/baiqing/PycharmProjects/Reinvent-master-3.2/result/LINK_invent/BTK/process_docking_weight1_custom_sum_contain_oxygen_bond_distance_aromatic_linkinvent_7_9_3/rearranged_h_0125.sdf

> <i_m_source_file_index>
28

> <r_mmod_Potential_Energy-OPLS-2005>
118.056365966797

> <r_mmod_Stretch_Energy-OPLS-2005>
145.238891601562

> <r_mmod_Bend_Energy-OPLS-2005>
328.463409423828

> <r_mmod_Torsional_Energy-OPLS-2005>
292.635406494141

> <r_mmod_Improper_Torsional_Energy-OPLS-2005>
5.87341976165771

> <r_mmod_Van_der_Waal_Energy-OPLS-2005>
139.122482299805

> <r_mmod_Electrostatic_Energy-OPLS-2005>
-659.764770507812

> <r_mmod_Solvation_Energy-OPLS-2005>
-230.888305664062

> <b_mmod_Minimization_Converged-OPLS-2005>
0

> <r_mmod_RMS_Derivative-OPLS-2005>
3.99687194824219

$$$$
28
                    3D
 Structure written by MMmdl.
163172  0  0  1  0            999 V2000
  -30.5525  -14.8158   20.4561 C   0  0  0  0  0  0
  -30.4436  -12.5047   19.4841 C   0  0  0  0  0  0
  -29.5225  -12.5622   18.2429 C   0  0  0  0  0  0
  -28.0537  -12.3453   18.6525 C   0  0  0  0  0  0
  -27.6468  -13.2320   19.8600 C   0  0  2  0  0  0
  -28.6892  -13.1619   20.9995 C   0  0  0  0  0  0
  -25.2548  -13.8207   20.5655 C   0  0  0  0  0  0
  -24.1812  -13.0456   20.9208 C   0  0  0  0  0  0
  -24.6386  -11.6938   20.8731 C   0  0  0  0  0  0
  -23.9040  -10.4314   21.0378 C   0  0  0  0  0  0
  -24.3595   -9.4252   21.9166 C   0  0  0  0  0  0
  -23.6277   -8.2286   22.0756 C   0  0  0  0  0  0
  -22.4268   -8.0297   21.3555 C   0  0  0  0  0  0
  -21.9885   -9.0262   20.4659 C   0  0  0  0  0  0
  -22.7195  -10.2153   20.3047 C   0  0  0  0  0  0
  -21.6866   -6.0722   22.5266 C   0  0  0  0  0  0
  -21.4023   -6.5618   23.8196 C   0  0  0  0  0  0
  -21.3670   -5.6763   24.9156 C   0  0  0  0  0  0
  -21.6055   -4.3027   24.7213 C   0  0  0  0  0  0
  -21.8822   -3.8128   23.4332 C   0  0  0  0  0  0
  -21.9199   -4.6945   22.3384 C   0  0  0  0  0  0
  -22.7847  -13.5305   21.1846 C   0  0  0  0  0  0
  -22.1669   -4.2129   21.0958 F   0  0  0  0  0  0
  -21.5636   -3.4515   25.7727 F   0  0  0  0  0  0
  -29.9872  -13.5521   20.4327 N   0  0  0  0  0  0
  -26.2950  -12.9378   20.3274 N   0  0  0  0  0  0
  -25.9314  -11.6529   20.5720 N   0  0  0  0  0  0
  -22.0424  -12.8327   22.0395 N   0  0  0  0  0  0
  -25.4313  -15.1904   20.4038 N   0  0  0  0  0  0
  -31.7130  -14.9609   20.0588 O   0  0  0  0  0  0
  -21.6664   -6.8869   21.4235 O   0  0  0  0  0  0
  -22.3540  -14.5580   20.6633 O   0  0  0  0  0  0
  -24.6297  -31.8559   23.1844 C   0  0  0  0  0  0
  -25.9095  -32.4749   23.8258 C   0  0  1  0  0  0
  -27.2304  -27.2375   20.1516 C   0  0  0  0  0  0
  -25.5851  -33.8546   24.2146 N   0  0  0  0  0  0
  -23.4269  -30.4648   21.5350 C   0  0  2  0  0  0
  -24.8764  -28.8930   20.1160 C   0  0  0  0  0  0
  -22.7492  -29.4618   22.4997 C   0  0  0  0  0  0
  -18.0299  -28.1397   22.8505 C   0  0  0  0  0  0
  -24.1476  -36.7277   23.2648 C   0  0  0  0  0  0
  -25.9718  -30.7539   21.3728 C   0  0  0  0  0  0
  -26.0447  -29.3718   20.7241 C   0  0  0  0  0  0
  -27.2260  -28.5577   20.7221 C   0  0  0  0  0  0
  -26.0432  -26.8250   19.5165 C   0  0  0  0  0  0
  -24.8826  -27.6287   19.4990 C   0  0  0  0  0  0
  -23.6350  -29.7635   20.1651 C   0  0  0  0  0  0
  -25.4111  -36.3066   24.0319 C   0  0  1  0  0  0
  -20.5893  -28.3679   23.1313 C   0  0  2  0  0  0
  -20.6785  -26.9409   22.5422 C   0  0  0  0  0  0
  -19.5747  -26.6396   21.5235 C   0  0  0  0  0  0
  -18.1922  -26.7943   22.1650 C   0  0  0  0  0  0
  -19.1556  -28.8860   23.2897 C   0  0  0  0  0  0
  -18.9474  -30.1470   23.8900 C   0  0  0  0  0  0
  -17.6466  -30.6593   24.0567 C   0  0  0  0  0  0
  -25.9067  -34.9452   23.5062 C   0  0  0  0  0  0
  -16.5364  -29.9093   23.6341 C   0  0  0  0  0  0
  -16.7290  -28.6520   23.0363 C   0  0  0  0  0  0
  -26.4408  -31.6613   25.0695 C   0  0  0  0  0  0
  -25.3545  -31.3857   26.1357 C   0  0  0  0  0  0
  -27.0214  -30.2983   24.6270 C   0  0  0  0  0  0
  -27.5953  -32.4381   25.7457 C   0  0  0  0  0  0
  -27.5587  -37.1763   24.8440 C   0  0  0  0  0  0
  -21.4212  -29.3005   22.3697 N   0  0  0  0  0  0
  -26.4272  -37.3772   23.9425 N   0  0  0  0  0  0
  -24.6943  -31.0485   22.0833 N   0  0  0  0  0  0
  -23.4198  -28.8286   23.3192 O   0  0  0  0  0  0
  -28.3457  -26.3616   20.1283 O   0  0  0  0  0  0
  -26.5719  -34.8955   22.4683 O   0  0  0  0  0  0
  -23.5454  -32.1398   23.7138 O   0  0  0  0  0  0
  -28.4107  -25.7572   22.9042 C   0  0  0  0  0  0
  -28.1188  -19.6370   20.0527 C   0  0  0  0  0  0
  -30.3573  -19.8991   21.0954 C   0  0  0  0  0  0
  -28.3054  -18.1449   20.6120 C   0  0  0  0  0  0
  -30.7718  -18.4215   20.6325 C   0  0  0  0  0  0
  -29.4873  -25.3424   21.9068 C   0  0  0  0  0  0
  -27.4374  -24.9497   22.0571 C   0  0  0  0  0  0
  -29.2784  -20.6952   20.2599 C   0  0  2  0  0  0
  -29.6448  -17.3883   20.2554 C   0  0  1  0  0  0
  -28.4058  -25.0147   20.8447 C   0  0  0  0  0  0
  -28.8999  -22.1969   20.8548 C   0  0  0  0  0  0
  -28.6515  -23.6071   20.0280 C   0  0  0  0  0  0
  -29.7236  -15.9094   20.7343 N   0  0  0  0  0  0
  -31.4803  -12.6581   19.1837 H   0  0  0  0  0  0
  -30.4101  -11.5149   19.9438 H   0  0  0  0  0  0
  -29.8280  -11.8182   17.5073 H   0  0  0  0  0  0
  -29.6261  -13.5325   17.7538 H   0  0  0  0  0  0
  -27.9363  -11.2928   18.9120 H   0  0  0  0  0  0
  -27.3937  -12.5266   17.8029 H   0  0  0  0  0  0
  -27.6452  -14.2574   19.4920 H   0  0  0  0  0  0
  -28.7375  -12.1558   21.4170 H   0  0  0  0  0  0
  -28.4079  -13.8204   21.8232 H   0  0  0  0  0  0
  -25.2740   -9.5739   22.4740 H   0  0  0  0  0  0
  -23.9987   -7.4682   22.7480 H   0  0  0  0  0  0
  -21.0816   -8.8750   19.8980 H   0  0  0  0  0  0
  -22.3616  -10.9675   19.6159 H   0  0  0  0  0  0
  -21.2008   -7.6125   23.9689 H   0  0  0  0  0  0
  -21.1504   -6.0501   25.9055 H   0  0  0  0  0  0
  -22.0600   -2.7593   23.2828 H   0  0  0  0  0  0
  -22.3943  -11.9992   22.4851 H   0  0  0  0  0  0
  -21.1045  -13.1428   22.2512 H   0  0  0  0  0  0
  -24.6739  -15.8568   20.5033 H   0  0  0  0  0  0
  -26.2731  -15.6092   20.0284 H   0  0  0  0  0  0
  -26.7188  -32.5383   23.1044 H   0  0  0  0  0  0
  -24.9771  -33.9670   25.0127 H   0  0  0  0  0  0
  -22.7191  -31.2805   21.3728 H   0  0  0  0  0  0
  -23.3775  -35.9562   23.3260 H   0  0  0  0  0  0
  -24.3568  -36.8972   22.2069 H   0  0  0  0  0  0
  -23.7164  -37.6434   23.6724 H   0  0  0  0  0  0
  -26.1160  -31.5061   20.5978 H   0  0  0  0  0  0
  -26.8514  -30.8089   22.0050 H   0  0  0  0  0  0
  -28.1290  -28.9214   21.1911 H   0  0  0  0  0  0
  -26.0194  -25.8553   19.0390 H   0  0  0  0  0  0
  -23.9887  -27.2554   19.0191 H   0  0  0  0  0  0
  -23.7015  -30.5062   19.3695 H   0  0  0  0  0  0
  -22.7659  -29.1473   19.9213 H   0  0  0  0  0  0
  -25.1290  -36.1903   25.0805 H   0  0  0  0  0  0
  -20.9982  -28.3269   24.1432 H   0  0  0  0  0  0
  -20.5694  -26.2298   23.3631 H   0  0  0  0  0  0
  -21.6655  -26.7435   22.1204 H   0  0  0  0  0  0
  -19.6904  -25.6305   21.1262 H   0  0  0  0  0  0
  -19.6704  -27.3219   20.6776 H   0  0  0  0  0  0
  -17.4206  -26.6717   21.4056 H   0  0  0  0  0  0
  -18.0308  -26.0086   22.9043 H   0  0  0  0  0  0
  -19.7940  -30.7289   24.2276 H   0  0  0  0  0  0
  -17.5015  -31.6275   24.5151 H   0  0  0  0  0  0
  -15.5356  -30.2990   23.7634 H   0  0  0  0  0  0
  -15.8705  -28.0818   22.7078 H   0  0  0  0  0  0
  -24.5666  -30.7308   25.7622 H   0  0  0  0  0  0
  -24.8783  -32.3069   26.4726 H   0  0  0  0  0  0
  -25.7736  -30.8992   27.0160 H   0  0  0  0  0  0
  -26.2822  -29.6786   24.1174 H   0  0  0  0  0  0
  -27.3663  -29.7235   25.4872 H   0  0  0  0  0  0
  -27.8805  -30.4181   23.9666 H   0  0  0  0  0  0
  -27.2525  -33.3646   26.2081 H   0  0  0  0  0  0
  -28.3709  -32.7025   25.0258 H   0  0  0  0  0  0
  -28.0677  -31.8482   26.5317 H   0  0  0  0  0  0
  -28.2553  -38.0113   24.7580 H   0  0  0  0  0  0
  -28.1150  -36.2661   24.6147 H   0  0  0  0  0  0
  -27.2341  -37.1245   25.8846 H   0  0  0  0  0  0
  -20.9436  -29.8555   21.6733 H   0  0  0  0  0  0
  -26.0175  -38.2848   24.1455 H   0  0  0  0  0  0
  -28.1836  -26.8213   22.9011 H   0  0  0  0  0  0
  -28.5694  -25.3775   23.9148 H   0  0  0  0  0  0
  -27.1911  -20.0544   20.4474 H   0  0  0  0  0  0
  -27.9248  -19.5469   18.9848 H   0  0  0  0  0  0
  -30.0002  -19.8491   22.1253 H   0  0  0  0  0  0
  -31.2664  -20.5013   21.1548 H   0  0  0  0  0  0
  -27.4547  -17.5489   20.2822 H   0  0  0  0  0  0
  -28.2116  -18.1751   21.6987 H   0  0  0  0  0  0
  -31.3858  -17.9930   21.4214 H   0  0  0  0  0  0
  -31.4364  -18.5119   19.7720 H   0  0  0  0  0  0
  -30.0449  -24.4826   22.2783 H   0  0  0  0  0  0
  -30.1638  -26.1516   21.6281 H   0  0  0  0  0  0
  -26.4644  -25.4146   21.9265 H   0  0  0  0  0  0
  -27.3237  -23.9488   22.4712 H   0  0  0  0  0  0
  -29.7266  -20.8557   19.2809 H   0  0  0  0  0  0
  -29.6537  -17.3061   19.1674 H   0  0  0  0  0  0
  -29.7301  -22.4420   21.5149 H   0  0  0  0  0  0
  -28.0632  -22.0604   21.5386 H   0  0  0  0  0  0
  -29.5203  -23.7554   19.3849 H   0  0  0  0  0  0
  -27.8257  -23.4589   19.3315 H   0  0  0  0  0  0
  -28.8594  -15.6007   21.1546 H   0  0  0  0  0  0
  1 25  1  0  0  0
  1 30  2  0  0  0
  1 83  1  0  0  0
  2  3  1  0  0  0
  2 25  1  0  0  0
  2 84  1  0  0  0
  2 85  1  0  0  0
  3  4  1  0  0  0
  3 86  1  0  0  0
  3 87  1  0  0  0
  4  5  1  0  0  0
  4 88  1  0  0  0
  4 89  1  0  0  0
  5  6  1  0  0  0
  5 26  1  0  0  0
  5 90  1  0  0  0
  6 25  1  0  0  0
  6 91  1  0  0  0
  6 92  1  0  0  0
  7  8  2  0  0  0
  7 26  1  0  0  0
  7 29  1  0  0  0
  8  9  1  0  0  0
  8 22  1  0  0  0
  9 10  1  0  0  0
  9 27  2  0  0  0
 10 11  2  0  0  0
 10 15  1  0  0  0
 11 12  1  0  0  0
 11 93  1  0  0  0
 12 13  2  0  0  0
 12 94  1  0  0  0
 13 14  1  0  0  0
 13 31  1  0  0  0
 14 15  2  0  0  0
 14 95  1  0  0  0
 15 96  1  0  0  0
 16 17  2  0  0  0
 16 21  1  0  0  0
 16 31  1  0  0  0
 17 18  1  0  0  0
 17 97  1  0  0  0
 18 19  2  0  0  0
 18 98  1  0  0  0
 19 20  1  0  0  0
 19 24  1  0  0  0
 20 21  2  0  0  0
 20 99  1  0  0  0
 21 23  1  0  0  0
 22 28  1  0  0  0
 22 32  2  0  0  0
 26 27  1  0  0  0
 28100  1  0  0  0
 28101  1  0  0  0
 29102  1  0  0  0
 29103  1  0  0  0
 33 34  1  0  0  0
 33 66  1  0  0  0
 33 70  2  0  0  0
 34 36  1  0  0  0
 34 59  1  0  0  0
 34104  1  0  0  0
 35 44  2  0  0  0
 35 45  1  0  0  0
 35 68  1  0  0  0
 36 56  1  0  0  0
 36105  1  0  0  0
 37 39  1  0  0  0
 37 47  1  0  0  0
 37 66  1  0  0  0
 37106  1  0  0  0
 38 43  2  0  0  0
 38 46  1  0  0  0
 38 47  1  0  0  0
 39 64  1  0  0  0
 39 67  2  0  0  0
 40 52  1  0  0  0
 40 53  2  0  0  0
 40 58  1  0  0  0
 41107  1  0  0  0
 41108  1  0  0  0
 41109  1  0  0  0
 41 48  1  0  0  0
 42 43  1  0  0  0
 42 66  1  0  0  0
 42110  1  0  0  0
 42111  1  0  0  0
 43 44  1  0  0  0
 44112  1  0  0  0
 45 46  2  0  0  0
 45113  1  0  0  0
 46114  1  0  0  0
 47115  1  0  0  0
 47116  1  0  0  0
 48 56  1  0  0  0
 48 65  1  0  0  0
 48117  1  0  0  0
 49 50  1  0  0  0
 49 53  1  0  0  0
 49 64  1  0  0  0
 49118  1  0  0  0
 50 51  1  0  0  0
 50119  1  0  0  0
 50120  1  0  0  0
 51 52  1  0  0  0
 51121  1  0  0  0
 51122  1  0  0  0
 52123  1  0  0  0
 52124  1  0  0  0
 53 54  1  0  0  0
 54 55  2  0  0  0
 54125  1  0  0  0
 55 57  1  0  0  0
 55126  1  0  0  0
 56 69  2  0  0  0
 57 58  2  0  0  0
 57127  1  0  0  0
 58128  1  0  0  0
 59 60  1  0  0  0
 59 61  1  0  0  0
 59 62  1  0  0  0
 60129  1  0  0  0
 60130  1  0  0  0
 60131  1  0  0  0
 61132  1  0  0  0
 61133  1  0  0  0
 61134  1  0  0  0
 62135  1  0  0  0
 62136  1  0  0  0
 62137  1  0  0  0
 63 65  1  0  0  0
 63138  1  0  0  0
 63139  1  0  0  0
 63140  1  0  0  0
 64141  1  0  0  0
 65142  1  0  0  0
 68 80  1  0  0  0
 71 76  1  0  0  0
 71 77  1  0  0  0
 71143  1  0  0  0
 71144  1  0  0  0
 72 74  1  0  0  0
 72 78  1  0  0  0
 72145  1  0  0  0
 72146  1  0  0  0
 73 75  1  0  0  0
 73 78  1  0  0  0
 73147  1  0  0  0
 73148  1  0  0  0
 74 79  1  0  0  0
 74149  1  0  0  0
 74150  1  0  0  0
 75 79  1  0  0  0
 75151  1  0  0  0
 75152  1  0  0  0
 76 80  1  0  0  0
 76153  1  0  0  0
 76154  1  0  0  0
 77 80  1  0  0  0
 77155  1  0  0  0
 77156  1  0  0  0
 78 81  1  0  0  0
 78157  1  0  0  0
 79 83  1  0  0  0
 79158  1  0  0  0
 80 82  1  0  0  0
 81 82  1  0  0  0
 81159  1  0  0  0
 81160  1  0  0  0
 82161  1  0  0  0
 82162  1  0  0  0
 83163  1  0  0  0
M  ISO  4   1 100  68 101  80 101  83 100
M  END
> <chiral flag>
0

> <version>
0

> <s_m_source_file>
/data/baiqing/PycharmProjects/Reinvent-master-3.2/result/LINK_invent/BTK/process_docking_weight1_custom_sum_contain_oxygen_bond_distance_aromatic_linkinvent_7_9_3/rearranged_h_0125.sdf

> <i_m_source_file_index>
29

> <r_mmod_Potential_Energy-OPLS-2005>
371.804534912109

> <r_mmod_Stretch_Energy-OPLS-2005>
168.063323974609

> <r_mmod_Bend_Energy-OPLS-2005>
243.975173950195

> <r_mmod_Torsional_Energy-OPLS-2005>
310.995391845703

> <r_mmod_Improper_Torsional_Energy-OPLS-2005>
5.78910350799561

> <r_mmod_Van_der_Waal_Energy-OPLS-2005>
117.176528930664

> <r_mmod_Electrostatic_Energy-OPLS-2005>
-381.942962646484

> <r_mmod_Solvation_Energy-OPLS-2005>
-198.751678466797

> <b_mmod_Minimization_Converged-OPLS-2005>
0

> <r_mmod_RMS_Derivative-OPLS-2005>
5.7387523651123

$$$$
29
                    3D
 Structure written by MMmdl.
152161  0  0  1  0            999 V2000
  -30.6404  -14.7502   20.4515 C   0  0  0  0  0  0
  -30.4265  -12.4528   19.4891 C   0  0  0  0  0  0
  -29.5139  -12.5020   18.2443 C   0  0  0  0  0  0
  -28.0420  -12.3203   18.6589 C   0  0  0  0  0  0
  -27.6420  -13.2346   19.8481 C   0  0  2  0  0  0
  -28.6848  -13.1966   20.9885 C   0  0  0  0  0  0
  -25.2521  -13.8207   20.5706 C   0  0  0  0  0  0
  -24.1808  -13.0444   20.9198 C   0  0  0  0  0  0
  -24.6404  -11.6925   20.8741 C   0  0  0  0  0  0
  -23.9082  -10.4296   21.0394 C   0  0  0  0  0  0
  -24.3624   -9.4213   21.9180 C   0  0  0  0  0  0
  -23.6293   -8.2253   22.0751 C   0  0  0  0  0  0
  -22.4276   -8.0284   21.3542 C   0  0  0  0  0  0
  -21.9917   -9.0264   20.4645 C   0  0  0  0  0  0
  -22.7250  -10.2139   20.3052 C   0  0  0  0  0  0
  -21.6853   -6.0734   22.5274 C   0  0  0  0  0  0
  -21.4017   -6.5638   23.8210 C   0  0  0  0  0  0
  -21.3657   -5.6790   24.9168 C   0  0  0  0  0  0
  -21.6043   -4.3055   24.7223 C   0  0  0  0  0  0
  -21.8820   -3.8146   23.4343 C   0  0  0  0  0  0
  -21.9198   -4.6962   22.3400 C   0  0  0  0  0  0
  -22.7835  -13.5230   21.1863 C   0  0  0  0  0  0
  -22.1664   -4.2149   21.0970 F   0  0  0  0  0  0
  -21.5626   -3.4535   25.7737 F   0  0  0  0  0  0
  -29.9888  -13.5339   20.4055 N   0  0  0  0  0  0
  -26.2947  -12.9419   20.3277 N   0  0  0  0  0  0
  -25.9339  -11.6561   20.5759 N   0  0  0  0  0  0
  -22.0483  -12.8214   22.0408 N   0  0  0  0  0  0
  -25.4206  -15.1930   20.4128 N   0  0  0  0  0  0
  -31.8383  -14.7766   20.1484 O   0  0  0  0  0  0
  -21.6637   -6.8881   21.4235 O   0  0  0  0  0  0
  -22.3525  -14.5539   20.6715 O   0  0  0  0  0  0
  -24.6312  -31.8550   23.1977 C   0  0  0  0  0  0
  -25.9144  -32.4754   23.8337 C   0  0  1  0  0  0
  -27.2320  -27.2692   20.1291 C   0  0  0  0  0  0
  -25.5926  -33.8560   24.2259 N   0  0  0  0  0  0
  -23.4297  -30.4726   21.5394 C   0  0  2  0  0  0
  -24.8761  -28.9160   20.1108 C   0  0  0  0  0  0
  -22.7514  -29.4567   22.4906 C   0  0  0  0  0  0
  -18.0284  -28.1374   22.8473 C   0  0  0  0  0  0
  -24.1484  -36.7268   23.2649 C   0  0  0  0  0  0
  -25.9728  -30.7694   21.3762 C   0  0  0  0  0  0
  -26.0459  -29.3925   20.7161 C   0  0  0  0  0  0
  -27.2221  -28.5812   20.7094 C   0  0  0  0  0  0
  -26.0322  -26.8446   19.5147 C   0  0  0  0  0  0
  -24.8733  -27.6502   19.5016 C   0  0  0  0  0  0
  -23.6469  -29.8024   20.1570 C   0  0  0  0  0  0
  -25.4106  -36.3064   24.0349 C   0  0  1  0  0  0
  -20.5899  -28.3681   23.1269 C   0  0  2  0  0  0
  -20.6763  -26.9395   22.5403 C   0  0  0  0  0  0
  -19.5740  -26.6363   21.5200 C   0  0  0  0  0  0
  -18.1916  -26.7917   22.1610 C   0  0  0  0  0  0
  -19.1546  -28.8843   23.2864 C   0  0  0  0  0  0
  -18.9471  -30.1437   23.8889 C   0  0  0  0  0  0
  -17.6476  -30.6585   24.0541 C   0  0  0  0  0  0
  -25.9048  -34.9443   23.5105 C   0  0  0  0  0  0
  -16.5362  -29.9072   23.6335 C   0  0  0  0  0  0
  -16.7274  -28.6486   23.0366 C   0  0  0  0  0  0
  -26.4507  -31.6602   25.0748 C   0  0  0  0  0  0
  -25.3732  -31.3766   26.1466 C   0  0  0  0  0  0
  -27.0391  -30.3032   24.6269 C   0  0  0  0  0  0
  -27.6040  -32.4381   25.7519 C   0  0  0  0  0  0
  -27.5574  -37.1774   24.8467 C   0  0  0  0  0  0
  -21.4218  -29.3022   22.3663 N   0  0  0  0  0  0
  -26.4283  -37.3757   23.9426 N   0  0  0  0  0  0
  -24.6964  -31.0519   22.0939 N   0  0  0  0  0  0
  -23.4208  -28.8100   23.2992 O   0  0  0  0  0  0
  -28.3681  -26.4350   20.2083 O   0  0  0  0  0  0
  -26.5614  -34.8921   22.4674 O   0  0  0  0  0  0
  -23.5462  -32.1370   23.7270 O   0  0  0  0  0  0
  -31.3838  -21.3799   19.5667 C   0  0  0  0  0  0
  -30.5624  -22.5086   19.7797 C   0  0  0  0  0  0
  -28.8250  -21.0253   20.6046 C   0  0  0  0  0  0
  -29.3209  -18.4531   20.6633 C   0  0  0  0  0  0
  -31.7936  -18.9694   19.6797 C   0  0  0  0  0  0
  -30.9434  -20.0730   19.8748 C   0  0  0  0  0  0
  -29.6541  -19.8436   20.3913 C   0  0  0  0  0  0
  -29.2605  -22.3881   20.3129 C   0  0  0  0  0  0
  -30.2407  -17.3510   20.4206 C   0  0  0  0  0  0
  -28.4725  -23.7353   20.6732 C   0  0  0  0  0  0
  -28.4662  -25.0277   19.6912 C   0  0  0  0  0  0
  -31.4573  -17.6853   19.9362 N   0  0  0  0  0  0
  -29.9002  -15.9175   20.6560 N   0  0  0  0  0  0
  -31.4721  -12.5517   19.1924 H   0  0  0  0  0  0
  -30.3506  -11.4839   19.9842 H   0  0  0  0  0  0
  -29.8009  -11.7260   17.5339 H   0  0  0  0  0  0
  -29.6375  -13.4553   17.7266 H   0  0  0  0  0  0
  -27.9117  -11.2746   18.9407 H   0  0  0  0  0  0
  -27.3830  -12.4917   17.8066 H   0  0  0  0  0  0
  -27.6307  -14.2503   19.4521 H   0  0  0  0  0  0
  -28.7179  -12.2123   21.4596 H   0  0  0  0  0  0
  -28.4189  -13.9042   21.7764 H   0  0  0  0  0  0
  -25.2775   -9.5686   22.4755 H   0  0  0  0  0  0
  -24.0003   -7.4642   22.7477 H   0  0  0  0  0  0
  -21.0850   -8.8789   19.8949 H   0  0  0  0  0  0
  -22.3716  -10.9680   19.6161 H   0  0  0  0  0  0
  -21.2007   -7.6148   23.9713 H   0  0  0  0  0  0
  -21.1476   -6.0518   25.9073 H   0  0  0  0  0  0
  -22.0603   -2.7609   23.2844 H   0  0  0  0  0  0
  -22.4120  -11.9879   22.4798 H   0  0  0  0  0  0
  -21.1110  -13.1241   22.2625 H   0  0  0  0  0  0
  -24.6495  -15.8443   20.5140 H   0  0  0  0  0  0
  -26.2671  -15.6356   20.0776 H   0  0  0  0  0  0
  -26.7223  -32.5405   23.1084 H   0  0  0  0  0  0
  -25.0083  -33.9695   25.0412 H   0  0  0  0  0  0
  -22.7254  -31.2947   21.3902 H   0  0  0  0  0  0
  -23.3761  -35.9583   23.3309 H   0  0  0  0  0  0
  -24.3547  -36.8893   22.2057 H   0  0  0  0  0  0
  -23.7221  -37.6464   23.6670 H   0  0  0  0  0  0
  -26.1165  -31.5370   20.6146 H   0  0  0  0  0  0
  -26.8474  -30.8112   22.0145 H   0  0  0  0  0  0
  -28.1223  -28.9433   21.1869 H   0  0  0  0  0  0
  -25.9552  -25.8677   19.0648 H   0  0  0  0  0  0
  -23.9716  -27.2769   19.0348 H   0  0  0  0  0  0
  -23.7682  -30.5779   19.3993 H   0  0  0  0  0  0
  -22.7680  -29.2316   19.8519 H   0  0  0  0  0  0
  -25.1279  -36.1906   25.0838 H   0  0  0  0  0  0
  -20.9966  -28.3251   24.1404 H   0  0  0  0  0  0
  -20.5627  -26.2296   23.3611 H   0  0  0  0  0  0
  -21.6631  -26.7374   22.1212 H   0  0  0  0  0  0
  -19.6906  -25.6264   21.1254 H   0  0  0  0  0  0
  -19.6708  -27.3165   20.6725 H   0  0  0  0  0  0
  -17.4180  -26.6685   21.4009 H   0  0  0  0  0  0
  -18.0286  -26.0055   22.9001 H   0  0  0  0  0  0
  -19.7951  -30.7226   24.2286 H   0  0  0  0  0  0
  -17.5029  -31.6268   24.5124 H   0  0  0  0  0  0
  -15.5358  -30.2954   23.7668 H   0  0  0  0  0  0
  -15.8674  -28.0784   22.7102 H   0  0  0  0  0  0
  -24.5875  -30.7161   25.7788 H   0  0  0  0  0  0
  -24.8966  -32.2949   26.4909 H   0  0  0  0  0  0
  -25.8028  -30.8916   27.0242 H   0  0  0  0  0  0
  -26.3011  -29.6743   24.1282 H   0  0  0  0  0  0
  -27.4056  -29.7327   25.4810 H   0  0  0  0  0  0
  -27.8878  -30.4309   23.9551 H   0  0  0  0  0  0
  -27.2611  -33.3669   26.2086 H   0  0  0  0  0  0
  -28.3830  -32.6979   25.0343 H   0  0  0  0  0  0
  -28.0735  -31.8548   26.5438 H   0  0  0  0  0  0
  -28.2573  -38.0081   24.7503 H   0  0  0  0  0  0
  -28.1086  -36.2612   24.6299 H   0  0  0  0  0  0
  -27.2294  -37.1422   25.8869 H   0  0  0  0  0  0
  -20.9407  -29.8778   21.6910 H   0  0  0  0  0  0
  -26.0180  -38.2842   24.1427 H   0  0  0  0  0  0
  -32.3814  -21.5312   19.1758 H   0  0  0  0  0  0
  -30.9690  -23.4864   19.5584 H   0  0  0  0  0  0
  -27.8421  -20.8818   21.0299 H   0  0  0  0  0  0
  -28.3395  -18.2417   21.0645 H   0  0  0  0  0  0
  -32.7939  -19.1198   19.3011 H   0  0  0  0  0  0
  -28.9027  -24.0691   21.6175 H   0  0  0  0  0  0
  -27.4412  -23.4780   20.9125 H   0  0  0  0  0  0
  -27.7840  -24.8519   18.8619 H   0  0  0  0  0  0
  -29.4370  -25.0439   19.1993 H   0  0  0  0  0  0
  -28.9486  -15.7458   20.9327 H   0  0  0  0  0  0
  1 25  1  0  0  0
  1 30  2  0  0  0
  1 83  1  0  0  0
  2  3  1  0  0  0
  2 25  1  0  0  0
  2 84  1  0  0  0
  2 85  1  0  0  0
  3  4  1  0  0  0
  3 86  1  0  0  0
  3 87  1  0  0  0
  4  5  1  0  0  0
  4 88  1  0  0  0
  4 89  1  0  0  0
  5  6  1  0  0  0
  5 26  1  0  0  0
  5 90  1  0  0  0
  6 25  1  0  0  0
  6 91  1  0  0  0
  6 92  1  0  0  0
  7  8  2  0  0  0
  7 26  1  0  0  0
  7 29  1  0  0  0
  8  9  1  0  0  0
  8 22  1  0  0  0
  9 10  1  0  0  0
  9 27  2  0  0  0
 10 11  2  0  0  0
 10 15  1  0  0  0
 11 12  1  0  0  0
 11 93  1  0  0  0
 12 13  2  0  0  0
 12 94  1  0  0  0
 13 14  1  0  0  0
 13 31  1  0  0  0
 14 15  2  0  0  0
 14 95  1  0  0  0
 15 96  1  0  0  0
 16 17  2  0  0  0
 16 21  1  0  0  0
 16 31  1  0  0  0
 17 18  1  0  0  0
 17 97  1  0  0  0
 18 19  2  0  0  0
 18 98  1  0  0  0
 19 20  1  0  0  0
 19 24  1  0  0  0
 20 21  2  0  0  0
 20 99  1  0  0  0
 21 23  1  0  0  0
 22 28  1  0  0  0
 22 32  2  0  0  0
 26 27  1  0  0  0
 28100  1  0  0  0
 28101  1  0  0  0
 29102  1  0  0  0
 29103  1  0  0  0
 33 34  1  0  0  0
 33 66  1  0  0  0
 33 70  2  0  0  0
 34 36  1  0  0  0
 34 59  1  0  0  0
 34104  1  0  0  0
 35 44  2  0  0  0
 35 45  1  0  0  0
 35 68  1  0  0  0
 36 56  1  0  0  0
 36105  1  0  0  0
 37 39  1  0  0  0
 37 47  1  0  0  0
 37 66  1  0  0  0
 37106  1  0  0  0
 38 43  2  0  0  0
 38 46  1  0  0  0
 38 47  1  0  0  0
 39 64  1  0  0  0
 39 67  2  0  0  0
 40 52  1  0  0  0
 40 53  2  0  0  0
 40 58  1  0  0  0
 41107  1  0  0  0
 41108  1  0  0  0
 41109  1  0  0  0
 41 48  1  0  0  0
 42 43  1  0  0  0
 42 66  1  0  0  0
 42110  1  0  0  0
 42111  1  0  0  0
 43 44  1  0  0  0
 44112  1  0  0  0
 45 46  2  0  0  0
 45113  1  0  0  0
 46114  1  0  0  0
 47115  1  0  0  0
 47116  1  0  0  0
 48 56  1  0  0  0
 48 65  1  0  0  0
 48117  1  0  0  0
 49 50  1  0  0  0
 49 53  1  0  0  0
 49 64  1  0  0  0
 49118  1  0  0  0
 50 51  1  0  0  0
 50119  1  0  0  0
 50120  1  0  0  0
 51 52  1  0  0  0
 51121  1  0  0  0
 51122  1  0  0  0
 52123  1  0  0  0
 52124  1  0  0  0
 53 54  1  0  0  0
 54 55  2  0  0  0
 54125  1  0  0  0
 55 57  1  0  0  0
 55126  1  0  0  0
 56 69  2  0  0  0
 57 58  2  0  0  0
 57127  1  0  0  0
 58128  1  0  0  0
 59 60  1  0  0  0
 59 61  1  0  0  0
 59 62  1  0  0  0
 60129  1  0  0  0
 60130  1  0  0  0
 60131  1  0  0  0
 61132  1  0  0  0
 61133  1  0  0  0
 61134  1  0  0  0
 62135  1  0  0  0
 62136  1  0  0  0
 62137  1  0  0  0
 63 65  1  0  0  0
 63138  1  0  0  0
 63139  1  0  0  0
 63140  1  0  0  0
 64141  1  0  0  0
 65142  1  0  0  0
 68 81  1  0  0  0
 71 72  2  0  0  0
 71 76  1  0  0  0
 71143  1  0  0  0
 72 78  1  0  0  0
 72144  1  0  0  0
 73 77  1  0  0  0
 73 78  2  0  0  0
 73145  1  0  0  0
 74 77  2  0  0  0
 74 79  1  0  0  0
 74146  1  0  0  0
 75 76  2  0  0  0
 75 82  1  0  0  0
 75147  1  0  0  0
 76 77  1  0  0  0
 78 80  1  0  0  0
 79 82  2  0  0  0
 79 83  1  0  0  0
 80 81  1  0  0  0
 80148  1  0  0  0
 80149  1  0  0  0
 81150  1  0  0  0
 81151  1  0  0  0
 83152  1  0  0  0
M  ISO  4   1 100  68 101  81 101  83 100
M  END
> <chiral flag>
0

> <version>
0

> <s_m_source_file>
/data/baiqing/PycharmProjects/Reinvent-master-3.2/result/LINK_invent/BTK/process_docking_weight1_custom_sum_contain_oxygen_bond_distance_aromatic_linkinvent_7_9_3/rearranged_h_0125.sdf

> <i_m_source_file_index>
30

> <r_mmod_Potential_Energy-OPLS-2005>
-8.67910575866699

> <r_mmod_Stretch_Energy-OPLS-2005>
122.923316955566

> <r_mmod_Bend_Energy-OPLS-2005>
175.343994140625

> <r_mmod_Torsional_Energy-OPLS-2005>
200.627838134766

> <r_mmod_Improper_Torsional_Energy-OPLS-2005>
4.46152019500732

> <r_mmod_Van_der_Waal_Energy-OPLS-2005>
157.998275756836

> <r_mmod_Electrostatic_Energy-OPLS-2005>
-508.472900390625

> <r_mmod_Solvation_Energy-OPLS-2005>
-243.981155395508

> <b_mmod_Minimization_Converged-OPLS-2005>
0

> <r_mmod_RMS_Derivative-OPLS-2005>
2.33084154129028

$$$$
30
                    3D
 Structure written by MMmdl.
172181  0  0  1  0            999 V2000
  -30.7365  -14.3970   20.6064 C   0  0  0  0  0  0
  -30.4265  -12.2670   19.4202 C   0  0  0  0  0  0
  -29.4975  -12.4926   18.2081 C   0  0  0  0  0  0
  -28.0194  -12.3489   18.6166 C   0  0  0  0  0  0
  -27.6668  -13.1802   19.8755 C   0  0  2  0  0  0
  -28.7062  -12.9526   21.0027 C   0  0  0  0  0  0
  -25.2641  -13.8092   20.5681 C   0  0  0  0  0  0
  -24.1867  -13.0429   20.9197 C   0  0  0  0  0  0
  -24.6377  -11.6883   20.8773 C   0  0  0  0  0  0
  -23.9034  -10.4285   21.0440 C   0  0  0  0  0  0
  -24.3583   -9.4201   21.9217 C   0  0  0  0  0  0
  -23.6255   -8.2238   22.0773 C   0  0  0  0  0  0
  -22.4246   -8.0283   21.3551 C   0  0  0  0  0  0
  -21.9874   -9.0260   20.4659 C   0  0  0  0  0  0
  -22.7203  -10.2143   20.3083 C   0  0  0  0  0  0
  -21.6839   -6.0726   22.5267 C   0  0  0  0  0  0
  -21.3995   -6.5626   23.8212 C   0  0  0  0  0  0
  -21.3659   -5.6782   24.9178 C   0  0  0  0  0  0
  -21.6041   -4.3038   24.7224 C   0  0  0  0  0  0
  -21.8822   -3.8141   23.4342 C   0  0  0  0  0  0
  -21.9179   -4.6956   22.3399 C   0  0  0  0  0  0
  -22.7887  -13.5285   21.1834 C   0  0  0  0  0  0
  -22.1676   -4.2153   21.0980 F   0  0  0  0  0  0
  -21.5622   -3.4527   25.7735 F   0  0  0  0  0  0
  -30.0582  -13.2276   20.4722 N   0  0  0  0  0  0
  -26.3038  -12.9196   20.3337 N   0  0  0  0  0  0
  -25.9280  -11.6399   20.5754 N   0  0  0  0  0  0
  -22.0463  -12.8335   22.0378 N   0  0  0  0  0  0
  -25.4422  -15.1803   20.4089 N   0  0  0  0  0  0
  -31.8167  -14.6317   20.0579 O   0  0  0  0  0  0
  -21.6619   -6.8873   21.4241 O   0  0  0  0  0  0
  -22.3619  -14.5584   20.6642 O   0  0  0  0  0  0
  -24.6059  -31.8729   23.2130 C   0  0  0  0  0  0
  -25.8981  -32.4856   23.8419 C   0  0  1  0  0  0
  -27.2500  -27.4834   20.0678 C   0  0  0  0  0  0
  -25.5854  -33.8654   24.2351 N   0  0  0  0  0  0
  -23.3919  -30.4885   21.5578 C   0  0  2  0  0  0
  -24.8397  -28.9620   20.1213 C   0  0  0  0  0  0
  -22.7386  -29.4609   22.5083 C   0  0  0  0  0  0
  -18.0246  -28.1350   22.8507 C   0  0  0  0  0  0
  -24.1484  -36.7317   23.2640 C   0  0  0  0  0  0
  -25.9158  -30.8501   21.3626 C   0  0  0  0  0  0
  -25.9956  -29.4853   20.7110 C   0  0  0  0  0  0
  -27.1968  -28.7486   20.6887 C   0  0  0  0  0  0
  -26.0660  -26.9550   19.5029 C   0  0  0  0  0  0
  -24.8653  -27.6897   19.5248 C   0  0  0  0  0  0
  -23.5970  -29.8188   20.1726 C   0  0  0  0  0  0
  -25.4108  -36.3128   24.0335 C   0  0  1  0  0  0
  -20.5831  -28.3588   23.1407 C   0  0  2  0  0  0
  -20.6750  -26.9339   22.5467 C   0  0  0  0  0  0
  -19.5731  -26.6360   21.5252 C   0  0  0  0  0  0
  -18.1891  -26.7905   22.1633 C   0  0  0  0  0  0
  -19.1497  -28.8797   23.2936 C   0  0  0  0  0  0
  -18.9430  -30.1414   23.8923 C   0  0  0  0  0  0
  -17.6433  -30.6567   24.0551 C   0  0  0  0  0  0
  -25.9018  -34.9489   23.5143 C   0  0  0  0  0  0
  -16.5320  -29.9065   23.6316 C   0  0  0  0  0  0
  -16.7237  -28.6474   23.0360 C   0  0  0  0  0  0
  -26.4448  -31.6617   25.0717 C   0  0  0  0  0  0
  -25.3727  -31.3717   26.1473 C   0  0  0  0  0  0
  -27.0280  -30.3063   24.6070 C   0  0  0  0  0  0
  -27.6044  -32.4324   25.7463 C   0  0  0  0  0  0
  -27.5584  -37.1805   24.8458 C   0  0  0  0  0  0
  -21.4119  -29.2956   22.3843 N   0  0  0  0  0  0
  -26.4303  -37.3801   23.9391 N   0  0  0  0  0  0
  -24.6553  -31.0843   22.1027 N   0  0  0  0  0  0
  -23.4199  -28.8177   23.3112 O   0  0  0  0  0  0
  -28.4708  -26.8434   20.0446 O   0  0  0  0  0  0
  -26.5595  -34.8924   22.4711 O   0  0  0  0  0  0
  -23.5259  -32.1477   23.7529 O   0  0  0  0  0  0
  -28.5887  -22.6407   16.8329 C   0  0  0  0  0  0
  -28.4709  -21.2956   17.2243 C   0  0  0  0  0  0
  -26.5783  -23.1726   18.0968 C   0  0  0  0  0  0
  -27.6471  -23.5880   17.2776 C   0  0  0  0  0  0
  -27.4238  -20.8821   18.0795 C   0  0  0  0  0  0
  -26.4737  -21.8371   18.5259 C   0  0  0  0  0  0
  -28.8245  -17.5471   21.4724 C   0  0  0  0  0  0
  -30.3106  -17.2623   19.5250 C   0  0  0  0  0  0
  -27.8248  -18.3780   20.6364 C   0  0  0  0  0  0
  -29.3370  -18.0461   18.6282 C   0  0  0  0  0  0
  -29.4710  -16.5013   20.5609 C   0  0  1  0  0  0
  -25.3362  -21.4768   19.4704 C   0  0  0  0  0  0
  -27.8039  -25.0559   16.9232 C   0  0  0  0  0  0
  -27.3109  -19.4084   18.4420 C   0  0  0  0  0  0
  -28.8252  -25.7797   17.8244 C   0  0  0  0  0  0
  -28.6316  -25.6082   19.3534 C   0  0  0  0  0  0
  -30.0680  -15.3569   21.2602 N   0  0  0  0  0  0
  -28.3875  -18.9399   19.3627 N   0  3  1  0  0  0
  -31.4703  -12.3600   19.1149 H   0  0  0  0  0  0
  -30.3194  -11.2495   19.8013 H   0  0  0  0  0  0
  -29.7313  -11.7784   17.4165 H   0  0  0  0  0  0
  -29.6691  -13.4841   17.7868 H   0  0  0  0  0  0
  -27.8291  -11.2907   18.7993 H   0  0  0  0  0  0
  -27.3743  -12.6322   17.7836 H   0  0  0  0  0  0
  -27.7040  -14.2180   19.5633 H   0  0  0  0  0  0
  -28.6628  -11.9206   21.3518 H   0  0  0  0  0  0
  -28.4534  -13.5557   21.8757 H   0  0  0  0  0  0
  -25.2737   -9.5669   22.4786 H   0  0  0  0  0  0
  -23.9936   -7.4616   22.7487 H   0  0  0  0  0  0
  -21.0799   -8.8788   19.8965 H   0  0  0  0  0  0
  -22.3666  -10.9681   19.6190 H   0  0  0  0  0  0
  -21.1996   -7.6128   23.9721 H   0  0  0  0  0  0
  -21.1485   -6.0510   25.9084 H   0  0  0  0  0  0
  -22.0603   -2.7598   23.2841 H   0  0  0  0  0  0
  -22.3998  -11.9989   22.4798 H   0  0  0  0  0  0
  -21.1095  -13.1447   22.2544 H   0  0  0  0  0  0
  -24.6695  -15.8296   20.5056 H   0  0  0  0  0  0
  -26.2813  -15.6040   20.0451 H   0  0  0  0  0  0
  -26.7051  -32.5605   23.1190 H   0  0  0  0  0  0
  -24.9968  -33.9847   25.0470 H   0  0  0  0  0  0
  -22.6705  -31.2967   21.4215 H   0  0  0  0  0  0
  -23.3750  -35.9648   23.3323 H   0  0  0  0  0  0
  -24.3581  -36.8911   22.2052 H   0  0  0  0  0  0
  -23.7232  -37.6519   23.6653 H   0  0  0  0  0  0
  -26.0218  -31.6231   20.6000 H   0  0  0  0  0  0
  -26.8068  -30.9054   21.9765 H   0  0  0  0  0  0
  -28.0945  -29.1572   21.1306 H   0  0  0  0  0  0
  -26.0497  -25.9855   19.0372 H   0  0  0  0  0  0
  -23.9703  -27.2744   19.0823 H   0  0  0  0  0  0
  -23.6917  -30.5937   19.4104 H   0  0  0  0  0  0
  -22.7267  -29.2256   19.8848 H   0  0  0  0  0  0
  -25.1284  -36.2001   25.0831 H   0  0  0  0  0  0
  -20.9866  -28.3116   24.1551 H   0  0  0  0  0  0
  -20.5691  -26.2158   23.3617 H   0  0  0  0  0  0
  -21.6620  -26.7420   22.1243 H   0  0  0  0  0  0
  -19.6880  -25.6287   21.1240 H   0  0  0  0  0  0
  -19.6687  -27.3216   20.6823 H   0  0  0  0  0  0
  -17.4180  -26.6674   21.4009 H   0  0  0  0  0  0
  -18.0228  -26.0047   22.9019 H   0  0  0  0  0  0
  -19.7910  -30.7222   24.2299 H   0  0  0  0  0  0
  -17.4984  -31.6252   24.5141 H   0  0  0  0  0  0
  -15.5315  -30.2972   23.7622 H   0  0  0  0  0  0
  -15.8637  -28.0784   22.7086 H   0  0  0  0  0  0
  -24.5885  -30.7082   25.7800 H   0  0  0  0  0  0
  -24.8945  -32.2888   26.4933 H   0  0  0  0  0  0
  -25.8089  -30.8867   27.0217 H   0  0  0  0  0  0
  -26.2827  -29.6812   24.1142 H   0  0  0  0  0  0
  -27.4075  -29.7289   25.4509 H   0  0  0  0  0  0
  -27.8645  -30.4372   23.9200 H   0  0  0  0  0  0
  -27.2685  -33.3605   26.2097 H   0  0  0  0  0  0
  -28.3833  -32.6916   25.0278 H   0  0  0  0  0  0
  -28.0750  -31.8418   26.5329 H   0  0  0  0  0  0
  -28.2609  -38.0096   24.7517 H   0  0  0  0  0  0
  -28.1075  -36.2630   24.6287 H   0  0  0  0  0  0
  -27.2298  -37.1454   25.8860 H   0  0  0  0  0  0
  -20.9253  -29.8695   21.7104 H   0  0  0  0  0  0
  -26.0192  -38.2871   24.1423 H   0  0  0  0  0  0
  -29.4103  -22.9402   16.1932 H   0  0  0  0  0  0
  -29.1971  -20.5831   16.8579 H   0  0  0  0  0  0
  -25.8446  -23.8947   18.4245 H   0  0  0  0  0  0
  -28.2934  -17.0661   22.2968 H   0  0  0  0  0  0
  -29.5840  -18.1864   21.9257 H   0  0  0  0  0  0
  -31.0421  -17.9155   19.9990 H   0  0  0  0  0  0
  -30.8700  -16.5919   18.8720 H   0  0  0  0  0  0
  -27.4188  -19.1889   21.2435 H   0  0  0  0  0  0
  -26.9809  -17.7279   20.4061 H   0  0  0  0  0  0
  -28.7665  -17.3119   18.0550 H   0  0  0  0  0  0
  -29.8996  -18.6282   17.8997 H   0  0  0  0  0  0
  -28.6555  -16.0372   20.0099 H   0  0  0  0  0  0
  -25.7300  -21.0689   20.4011 H   0  0  0  0  0  0
  -24.6558  -20.7507   19.0231 H   0  0  0  0  0  0
  -24.7452  -22.3560   19.7279 H   0  0  0  0  0  0
  -26.8354  -25.5506   16.9849 H   0  0  0  0  0  0
  -28.1089  -25.1386   15.8784 H   0  0  0  0  0  0
  -27.3240  -18.8548   17.5027 H   0  0  0  0  0  0
  -26.3278  -19.1892   18.8528 H   0  0  0  0  0  0
  -28.8572  -26.8361   17.5581 H   0  0  0  0  0  0
  -29.8145  -25.3928   17.5738 H   0  0  0  0  0  0
  -27.8567  -24.8987   19.6336 H   0  0  0  0  0  0
  -29.5461  -25.1698   19.7529 H   0  0  0  0  0  0
  -29.4442  -14.9550   21.9454 H   0  0  0  0  0  0
  -28.9098  -19.7650   19.6228 H   0  0  0  0  0  0
  1 25  1  0  0  0
  1 30  2  0  0  0
  1 87  1  0  0  0
  2  3  1  0  0  0
  2 25  1  0  0  0
  2 89  1  0  0  0
  2 90  1  0  0  0
  3  4  1  0  0  0
  3 91  1  0  0  0
  3 92  1  0  0  0
  4  5  1  0  0  0
  4 93  1  0  0  0
  4 94  1  0  0  0
  5  6  1  0  0  0
  5 26  1  0  0  0
  5 95  1  0  0  0
  6 25  1  0  0  0
  6 96  1  0  0  0
  6 97  1  0  0  0
  7  8  2  0  0  0
  7 26  1  0  0  0
  7 29  1  0  0  0
  8  9  1  0  0  0
  8 22  1  0  0  0
  9 10  1  0  0  0
  9 27  2  0  0  0
 10 11  2  0  0  0
 10 15  1  0  0  0
 11 12  1  0  0  0
 11 98  1  0  0  0
 12 13  2  0  0  0
 12 99  1  0  0  0
 13 14  1  0  0  0
 13 31  1  0  0  0
 14 15  2  0  0  0
 14100  1  0  0  0
 15101  1  0  0  0
 16 17  2  0  0  0
 16 21  1  0  0  0
 16 31  1  0  0  0
 17 18  1  0  0  0
 17102  1  0  0  0
 18 19  2  0  0  0
 18103  1  0  0  0
 19 20  1  0  0  0
 19 24  1  0  0  0
 20 21  2  0  0  0
 20104  1  0  0  0
 21 23  1  0  0  0
 22 28  1  0  0  0
 22 32  2  0  0  0
 26 27  1  0  0  0
 28105  1  0  0  0
 28106  1  0  0  0
 29107  1  0  0  0
 29108  1  0  0  0
 33 34  1  0  0  0
 33 66  1  0  0  0
 33 70  2  0  0  0
 34 36  1  0  0  0
 34 59  1  0  0  0
 34109  1  0  0  0
 35 44  2  0  0  0
 35 45  1  0  0  0
 35 68  1  0  0  0
 36 56  1  0  0  0
 36110  1  0  0  0
 37 39  1  0  0  0
 37 47  1  0  0  0
 37 66  1  0  0  0
 37111  1  0  0  0
 38 43  2  0  0  0
 38 46  1  0  0  0
 38 47  1  0  0  0
 39 64  1  0  0  0
 39 67  2  0  0  0
 40 52  1  0  0  0
 40 53  2  0  0  0
 40 58  1  0  0  0
 41112  1  0  0  0
 41113  1  0  0  0
 41114  1  0  0  0
 41 48  1  0  0  0
 42 43  1  0  0  0
 42 66  1  0  0  0
 42115  1  0  0  0
 42116  1  0  0  0
 43 44  1  0  0  0
 44117  1  0  0  0
 45 46  2  0  0  0
 45118  1  0  0  0
 46119  1  0  0  0
 47120  1  0  0  0
 47121  1  0  0  0
 48 56  1  0  0  0
 48 65  1  0  0  0
 48122  1  0  0  0
 49 50  1  0  0  0
 49 53  1  0  0  0
 49 64  1  0  0  0
 49123  1  0  0  0
 50 51  1  0  0  0
 50124  1  0  0  0
 50125  1  0  0  0
 51 52  1  0  0  0
 51126  1  0  0  0
 51127  1  0  0  0
 52128  1  0  0  0
 52129  1  0  0  0
 53 54  1  0  0  0
 54 55  2  0  0  0
 54130  1  0  0  0
 55 57  1  0  0  0
 55131  1  0  0  0
 56 69  2  0  0  0
 57 58  2  0  0  0
 57132  1  0  0  0
 58133  1  0  0  0
 59 60  1  0  0  0
 59 61  1  0  0  0
 59 62  1  0  0  0
 60134  1  0  0  0
 60135  1  0  0  0
 60136  1  0  0  0
 61137  1  0  0  0
 61138  1  0  0  0
 61139  1  0  0  0
 62140  1  0  0  0
 62141  1  0  0  0
 62142  1  0  0  0
 63 65  1  0  0  0
 63143  1  0  0  0
 63144  1  0  0  0
 63145  1  0  0  0
 64146  1  0  0  0
 65147  1  0  0  0
 68 86  1  0  0  0
 71 72  2  0  0  0
 71 74  1  0  0  0
 71148  1  0  0  0
 72 75  1  0  0  0
 72149  1  0  0  0
 73 74  2  0  0  0
 73 76  1  0  0  0
 73150  1  0  0  0
 74 83  1  0  0  0
 75 76  2  0  0  0
 75 84  1  0  0  0
 76 82  1  0  0  0
 77 79  1  0  0  0
 77 81  1  0  0  0
 77151  1  0  0  0
 77152  1  0  0  0
 78 80  1  0  0  0
 78 81  1  0  0  0
 78153  1  0  0  0
 78154  1  0  0  0
 79 88  1  0  0  0
 79155  1  0  0  0
 79156  1  0  0  0
 80 88  1  0  0  0
 80157  1  0  0  0
 80158  1  0  0  0
 81 87  1  0  0  0
 81159  1  0  0  0
 82160  1  0  0  0
 82161  1  0  0  0
 82162  1  0  0  0
 83 85  1  0  0  0
 83163  1  0  0  0
 83164  1  0  0  0
 84165  1  0  0  0
 84166  1  0  0  0
 84 88  1  0  0  0
 85 86  1  0  0  0
 85167  1  0  0  0
 85168  1  0  0  0
 86169  1  0  0  0
 86170  1  0  0  0
 87171  1  0  0  0
 88172  1  0  0  0
M  CHG  1  88   1
M  ISO  4   1 100  68 101  86 101  87 100
M  END
> <chiral flag>
0

> <version>
0

> <s_m_source_file>
/data/baiqing/PycharmProjects/Reinvent-master-3.2/result/LINK_invent/BTK/process_docking_weight1_custom_sum_contain_oxygen_bond_distance_aromatic_linkinvent_7_9_3/rearranged_h_0125.sdf

> <i_m_source_file_index>
31

> <r_mmod_Potential_Energy-OPLS-2005>
-80.320182800293

> <r_mmod_Stretch_Energy-OPLS-2005>
36.4736061096191

> <r_mmod_Bend_Energy-OPLS-2005>
128.600341796875

> <r_mmod_Torsional_Energy-OPLS-2005>
278.509063720703

> <r_mmod_Improper_Torsional_Energy-OPLS-2005>
8.00021553039551

> <r_mmod_Van_der_Waal_Energy-OPLS-2005>
163.305419921875

> <r_mmod_Electrostatic_Energy-OPLS-2005>
-250.202499389648

> <r_mmod_Solvation_Energy-OPLS-2005>
-454.520050048828

> <b_mmod_Minimization_Converged-OPLS-2005>
0

> <r_mmod_RMS_Derivative-OPLS-2005>
3.18241858482361

$$$$
31
                    3D
 Structure written by MMmdl.
158166  0  0  1  0            999 V2000
  -30.6534  -14.6205   20.5327 C   0  0  0  0  0  0
  -30.4297  -12.3895   19.4455 C   0  0  0  0  0  0
  -29.5027  -12.5017   18.2169 C   0  0  0  0  0  0
  -28.0259  -12.3418   18.6307 C   0  0  0  0  0  0
  -27.6479  -13.2188   19.8546 C   0  0  2  0  0  0
  -28.6926  -13.0837   20.9835 C   0  0  0  0  0  0
  -25.2542  -13.8177   20.5697 C   0  0  0  0  0  0
  -24.1820  -13.0441   20.9219 C   0  0  0  0  0  0
  -24.6385  -11.6914   20.8737 C   0  0  0  0  0  0
  -23.9054  -10.4298   21.0406 C   0  0  0  0  0  0
  -24.3611   -9.4214   21.9177 C   0  0  0  0  0  0
  -23.6296   -8.2245   22.0745 C   0  0  0  0  0  0
  -22.4277   -8.0283   21.3546 C   0  0  0  0  0  0
  -21.9910   -9.0254   20.4646 C   0  0  0  0  0  0
  -22.7232  -10.2139   20.3056 C   0  0  0  0  0  0
  -21.6853   -6.0738   22.5285 C   0  0  0  0  0  0
  -21.4012   -6.5638   23.8219 C   0  0  0  0  0  0
  -21.3660   -5.6787   24.9180 C   0  0  0  0  0  0
  -21.6053   -4.3052   24.7223 C   0  0  0  0  0  0
  -21.8816   -3.8144   23.4338 C   0  0  0  0  0  0
  -21.9192   -4.6967   22.3399 C   0  0  0  0  0  0
  -22.7843  -13.5234   21.1875 C   0  0  0  0  0  0
  -22.1661   -4.2158   21.0974 F   0  0  0  0  0  0
  -21.5630   -3.4535   25.7732 F   0  0  0  0  0  0
  -30.0044  -13.4200   20.4121 N   0  0  0  0  0  0
  -26.2960  -12.9359   20.3285 N   0  0  0  0  0  0
  -25.9307  -11.6513   20.5726 N   0  0  0  0  0  0
  -22.0475  -12.8232   22.0424 N   0  0  0  0  0  0
  -25.4226  -15.1906   20.4118 N   0  0  0  0  0  0
  -31.8215  -14.7489   20.1581 O   0  0  0  0  0  0
  -21.6636   -6.8885   21.4250 O   0  0  0  0  0  0
  -22.3531  -14.5543   20.6719 O   0  0  0  0  0  0
  -24.6254  -31.8646   23.2057 C   0  0  0  0  0  0
  -25.9110  -32.4815   23.8376 C   0  0  1  0  0  0
  -27.2197  -27.3224   20.1046 C   0  0  0  0  0  0
  -25.5937  -33.8611   24.2316 N   0  0  0  0  0  0
  -23.4177  -30.4920   21.5499 C   0  0  2  0  0  0
  -24.8607  -28.9534   20.1093 C   0  0  0  0  0  0
  -22.7473  -29.4660   22.4946 C   0  0  0  0  0  0
  -18.0294  -28.1414   22.8496 C   0  0  0  0  0  0
  -24.1486  -36.7282   23.2640 C   0  0  0  0  0  0
  -25.9597  -30.7942   21.3786 C   0  0  0  0  0  0
  -26.0293  -29.4226   20.7193 C   0  0  0  0  0  0
  -27.2053  -28.6154   20.7155 C   0  0  0  0  0  0
  -26.0218  -26.9129   19.4670 C   0  0  0  0  0  0
  -24.8590  -27.7039   19.4775 C   0  0  0  0  0  0
  -23.6312  -29.8349   20.1619 C   0  0  0  0  0  0
  -25.4111  -36.3110   24.0343 C   0  0  1  0  0  0
  -20.5895  -28.3711   23.1292 C   0  0  2  0  0  0
  -20.6792  -26.9436   22.5415 C   0  0  0  0  0  0
  -19.5757  -26.6414   21.5226 C   0  0  0  0  0  0
  -18.1938  -26.7959   22.1635 C   0  0  0  0  0  0
  -19.1548  -28.8874   23.2897 C   0  0  0  0  0  0
  -18.9467  -30.1473   23.8912 C   0  0  0  0  0  0
  -17.6466  -30.6611   24.0570 C   0  0  0  0  0  0
  -25.9048  -34.9475   23.5122 C   0  0  0  0  0  0
  -16.5361  -29.9109   23.6336 C   0  0  0  0  0  0
  -16.7279  -28.6532   23.0357 C   0  0  0  0  0  0
  -26.4489  -31.6623   25.0741 C   0  0  0  0  0  0
  -25.3724  -31.3746   26.1465 C   0  0  0  0  0  0
  -27.0324  -30.3060   24.6166 C   0  0  0  0  0  0
  -27.6074  -32.4337   25.7495 C   0  0  0  0  0  0
  -27.5579  -37.1798   24.8473 C   0  0  0  0  0  0
  -21.4197  -29.3058   22.3676 N   0  0  0  0  0  0
  -26.4295  -37.3803   23.9417 N   0  0  0  0  0  0
  -24.6865  -31.0663   22.1018 N   0  0  0  0  0  0
  -23.4204  -28.8203   23.3026 O   0  0  0  0  0  0
  -28.3609  -26.5006   20.1787 O   0  0  0  0  0  0
  -26.5604  -34.8931   22.4682 O   0  0  0  0  0  0
  -23.5425  -32.1441   23.7403 O   0  0  0  0  0  0
  -28.7454  -19.1050   21.5779 C   0  0  0  0  0  0
  -28.4267  -20.4415   21.2122 C   0  0  0  0  0  0
  -29.8488  -18.4181   20.9984 C   0  0  0  0  0  0
  -29.2096  -21.1241   20.2581 C   0  0  0  0  0  0
  -30.5720  -19.1858   20.0375 C   0  0  0  0  0  0
  -31.7863  -18.6280   19.3228 C   0  0  0  0  0  0
  -31.7273  -17.0261   22.1597 C   0  0  0  0  0  0
  -28.7938  -22.5110   19.6522 C   0  0  0  0  0  0
  -28.9069  -23.8866   20.4433 C   0  0  0  0  0  0
  -28.4108  -25.1396   19.5954 C   0  0  0  0  0  0
  -30.2957  -17.0103   21.5828 C   0  0  2  0  0  0
  -30.2615  -20.4754   19.6927 N   0  0  0  0  0  0
  -29.9078  -15.6905   20.9583 N   0  0  0  0  0  0
  -31.4727  -12.5064   19.1439 H   0  0  0  0  0  0
  -30.3572  -11.3977   19.8946 H   0  0  0  0  0  0
  -29.7667  -11.7447   17.4777 H   0  0  0  0  0  0
  -29.6473  -13.4679   17.7306 H   0  0  0  0  0  0
  -27.8664  -11.2897   18.8688 H   0  0  0  0  0  0
  -27.3709  -12.5642   17.7876 H   0  0  0  0  0  0
  -27.6618  -14.2513   19.5058 H   0  0  0  0  0  0
  -28.7029  -12.0665   21.3778 H   0  0  0  0  0  0
  -28.4370  -13.7253   21.8279 H   0  0  0  0  0  0
  -25.2753   -9.5697   22.4746 H   0  0  0  0  0  0
  -24.0016   -7.4633   22.7451 H   0  0  0  0  0  0
  -21.0846   -8.8769   19.8947 H   0  0  0  0  0  0
  -22.3684  -10.9676   19.6162 H   0  0  0  0  0  0
  -21.2000   -7.6143   23.9732 H   0  0  0  0  0  0
  -21.1491   -6.0508   25.9088 H   0  0  0  0  0  0
  -22.0593   -2.7606   23.2830 H   0  0  0  0  0  0
  -22.4077  -11.9902   22.4836 H   0  0  0  0  0  0
  -21.1093  -13.1272   22.2606 H   0  0  0  0  0  0
  -24.6507  -15.8391   20.5263 H   0  0  0  0  0  0
  -26.2639  -15.6363   20.0672 H   0  0  0  0  0  0
  -26.7174  -32.5488   23.1126 H   0  0  0  0  0  0
  -25.0138  -33.9760   25.0496 H   0  0  0  0  0  0
  -22.7112  -31.3133   21.4138 H   0  0  0  0  0  0
  -23.3777  -35.9588   23.3318 H   0  0  0  0  0  0
  -24.3581  -36.8880   22.2052 H   0  0  0  0  0  0
  -23.7195  -37.6473   23.6635 H   0  0  0  0  0  0
  -26.0905  -31.5595   20.6123 H   0  0  0  0  0  0
  -26.8409  -30.8434   22.0060 H   0  0  0  0  0  0
  -28.0974  -28.9702   21.2120 H   0  0  0  0  0  0
  -25.9109  -25.9760   18.9509 H   0  0  0  0  0  0
  -23.9642  -27.3413   18.9908 H   0  0  0  0  0  0
  -23.7533  -30.6175   19.4121 H   0  0  0  0  0  0
  -22.7494  -29.2697   19.8539 H   0  0  0  0  0  0
  -25.1294  -36.1977   25.0840 H   0  0  0  0  0  0
  -20.9986  -28.3288   24.1411 H   0  0  0  0  0  0
  -20.5746  -26.2306   23.3613 H   0  0  0  0  0  0
  -21.6657  -26.7513   22.1165 H   0  0  0  0  0  0
  -19.6922  -25.6327   21.1244 H   0  0  0  0  0  0
  -19.6691  -27.3232   20.6758 H   0  0  0  0  0  0
  -17.4210  -26.6722   21.4031 H   0  0  0  0  0  0
  -18.0329  -26.0110   22.9033 H   0  0  0  0  0  0
  -19.7942  -30.7295   24.2290 H   0  0  0  0  0  0
  -17.5021  -31.6286   24.5179 H   0  0  0  0  0  0
  -15.5358  -30.3014   23.7660 H   0  0  0  0  0  0
  -15.8684  -28.0851   22.7066 H   0  0  0  0  0  0
  -24.5907  -30.7100   25.7774 H   0  0  0  0  0  0
  -24.8904  -32.2912   26.4886 H   0  0  0  0  0  0
  -25.8049  -30.8920   27.0245 H   0  0  0  0  0  0
  -26.2895  -29.6826   24.1189 H   0  0  0  0  0  0
  -27.4051  -29.7296   25.4644 H   0  0  0  0  0  0
  -27.8752  -30.4387   23.9379 H   0  0  0  0  0  0
  -27.2731  -33.3657   26.2069 H   0  0  0  0  0  0
  -28.3876  -32.6869   25.0301 H   0  0  0  0  0  0
  -28.0753  -31.8461   26.5406 H   0  0  0  0  0  0
  -28.2617  -38.0078   24.7536 H   0  0  0  0  0  0
  -28.1062  -36.2617   24.6300 H   0  0  0  0  0  0
  -27.2302  -37.1449   25.8878 H   0  0  0  0  0  0
  -20.9380  -29.8739   21.6853 H   0  0  0  0  0  0
  -26.0188  -38.2889   24.1421 H   0  0  0  0  0  0
  -28.1430  -18.6212   22.3332 H   0  0  0  0  0  0
  -27.5666  -20.9270   21.6524 H   0  0  0  0  0  0
  -32.6912  -18.8363   19.8945 H   0  0  0  0  0  0
  -31.8998  -19.0747   18.3349 H   0  0  0  0  0  0
  -31.7000  -17.5512   19.1842 H   0  0  0  0  0  0
  -32.4974  -17.0142   21.3905 H   0  0  0  0  0  0
  -31.9004  -16.1571   22.7963 H   0  0  0  0  0  0
  -31.8941  -17.9078   22.7797 H   0  0  0  0  0  0
  -27.7583  -22.3965   19.3310 H   0  0  0  0  0  0
  -29.3532  -22.6275   18.7234 H   0  0  0  0  0  0
  -29.9403  -24.0439   20.7534 H   0  0  0  0  0  0
  -28.3204  -23.8167   21.3594 H   0  0  0  0  0  0
  -27.4704  -24.8198   19.1689 H   0  0  0  0  0  0
  -29.0689  -25.2262   18.7292 H   0  0  0  0  0  0
  -29.6952  -16.9525   22.4923 H   0  0  0  0  0  0
  -28.9365  -15.4489   21.0923 H   0  0  0  0  0  0
  1 25  1  0  0  0
  1 30  2  0  0  0
  1 83  1  0  0  0
  2  3  1  0  0  0
  2 25  1  0  0  0
  2 84  1  0  0  0
  2 85  1  0  0  0
  3  4  1  0  0  0
  3 86  1  0  0  0
  3 87  1  0  0  0
  4  5  1  0  0  0
  4 88  1  0  0  0
  4 89  1  0  0  0
  5  6  1  0  0  0
  5 26  1  0  0  0
  5 90  1  0  0  0
  6 25  1  0  0  0
  6 91  1  0  0  0
  6 92  1  0  0  0
  7  8  2  0  0  0
  7 26  1  0  0  0
  7 29  1  0  0  0
  8  9  1  0  0  0
  8 22  1  0  0  0
  9 10  1  0  0  0
  9 27  2  0  0  0
 10 11  2  0  0  0
 10 15  1  0  0  0
 11 12  1  0  0  0
 11 93  1  0  0  0
 12 13  2  0  0  0
 12 94  1  0  0  0
 13 14  1  0  0  0
 13 31  1  0  0  0
 14 15  2  0  0  0
 14 95  1  0  0  0
 15 96  1  0  0  0
 16 17  2  0  0  0
 16 21  1  0  0  0
 16 31  1  0  0  0
 17 18  1  0  0  0
 17 97  1  0  0  0
 18 19  2  0  0  0
 18 98  1  0  0  0
 19 20  1  0  0  0
 19 24  1  0  0  0
 20 21  2  0  0  0
 20 99  1  0  0  0
 21 23  1  0  0  0
 22 28  1  0  0  0
 22 32  2  0  0  0
 26 27  1  0  0  0
 28100  1  0  0  0
 28101  1  0  0  0
 29102  1  0  0  0
 29103  1  0  0  0
 33 34  1  0  0  0
 33 66  1  0  0  0
 33 70  2  0  0  0
 34 36  1  0  0  0
 34 59  1  0  0  0
 34104  1  0  0  0
 35 44  2  0  0  0
 35 45  1  0  0  0
 35 68  1  0  0  0
 36 56  1  0  0  0
 36105  1  0  0  0
 37 39  1  0  0  0
 37 47  1  0  0  0
 37 66  1  0  0  0
 37106  1  0  0  0
 38 43  2  0  0  0
 38 46  1  0  0  0
 38 47  1  0  0  0
 39 64  1  0  0  0
 39 67  2  0  0  0
 40 52  1  0  0  0
 40 53  2  0  0  0
 40 58  1  0  0  0
 41107  1  0  0  0
 41108  1  0  0  0
 41109  1  0  0  0
 41 48  1  0  0  0
 42 43  1  0  0  0
 42 66  1  0  0  0
 42110  1  0  0  0
 42111  1  0  0  0
 43 44  1  0  0  0
 44112  1  0  0  0
 45 46  2  0  0  0
 45113  1  0  0  0
 46114  1  0  0  0
 47115  1  0  0  0
 47116  1  0  0  0
 48 56  1  0  0  0
 48 65  1  0  0  0
 48117  1  0  0  0
 49 50  1  0  0  0
 49 53  1  0  0  0
 49 64  1  0  0  0
 49118  1  0  0  0
 50 51  1  0  0  0
 50119  1  0  0  0
 50120  1  0  0  0
 51 52  1  0  0  0
 51121  1  0  0  0
 51122  1  0  0  0
 52123  1  0  0  0
 52124  1  0  0  0
 53 54  1  0  0  0
 54 55  2  0  0  0
 54125  1  0  0  0
 55 57  1  0  0  0
 55126  1  0  0  0
 56 69  2  0  0  0
 57 58  2  0  0  0
 57127  1  0  0  0
 58128  1  0  0  0
 59 60  1  0  0  0
 59 61  1  0  0  0
 59 62  1  0  0  0
 60129  1  0  0  0
 60130  1  0  0  0
 60131  1  0  0  0
 61132  1  0  0  0
 61133  1  0  0  0
 61134  1  0  0  0
 62135  1  0  0  0
 62136  1  0  0  0
 62137  1  0  0  0
 63 65  1  0  0  0
 63138  1  0  0  0
 63139  1  0  0  0
 63140  1  0  0  0
 64141  1  0  0  0
 65142  1  0  0  0
 68 80  1  0  0  0
 71 72  2  0  0  0
 71 73  1  0  0  0
 71143  1  0  0  0
 72 74  1  0  0  0
 72144  1  0  0  0
 73 75  2  0  0  0
 73 81  1  0  0  0
 74 78  1  0  0  0
 74 82  2  0  0  0
 75 76  1  0  0  0
 75 82  1  0  0  0
 76145  1  0  0  0
 76146  1  0  0  0
 76147  1  0  0  0
 77148  1  0  0  0
 77149  1  0  0  0
 77150  1  0  0  0
 77 81  1  0  0  0
 78 79  1  0  0  0
 78151  1  0  0  0
 78152  1  0  0  0
 79 80  1  0  0  0
 79153  1  0  0  0
 79154  1  0  0  0
 80155  1  0  0  0
 80156  1  0  0  0
 81 83  1  0  0  0
 81157  1  0  0  0
 83158  1  0  0  0
M  ISO  4   1 100  68 101  80 101  83 100
M  END
> <chiral flag>
0

> <version>
0

> <s_m_source_file>
/data/baiqing/PycharmProjects/Reinvent-master-3.2/result/LINK_invent/BTK/process_docking_weight1_custom_sum_contain_oxygen_bond_distance_aromatic_linkinvent_7_9_3/rearranged_h_0125.sdf

> <i_m_source_file_index>
32

> <r_mmod_Potential_Energy-OPLS-2005>
-74.1925888061523

> <r_mmod_Stretch_Energy-OPLS-2005>
80.9135971069336

> <r_mmod_Bend_Energy-OPLS-2005>
172.734313964844

> <r_mmod_Torsional_Energy-OPLS-2005>
203.075347900391

> <r_mmod_Improper_Torsional_Energy-OPLS-2005>
5.44051504135132

> <r_mmod_Van_der_Waal_Energy-OPLS-2005>
150.13688659668

> <r_mmod_Electrostatic_Energy-OPLS-2005>
-511.518096923828

> <r_mmod_Solvation_Energy-OPLS-2005>
-219.843200683594

> <b_mmod_Minimization_Converged-OPLS-2005>
0

> <r_mmod_RMS_Derivative-OPLS-2005>
1.84159469604492

$$$$
32
                    3D
 Structure written by MMmdl.
164173  0  0  1  0            999 V2000
  -30.7317  -14.4271   20.5843 C   0  0  0  0  0  0
  -30.4248  -12.2846   19.4149 C   0  0  0  0  0  0
  -29.4918  -12.4908   18.2040 C   0  0  0  0  0  0
  -28.0146  -12.3634   18.6229 C   0  0  0  0  0  0
  -27.6674  -13.2061   19.8810 C   0  0  2  0  0  0
  -28.7135  -12.9719   20.9972 C   0  0  0  0  0  0
  -25.2521  -13.8102   20.5565 C   0  0  0  0  0  0
  -24.1827  -13.0383   20.9167 C   0  0  0  0  0  0
  -24.6425  -11.6872   20.8784 C   0  0  0  0  0  0
  -23.9089  -10.4274   21.0422 C   0  0  0  0  0  0
  -24.3619   -9.4192   21.9210 C   0  0  0  0  0  0
  -23.6292   -8.2228   22.0774 C   0  0  0  0  0  0
  -22.4280   -8.0280   21.3548 C   0  0  0  0  0  0
  -21.9917   -9.0254   20.4652 C   0  0  0  0  0  0
  -22.7249  -10.2127   20.3069 C   0  0  0  0  0  0
  -21.6856   -6.0746   22.5284 C   0  0  0  0  0  0
  -21.4022   -6.5649   23.8223 C   0  0  0  0  0  0
  -21.3650   -5.6788   24.9177 C   0  0  0  0  0  0
  -21.6032   -4.3053   24.7214 C   0  0  0  0  0  0
  -21.8826   -3.8153   23.4337 C   0  0  0  0  0  0
  -21.9203   -4.6977   22.3400 C   0  0  0  0  0  0
  -22.7855  -13.5186   21.1828 C   0  0  0  0  0  0
  -22.1663   -4.2162   21.0978 F   0  0  0  0  0  0
  -21.5627   -3.4538   25.7732 F   0  0  0  0  0  0
  -30.0491  -13.2611   20.4471 N   0  0  0  0  0  0
  -26.3069  -12.9333   20.3445 N   0  0  0  0  0  0
  -25.9376  -11.6495   20.5891 N   0  0  0  0  0  0
  -22.0497  -12.8213   22.0422 N   0  0  0  0  0  0
  -25.3955  -15.1769   20.3690 N   0  0  0  0  0  0
  -31.8334  -14.6350   20.0691 O   0  0  0  0  0  0
  -21.6626   -6.8883   21.4251 O   0  0  0  0  0  0
  -22.3554  -14.5485   20.6640 O   0  0  0  0  0  0
  -24.6123  -31.8698   23.2102 C   0  0  0  0  0  0
  -25.9028  -32.4825   23.8388 C   0  0  1  0  0  0
  -27.2403  -27.4500   20.0749 C   0  0  0  0  0  0
  -25.5892  -33.8622   24.2332 N   0  0  0  0  0  0
  -23.3984  -30.4974   21.5456 C   0  0  2  0  0  0
  -24.8430  -28.9583   20.1147 C   0  0  0  0  0  0
  -22.7342  -29.4759   22.4951 C   0  0  0  0  0  0
  -18.0253  -28.1412   22.8495 C   0  0  0  0  0  0
  -24.1490  -36.7319   23.2639 C   0  0  0  0  0  0
  -25.9262  -30.8358   21.3630 C   0  0  0  0  0  0
  -26.0013  -29.4699   20.7119 C   0  0  0  0  0  0
  -27.1962  -28.7176   20.6994 C   0  0  0  0  0  0
  -26.0565  -26.9396   19.4910 C   0  0  0  0  0  0
  -24.8638  -27.6897   19.5094 C   0  0  0  0  0  0
  -23.6058  -29.8265   20.1602 C   0  0  0  0  0  0
  -25.4115  -36.3108   24.0334 C   0  0  1  0  0  0
  -20.5822  -28.3771   23.1275 C   0  0  2  0  0  0
  -20.6706  -26.9477   22.5480 C   0  0  0  0  0  0
  -19.5731  -26.6512   21.5200 C   0  0  0  0  0  0
  -18.1941  -26.7924   22.1712 C   0  0  0  0  0  0
  -19.1481  -28.8913   23.2879 C   0  0  0  0  0  0
  -18.9382  -30.1494   23.8913 C   0  0  0  0  0  0
  -17.6364  -30.6614   24.0499 C   0  0  0  0  0  0
  -25.9045  -34.9479   23.5140 C   0  0  0  0  0  0
  -16.5274  -29.9084   23.6271 C   0  0  0  0  0  0
  -16.7219  -28.6496   23.0351 C   0  0  0  0  0  0
  -26.4472  -31.6590   25.0709 C   0  0  0  0  0  0
  -25.3748  -31.3665   26.1457 C   0  0  0  0  0  0
  -27.0304  -30.3048   24.6050 C   0  0  0  0  0  0
  -27.6055  -32.4308   25.7457 C   0  0  0  0  0  0
  -27.5579  -37.1814   24.8465 C   0  0  0  0  0  0
  -21.4091  -29.3106   22.3632 N   0  0  0  0  0  0
  -26.4300  -37.3782   23.9405 N   0  0  0  0  0  0
  -24.6633  -31.0823   22.0983 N   0  0  0  0  0  0
  -23.4091  -28.8333   23.3047 O   0  0  0  0  0  0
  -28.4436  -26.7744   20.0760 O   0  0  0  0  0  0
  -26.5597  -34.8927   22.4690 O   0  0  0  0  0  0
  -23.5324  -32.1455   23.7503 O   0  0  0  0  0  0
  -29.3136  -21.9729   19.6983 C   0  0  0  0  0  0
  -29.4033  -23.2869   19.1992 C   0  0  0  0  0  0
  -27.6756  -23.9941   20.7426 C   0  0  0  0  0  0
  -28.3994  -21.6403   20.7242 C   0  0  0  0  0  0
  -28.5876  -24.3106   19.7185 C   0  0  0  0  0  0
  -27.5720  -22.6763   21.2456 C   0  0  0  0  0  0
  -27.8809  -17.3709   21.6552 C   0  0  0  0  0  0
  -29.5109  -19.2806   20.9928 C   0  0  0  0  0  0
  -27.0718  -19.4770   20.5967 C   0  0  0  0  0  0
  -28.2810  -20.1885   21.2231 C   0  0  2  0  0  0
  -29.3495  -17.8590   21.6127 C   0  0  2  0  0  0
  -26.5294  -22.4275   22.3244 C   0  0  0  0  0  0
  -28.6870  -25.7212   19.1383 C   0  0  0  0  0  0
  -30.3649  -16.8480   20.9842 C   0  0  0  0  0  0
  -26.9088  -18.1301   21.1349 N   0  0  0  0  0  0
  -30.0641  -15.4220   21.1806 N   0  0  0  0  0  0
  -27.6065  -16.2985   22.1948 O   0  0  0  0  0  0
  -31.4680  -12.3804   19.1083 H   0  0  0  0  0  0
  -30.3306  -11.2731   19.8113 H   0  0  0  0  0  0
  -29.7240  -11.7625   17.4246 H   0  0  0  0  0  0
  -29.6668  -13.4735   17.7623 H   0  0  0  0  0  0
  -27.8231  -11.3106   18.8294 H   0  0  0  0  0  0
  -27.3619  -12.6301   17.7887 H   0  0  0  0  0  0
  -27.7166  -14.2553   19.5903 H   0  0  0  0  0  0
  -28.6809  -11.9338   21.3329 H   0  0  0  0  0  0
  -28.4827  -13.5682   21.8802 H   0  0  0  0  0  0
  -25.2760   -9.5668   22.4779 H   0  0  0  0  0  0
  -24.0006   -7.4622   22.7494 H   0  0  0  0  0  0
  -21.0851   -8.8744   19.8966 H   0  0  0  0  0  0
  -22.3698  -10.9650   19.6163 H   0  0  0  0  0  0
  -21.2014   -7.6160   23.9732 H   0  0  0  0  0  0
  -21.1457   -6.0513   25.9076 H   0  0  0  0  0  0
  -22.0615   -2.7625   23.2815 H   0  0  0  0  0  0
  -22.4080  -11.9856   22.4790 H   0  0  0  0  0  0
  -21.1117  -13.1247   22.2617 H   0  0  0  0  0  0
  -24.6035  -15.8021   20.4583 H   0  0  0  0  0  0
  -26.2622  -15.6402   20.1319 H   0  0  0  0  0  0
  -26.7118  -32.5553   23.1167 H   0  0  0  0  0  0
  -25.0035  -33.9779   25.0476 H   0  0  0  0  0  0
  -22.6900  -31.3165   21.4027 H   0  0  0  0  0  0
  -23.3735  -35.9659   23.3319 H   0  0  0  0  0  0
  -24.3584  -36.8920   22.2044 H   0  0  0  0  0  0
  -23.7259  -37.6541   23.6652 H   0  0  0  0  0  0
  -26.0401  -31.5996   20.5931 H   0  0  0  0  0  0
  -26.8136  -30.8893   21.9807 H   0  0  0  0  0  0
  -28.0936  -29.1143   21.1525 H   0  0  0  0  0  0
  -26.0323  -25.9634   19.0303 H   0  0  0  0  0  0
  -23.9697  -27.2871   19.0533 H   0  0  0  0  0  0
  -23.7152  -30.5995   19.3973 H   0  0  0  0  0  0
  -22.7301  -29.2439   19.8656 H   0  0  0  0  0  0
  -25.1291  -36.1971   25.0821 H   0  0  0  0  0  0
  -20.9932  -28.3446   24.1384 H   0  0  0  0  0  0
  -20.5366  -26.2469   23.3735 H   0  0  0  0  0  0
  -21.6603  -26.7333   22.1450 H   0  0  0  0  0  0
  -19.6644  -27.3421   20.6805 H   0  0  0  0  0  0
  -19.6919  -25.6470   21.1144 H   0  0  0  0  0  0
  -17.4128  -26.6462   21.4235 H   0  0  0  0  0  0
  -18.0529  -26.0125   22.9212 H   0  0  0  0  0  0
  -19.7831  -30.7323   24.2318 H   0  0  0  0  0  0
  -17.4838  -31.6307   24.5049 H   0  0  0  0  0  0
  -15.5249  -30.2952   23.7531 H   0  0  0  0  0  0
  -15.8612  -28.0816   22.7104 H   0  0  0  0  0  0
  -24.5919  -30.7023   25.7783 H   0  0  0  0  0  0
  -24.8931  -32.2795   26.4960 H   0  0  0  0  0  0
  -25.8105  -30.8794   27.0182 H   0  0  0  0  0  0
  -26.2819  -29.6800   24.1154 H   0  0  0  0  0  0
  -27.4160  -29.7296   25.4469 H   0  0  0  0  0  0
  -27.8620  -30.4396   23.9128 H   0  0  0  0  0  0
  -27.2686  -33.3593   26.2071 H   0  0  0  0  0  0
  -28.3828  -32.6881   25.0258 H   0  0  0  0  0  0
  -28.0757  -31.8406   26.5329 H   0  0  0  0  0  0
  -28.2614  -38.0097   24.7501 H   0  0  0  0  0  0
  -28.1068  -36.2628   24.6319 H   0  0  0  0  0  0
  -27.2298  -37.1492   25.8871 H   0  0  0  0  0  0
  -20.9309  -29.8668   21.6671 H   0  0  0  0  0  0
  -26.0200  -38.2865   24.1388 H   0  0  0  0  0  0
  -29.9618  -21.2281   19.2637 H   0  0  0  0  0  0
  -30.1119  -23.5055   18.4125 H   0  0  0  0  0  0
  -27.0403  -24.7722   21.1431 H   0  0  0  0  0  0
  -30.4044  -19.7533   21.4003 H   0  0  0  0  0  0
  -29.6753  -19.1709   19.9224 H   0  0  0  0  0  0
  -27.1886  -19.4170   19.5146 H   0  0  0  0  0  0
  -26.1551  -20.0380   20.7743 H   0  0  0  0  0  0
  -28.1476  -20.2269   22.3031 H   0  0  0  0  0  0
  -29.6141  -17.9502   22.6665 H   0  0  0  0  0  0
  -25.6010  -22.0651   21.8810 H   0  0  0  0  0  0
  -26.2981  -23.3534   22.8488 H   0  0  0  0  0  0
  -26.8534  -21.7169   23.0819 H   0  0  0  0  0  0
  -28.0846  -25.8011   18.2341 H   0  0  0  0  0  0
  -29.7127  -25.8678   18.7993 H   0  0  0  0  0  0
  -31.3618  -17.0498   21.3778 H   0  0  0  0  0  0
  -30.4279  -17.0217   19.9074 H   0  0  0  0  0  0
  -25.9660  -17.7695   21.1754 H   0  0  0  0  0  0
  -29.1641  -15.1988   21.5917 H   0  0  0  0  0  0
  1 25  1  0  0  0
  1 30  2  0  0  0
  1 86  1  0  0  0
  2  3  1  0  0  0
  2 25  1  0  0  0
  2 88  1  0  0  0
  2 89  1  0  0  0
  3  4  1  0  0  0
  3 90  1  0  0  0
  3 91  1  0  0  0
  4  5  1  0  0  0
  4 92  1  0  0  0
  4 93  1  0  0  0
  5  6  1  0  0  0
  5 26  1  0  0  0
  5 94  1  0  0  0
  6 25  1  0  0  0
  6 95  1  0  0  0
  6 96  1  0  0  0
  7  8  2  0  0  0
  7 26  1  0  0  0
  7 29  1  0  0  0
  8  9  1  0  0  0
  8 22  1  0  0  0
  9 10  1  0  0  0
  9 27  2  0  0  0
 10 11  2  0  0  0
 10 15  1  0  0  0
 11 12  1  0  0  0
 11 97  1  0  0  0
 12 13  2  0  0  0
 12 98  1  0  0  0
 13 14  1  0  0  0
 13 31  1  0  0  0
 14 15  2  0  0  0
 14 99  1  0  0  0
 15100  1  0  0  0
 16 17  2  0  0  0
 16 21  1  0  0  0
 16 31  1  0  0  0
 17 18  1  0  0  0
 17101  1  0  0  0
 18 19  2  0  0  0
 18102  1  0  0  0
 19 20  1  0  0  0
 19 24  1  0  0  0
 20 21  2  0  0  0
 20103  1  0  0  0
 21 23  1  0  0  0
 22 28  1  0  0  0
 22 32  2  0  0  0
 26 27  1  0  0  0
 28104  1  0  0  0
 28105  1  0  0  0
 29106  1  0  0  0
 29107  1  0  0  0
 33 34  1  0  0  0
 33 66  1  0  0  0
 33 70  2  0  0  0
 34 36  1  0  0  0
 34 59  1  0  0  0
 34108  1  0  0  0
 35 44  2  0  0  0
 35 45  1  0  0  0
 35 68  1  0  0  0
 36 56  1  0  0  0
 36109  1  0  0  0
 37 39  1  0  0  0
 37 47  1  0  0  0
 37 66  1  0  0  0
 37110  1  0  0  0
 38 43  2  0  0  0
 38 46  1  0  0  0
 38 47  1  0  0  0
 39 64  1  0  0  0
 39 67  2  0  0  0
 40 52  1  0  0  0
 40 53  2  0  0  0
 40 58  1  0  0  0
 41111  1  0  0  0
 41112  1  0  0  0
 41113  1  0  0  0
 41 48  1  0  0  0
 42 43  1  0  0  0
 42 66  1  0  0  0
 42114  1  0  0  0
 42115  1  0  0  0
 43 44  1  0  0  0
 44116  1  0  0  0
 45 46  2  0  0  0
 45117  1  0  0  0
 46118  1  0  0  0
 47119  1  0  0  0
 47120  1  0  0  0
 48 56  1  0  0  0
 48 65  1  0  0  0
 48121  1  0  0  0
 49 50  1  0  0  0
 49 53  1  0  0  0
 49 64  1  0  0  0
 49122  1  0  0  0
 50 51  1  0  0  0
 50123  1  0  0  0
 50124  1  0  0  0
 51 52  1  0  0  0
 51125  1  0  0  0
 51126  1  0  0  0
 52127  1  0  0  0
 52128  1  0  0  0
 53 54  1  0  0  0
 54 55  2  0  0  0
 54129  1  0  0  0
 55 57  1  0  0  0
 55130  1  0  0  0
 56 69  2  0  0  0
 57 58  2  0  0  0
 57131  1  0  0  0
 58132  1  0  0  0
 59 60  1  0  0  0
 59 61  1  0  0  0
 59 62  1  0  0  0
 60133  1  0  0  0
 60134  1  0  0  0
 60135  1  0  0  0
 61136  1  0  0  0
 61137  1  0  0  0
 61138  1  0  0  0
 62139  1  0  0  0
 62140  1  0  0  0
 62141  1  0  0  0
 63 65  1  0  0  0
 63142  1  0  0  0
 63143  1  0  0  0
 63144  1  0  0  0
 64145  1  0  0  0
 65146  1  0  0  0
 68 83  1  0  0  0
 71 72  2  0  0  0
 71 74  1  0  0  0
 71147  1  0  0  0
 72 75  1  0  0  0
 72148  1  0  0  0
 73 75  2  0  0  0
 73 76  1  0  0  0
 73149  1  0  0  0
 74 76  2  0  0  0
 74 80  1  0  0  0
 75 83  1  0  0  0
 76 82  1  0  0  0
 77 81  1  0  0  0
 77 85  1  0  0  0
 77 87  2  0  0  0
 78 80  1  0  0  0
 78 81  1  0  0  0
 78150  1  0  0  0
 78151  1  0  0  0
 79 80  1  0  0  0
 79 85  1  0  0  0
 79152  1  0  0  0
 79153  1  0  0  0
 80154  1  0  0  0
 81 84  1  0  0  0
 81155  1  0  0  0
 82156  1  0  0  0
 82157  1  0  0  0
 82158  1  0  0  0
 83159  1  0  0  0
 83160  1  0  0  0
 84 86  1  0  0  0
 84161  1  0  0  0
 84162  1  0  0  0
 85163  1  0  0  0
 86164  1  0  0  0
M  ISO  4   1 100  68 101  83 101  86 100
M  END
> <chiral flag>
0

> <version>
0

> <s_m_source_file>
/data/baiqing/PycharmProjects/Reinvent-master-3.2/result/LINK_invent/BTK/process_docking_weight1_custom_sum_contain_oxygen_bond_distance_aromatic_linkinvent_7_9_3/rearranged_h_0125.sdf

> <i_m_source_file_index>
33

> <r_mmod_Potential_Energy-OPLS-2005>
-78.3185272216797

> <r_mmod_Stretch_Energy-OPLS-2005>
38.6077842712402

> <r_mmod_Bend_Energy-OPLS-2005>
112.635566711426

> <r_mmod_Torsional_Energy-OPLS-2005>
213.138717651367

> <r_mmod_Improper_Torsional_Energy-OPLS-2005>
4.42874574661255

> <r_mmod_Van_der_Waal_Energy-OPLS-2005>
167.603775024414

> <r_mmod_Electrostatic_Energy-OPLS-2005>
-411.929290771484

> <r_mmod_Solvation_Energy-OPLS-2005>
-212.943420410156

> <b_mmod_Minimization_Converged-OPLS-2005>
0

> <r_mmod_RMS_Derivative-OPLS-2005>
3.78666353225708

$$$$
33
                    3D
 Structure written by MMmdl.
175184  0  0  1  0            999 V2000
  -30.7536  -14.4456   20.6096 C   0  0  0  0  0  0
  -30.4102  -12.3065   19.4203 C   0  0  0  0  0  0
  -29.4887  -12.5039   18.2014 C   0  0  0  0  0  0
  -28.0133  -12.3596   18.6195 C   0  0  0  0  0  0
  -27.6599  -13.2107   19.8695 C   0  0  2  0  0  0
  -28.7012  -13.0141   20.9940 C   0  0  0  0  0  0
  -25.2583  -13.8156   20.5679 C   0  0  0  0  0  0
  -24.1844  -13.0439   20.9176 C   0  0  0  0  0  0
  -24.6398  -11.6901   20.8727 C   0  0  0  0  0  0
  -23.9066  -10.4290   21.0402 C   0  0  0  0  0  0
  -24.3614   -9.4203   21.9189 C   0  0  0  0  0  0
  -23.6289   -8.2243   22.0751 C   0  0  0  0  0  0
  -22.4272   -8.0279   21.3539 C   0  0  0  0  0  0
  -21.9912   -9.0252   20.4640 C   0  0  0  0  0  0
  -22.7242  -10.2133   20.3054 C   0  0  0  0  0  0
  -21.6859   -6.0737   22.5277 C   0  0  0  0  0  0
  -21.4015   -6.5637   23.8205 C   0  0  0  0  0  0
  -21.3654   -5.6789   24.9168 C   0  0  0  0  0  0
  -21.6048   -4.3056   24.7223 C   0  0  0  0  0  0
  -21.8820   -3.8145   23.4340 C   0  0  0  0  0  0
  -21.9187   -4.6961   22.3398 C   0  0  0  0  0  0
  -22.7863  -13.5230   21.1850 C   0  0  0  0  0  0
  -22.1664   -4.2148   21.0978 F   0  0  0  0  0  0
  -21.5624   -3.4539   25.7736 F   0  0  0  0  0  0
  -30.0337  -13.3023   20.4388 N   0  0  0  0  0  0
  -26.3020  -12.9344   20.3344 N   0  0  0  0  0  0
  -25.9327  -11.6495   20.5754 N   0  0  0  0  0  0
  -22.0504  -12.8216   22.0386 N   0  0  0  0  0  0
  -25.4308  -15.1888   20.4113 N   0  0  0  0  0  0
  -31.8684  -14.5998   20.1086 O   0  0  0  0  0  0
  -21.6635   -6.8879   21.4238 O   0  0  0  0  0  0
  -22.3548  -14.5543   20.6702 O   0  0  0  0  0  0
  -24.6152  -31.8669   23.2114 C   0  0  0  0  0  0
  -25.9067  -32.4826   23.8375 C   0  0  1  0  0  0
  -27.2305  -27.4310   20.1158 C   0  0  0  0  0  0
  -25.5936  -33.8626   24.2317 N   0  0  0  0  0  0
  -23.4025  -30.4892   21.5531 C   0  0  2  0  0  0
  -24.8480  -28.9565   20.1179 C   0  0  0  0  0  0
  -22.7414  -29.4632   22.5015 C   0  0  0  0  0  0
  -18.0260  -28.1371   22.8508 C   0  0  0  0  0  0
  -24.1498  -36.7299   23.2623 C   0  0  0  0  0  0
  -25.9294  -30.8352   21.3600 C   0  0  0  0  0  0
  -26.0065  -29.4667   20.7163 C   0  0  0  0  0  0
  -27.2007  -28.7118   20.7115 C   0  0  0  0  0  0
  -26.0551  -26.9341   19.5088 C   0  0  0  0  0  0
  -24.8667  -27.6885   19.5113 C   0  0  0  0  0  0
  -23.6111  -29.8250   20.1659 C   0  0  0  0  0  0
  -25.4118  -36.3097   24.0320 C   0  0  1  0  0  0
  -20.5863  -28.3627   23.1364 C   0  0  2  0  0  0
  -20.6758  -26.9375   22.5434 C   0  0  0  0  0  0
  -19.5728  -26.6392   21.5237 C   0  0  0  0  0  0
  -18.1899  -26.7926   22.1638 C   0  0  0  0  0  0
  -19.1518  -28.8809   23.2927 C   0  0  0  0  0  0
  -18.9445  -30.1413   23.8930 C   0  0  0  0  0  0
  -17.6452  -30.6569   24.0560 C   0  0  0  0  0  0
  -25.9061  -34.9476   23.5117 C   0  0  0  0  0  0
  -16.5336  -29.9071   23.6337 C   0  0  0  0  0  0
  -16.7252  -28.6486   23.0354 C   0  0  0  0  0  0
  -26.4507  -31.6584   25.0690 C   0  0  0  0  0  0
  -25.3771  -31.3668   26.1415 C   0  0  0  0  0  0
  -27.0333  -30.3031   24.6040 C   0  0  0  0  0  0
  -27.6110  -32.4254   25.7455 C   0  0  0  0  0  0
  -27.5588  -37.1778   24.8460 C   0  0  0  0  0  0
  -21.4142  -29.3005   22.3783 N   0  0  0  0  0  0
  -26.4293  -37.3788   23.9418 N   0  0  0  0  0  0
  -24.6675  -31.0778   22.1005 N   0  0  0  0  0  0
  -23.4200  -28.8181   23.3052 O   0  0  0  0  0  0
  -28.4033  -26.7080   20.1432 O   0  0  0  0  0  0
  -26.5611  -34.8933   22.4672 O   0  0  0  0  0  0
  -23.5354  -32.1427   23.7523 O   0  0  0  0  0  0
  -30.6572  -24.9364   19.5431 C   0  0  0  0  0  0
  -31.9180  -24.3322   19.6498 C   0  0  0  0  0  0
  -29.8858  -23.6420   21.4545 C   0  0  0  0  0  0
  -29.6379  -24.6088   20.4506 C   0  0  0  0  0  0
  -32.1896  -23.3968   20.6705 C   0  0  0  0  0  0
  -31.1602  -23.0306   21.5879 C   0  0  0  0  0  0
  -31.2379  -17.6159   20.5003 C   0  0  0  0  0  0
  -29.8526  -17.5839   22.5764 C   0  0  0  0  0  0
  -32.0370  -18.8323   21.0084 C   0  0  0  0  0  0
  -30.5717  -18.8468   23.1103 C   0  0  0  0  0  0
  -30.7843  -16.7288   21.6859 C   0  0  1  0  0  0
  -31.2373  -19.7176   21.9948 C   0  0  1  0  0  0
  -33.6106  -22.8669   20.7523 C   0  0  0  0  0  0
  -34.2958  -21.2397   23.7719 C   0  0  0  0  0  0
  -31.3962  -22.1056   22.7967 C   0  0  0  0  0  0
  -28.2836  -25.2862   20.2935 C   0  0  0  0  0  0
  -33.0070  -20.4106   23.6382 C   0  0  0  0  0  0
  -30.1619  -15.4459   21.2950 N   0  0  0  0  0  0
  -32.1105  -20.8263   22.5144 N   0  3  1  0  0  0
  -31.4571  -12.3790   19.1208 H   0  0  0  0  0  0
  -30.2879  -11.2997   19.8233 H   0  0  0  0  0  0
  -29.7280  -11.7745   17.4259 H   0  0  0  0  0  0
  -29.6561  -13.4871   17.7582 H   0  0  0  0  0  0
  -27.8356  -11.3038   18.8293 H   0  0  0  0  0  0
  -27.3562  -12.6157   17.7867 H   0  0  0  0  0  0
  -27.6997  -14.2557   19.5601 H   0  0  0  0  0  0
  -28.6748  -11.9860   21.3587 H   0  0  0  0  0  0
  -28.4593  -13.6363   21.8560 H   0  0  0  0  0  0
  -25.2761   -9.5677   22.4760 H   0  0  0  0  0  0
  -23.9994   -7.4631   22.7474 H   0  0  0  0  0  0
  -21.0845   -8.8773   19.8945 H   0  0  0  0  0  0
  -22.3707  -10.9669   19.6155 H   0  0  0  0  0  0
  -21.2016   -7.6147   23.9710 H   0  0  0  0  0  0
  -21.1478   -6.0522   25.9070 H   0  0  0  0  0  0
  -22.0603   -2.7611   23.2844 H   0  0  0  0  0  0
  -22.4114  -11.9867   22.4768 H   0  0  0  0  0  0
  -21.1113  -13.1229   22.2583 H   0  0  0  0  0  0
  -24.6673  -15.8459   20.5269 H   0  0  0  0  0  0
  -26.2885  -15.6286   20.1028 H   0  0  0  0  0  0
  -26.7150  -32.5552   23.1144 H   0  0  0  0  0  0
  -25.0099  -33.9795   25.0472 H   0  0  0  0  0  0
  -22.6889  -31.3039   21.4159 H   0  0  0  0  0  0
  -23.3780  -35.9613   23.3274 H   0  0  0  0  0  0
  -24.3601  -36.8957   22.2049 H   0  0  0  0  0  0
  -23.7238  -37.6485   23.6663 H   0  0  0  0  0  0
  -26.0290  -31.5924   20.5815 H   0  0  0  0  0  0
  -26.8228  -30.8998   21.9683 H   0  0  0  0  0  0
  -28.0947  -29.0915   21.1876 H   0  0  0  0  0  0
  -26.0379  -25.9687   19.0277 H   0  0  0  0  0  0
  -23.9775  -27.2871   19.0454 H   0  0  0  0  0  0
  -23.7239  -30.6015   19.4088 H   0  0  0  0  0  0
  -22.7346  -29.2480   19.8673 H   0  0  0  0  0  0
  -25.1286  -36.1945   25.0810 H   0  0  0  0  0  0
  -20.9925  -28.3176   24.1498 H   0  0  0  0  0  0
  -20.5729  -26.2205   23.3599 H   0  0  0  0  0  0
  -21.6614  -26.7460   22.1177 H   0  0  0  0  0  0
  -19.6898  -25.6332   21.1193 H   0  0  0  0  0  0
  -19.6685  -27.3263   20.6828 H   0  0  0  0  0  0
  -17.4189  -26.6714   21.4017 H   0  0  0  0  0  0
  -18.0246  -26.0061   22.9019 H   0  0  0  0  0  0
  -19.7918  -30.7203   24.2347 H   0  0  0  0  0  0
  -17.4999  -31.6271   24.5123 H   0  0  0  0  0  0
  -15.5326  -30.2960   23.7649 H   0  0  0  0  0  0
  -15.8661  -28.0796   22.7070 H   0  0  0  0  0  0
  -24.5994  -30.6984   25.7713 H   0  0  0  0  0  0
  -24.8897  -32.2815   26.4806 H   0  0  0  0  0  0
  -25.8102  -30.8857   27.0197 H   0  0  0  0  0  0
  -26.2843  -29.6763   24.1194 H   0  0  0  0  0  0
  -27.4234  -29.7294   25.4458 H   0  0  0  0  0  0
  -27.8618  -30.4359   23.9081 H   0  0  0  0  0  0
  -27.2804  -33.3602   26.1983 H   0  0  0  0  0  0
  -28.3953  -32.6718   25.0291 H   0  0  0  0  0  0
  -28.0720  -31.8379   26.5406 H   0  0  0  0  0  0
  -28.2543  -38.0128   24.7562 H   0  0  0  0  0  0
  -28.1127  -36.2657   24.6191 H   0  0  0  0  0  0
  -27.2298  -37.1311   25.8855 H   0  0  0  0  0  0
  -20.9289  -29.8735   21.7024 H   0  0  0  0  0  0
  -26.0179  -38.2854   24.1478 H   0  0  0  0  0  0
  -30.4748  -25.6657   18.7663 H   0  0  0  0  0  0
  -32.6875  -24.6213   18.9456 H   0  0  0  0  0  0
  -29.1006  -23.4034   22.1588 H   0  0  0  0  0  0
  -31.8790  -17.0672   19.8111 H   0  0  0  0  0  0
  -30.3766  -17.9462   19.9172 H   0  0  0  0  0  0
  -28.9631  -17.8786   22.0169 H   0  0  0  0  0  0
  -29.4989  -16.9959   23.4244 H   0  0  0  0  0  0
  -32.3605  -19.4307   20.1544 H   0  0  0  0  0  0
  -32.9498  -18.4656   21.4788 H   0  0  0  0  0  0
  -31.3037  -18.4976   23.8362 H   0  0  0  0  0  0
  -29.8659  -19.4559   23.6747 H   0  0  0  0  0  0
  -31.6689  -16.4636   22.2711 H   0  0  0  0  0  0
  -30.4362  -20.1722   21.4082 H   0  0  0  0  0  0
  -34.2675  -23.4029   20.0658 H   0  0  0  0  0  0
  -33.6704  -21.8142   20.4802 H   0  0  0  0  0  0
  -34.0236  -23.0239   21.7461 H   0  0  0  0  0  0
  -34.8988  -20.8661   24.6011 H   0  0  0  0  0  0
  -34.0977  -22.2907   23.9757 H   0  0  0  0  0  0
  -34.9130  -21.1723   22.8767 H   0  0  0  0  0  0
  -30.4547  -21.8792   23.2971 H   0  0  0  0  0  0
  -31.9552  -22.7058   23.5141 H   0  0  0  0  0  0
  -27.6381  -25.0398   21.1395 H   0  0  0  0  0  0
  -27.8362  -24.8496   19.4027 H   0  0  0  0  0  0
  -32.4549  -20.4423   24.5781 H   0  0  0  0  0  0
  -33.3235  -19.3767   23.5008 H   0  0  0  0  0  0
  -29.2333  -15.2589   21.6406 H   0  0  0  0  0  0
  -32.7172  -21.0600   21.7446 H   0  0  0  0  0  0
  1 25  1  0  0  0
  1 30  2  0  0  0
  1 88  1  0  0  0
  2  3  1  0  0  0
  2 25  1  0  0  0
  2 90  1  0  0  0
  2 91  1  0  0  0
  3  4  1  0  0  0
  3 92  1  0  0  0
  3 93  1  0  0  0
  4  5  1  0  0  0
  4 94  1  0  0  0
  4 95  1  0  0  0
  5  6  1  0  0  0
  5 26  1  0  0  0
  5 96  1  0  0  0
  6 25  1  0  0  0
  6 97  1  0  0  0
  6 98  1  0  0  0
  7  8  2  0  0  0
  7 26  1  0  0  0
  7 29  1  0  0  0
  8  9  1  0  0  0
  8 22  1  0  0  0
  9 10  1  0  0  0
  9 27  2  0  0  0
 10 11  2  0  0  0
 10 15  1  0  0  0
 11 12  1  0  0  0
 11 99  1  0  0  0
 12 13  2  0  0  0
 12100  1  0  0  0
 13 14  1  0  0  0
 13 31  1  0  0  0
 14 15  2  0  0  0
 14101  1  0  0  0
 15102  1  0  0  0
 16 17  2  0  0  0
 16 21  1  0  0  0
 16 31  1  0  0  0
 17 18  1  0  0  0
 17103  1  0  0  0
 18 19  2  0  0  0
 18104  1  0  0  0
 19 20  1  0  0  0
 19 24  1  0  0  0
 20 21  2  0  0  0
 20105  1  0  0  0
 21 23  1  0  0  0
 22 28  1  0  0  0
 22 32  2  0  0  0
 26 27  1  0  0  0
 28106  1  0  0  0
 28107  1  0  0  0
 29108  1  0  0  0
 29109  1  0  0  0
 33 34  1  0  0  0
 33 66  1  0  0  0
 33 70  2  0  0  0
 34 36  1  0  0  0
 34 59  1  0  0  0
 34110  1  0  0  0
 35 44  2  0  0  0
 35 45  1  0  0  0
 35 68  1  0  0  0
 36 56  1  0  0  0
 36111  1  0  0  0
 37 39  1  0  0  0
 37 47  1  0  0  0
 37 66  1  0  0  0
 37112  1  0  0  0
 38 43  2  0  0  0
 38 46  1  0  0  0
 38 47  1  0  0  0
 39 64  1  0  0  0
 39 67  2  0  0  0
 40 52  1  0  0  0
 40 53  2  0  0  0
 40 58  1  0  0  0
 41113  1  0  0  0
 41114  1  0  0  0
 41115  1  0  0  0
 41 48  1  0  0  0
 42 43  1  0  0  0
 42 66  1  0  0  0
 42116  1  0  0  0
 42117  1  0  0  0
 43 44  1  0  0  0
 44118  1  0  0  0
 45 46  2  0  0  0
 45119  1  0  0  0
 46120  1  0  0  0
 47121  1  0  0  0
 47122  1  0  0  0
 48 56  1  0  0  0
 48 65  1  0  0  0
 48123  1  0  0  0
 49 50  1  0  0  0
 49 53  1  0  0  0
 49 64  1  0  0  0
 49124  1  0  0  0
 50 51  1  0  0  0
 50125  1  0  0  0
 50126  1  0  0  0
 51 52  1  0  0  0
 51127  1  0  0  0
 51128  1  0  0  0
 52129  1  0  0  0
 52130  1  0  0  0
 53 54  1  0  0  0
 54 55  2  0  0  0
 54131  1  0  0  0
 55 57  1  0  0  0
 55132  1  0  0  0
 56 69  2  0  0  0
 57 58  2  0  0  0
 57133  1  0  0  0
 58134  1  0  0  0
 59 60  1  0  0  0
 59 61  1  0  0  0
 59 62  1  0  0  0
 60135  1  0  0  0
 60136  1  0  0  0
 60137  1  0  0  0
 61138  1  0  0  0
 61139  1  0  0  0
 61140  1  0  0  0
 62141  1  0  0  0
 62142  1  0  0  0
 62143  1  0  0  0
 63 65  1  0  0  0
 63144  1  0  0  0
 63145  1  0  0  0
 63146  1  0  0  0
 64147  1  0  0  0
 65148  1  0  0  0
 68 86  1  0  0  0
 71 72  2  0  0  0
 71 74  1  0  0  0
 71149  1  0  0  0
 72 75  1  0  0  0
 72150  1  0  0  0
 73 74  2  0  0  0
 73 76  1  0  0  0
 73151  1  0  0  0
 74 86  1  0  0  0
 75 76  2  0  0  0
 75 83  1  0  0  0
 76 85  1  0  0  0
 77 79  1  0  0  0
 77 81  1  0  0  0
 77152  1  0  0  0
 77153  1  0  0  0
 78 80  1  0  0  0
 78 81  1  0  0  0
 78154  1  0  0  0
 78155  1  0  0  0
 79156  1  0  0  0
 79157  1  0  0  0
 79 82  1  0  0  0
 80 82  1  0  0  0
 80158  1  0  0  0
 80159  1  0  0  0
 81 88  1  0  0  0
 81160  1  0  0  0
 82 89  1  0  0  0
 82161  1  0  0  0
 83162  1  0  0  0
 83163  1  0  0  0
 83164  1  0  0  0
 84 87  1  0  0  0
 84165  1  0  0  0
 84166  1  0  0  0
 84167  1  0  0  0
 85168  1  0  0  0
 85169  1  0  0  0
 85 89  1  0  0  0
 86170  1  0  0  0
 86171  1  0  0  0
 87 89  1  0  0  0
 87172  1  0  0  0
 87173  1  0  0  0
 88174  1  0  0  0
 89175  1  0  0  0
M  CHG  1  89   1
M  ISO  4   1 100  68 101  86 101  88 100
M  END
> <chiral flag>
0

> <version>
0

> <s_m_source_file>
/data/baiqing/PycharmProjects/Reinvent-master-3.2/result/LINK_invent/BTK/process_docking_weight1_custom_sum_contain_oxygen_bond_distance_aromatic_linkinvent_7_9_3/rearranged_h_0125.sdf

> <i_m_source_file_index>
34

> <r_mmod_Potential_Energy-OPLS-2005>
-105.60425567627

> <r_mmod_Stretch_Energy-OPLS-2005>
43.137077331543

> <r_mmod_Bend_Energy-OPLS-2005>
111.70304107666

> <r_mmod_Torsional_Energy-OPLS-2005>
238.361663818359

> <r_mmod_Improper_Torsional_Energy-OPLS-2005>
2.45921921730042

> <r_mmod_Van_der_Waal_Energy-OPLS-2005>
160.963195800781

> <r_mmod_Electrostatic_Energy-OPLS-2005>
-250.571212768555

> <r_mmod_Solvation_Energy-OPLS-2005>
-424.881317138672

> <b_mmod_Minimization_Converged-OPLS-2005>
0

> <r_mmod_RMS_Derivative-OPLS-2005>
2.92875671386719

$$$$
34
                    3D
 Structure written by MMmdl.
147155  0  0  1  0            999 V2000
  -30.4751  -15.1823   20.3805 C   0  0  0  0  0  0
  -30.4354  -12.7503   19.5208 C   0  0  0  0  0  0
  -29.5293  -12.5597   18.2802 C   0  0  0  0  0  0
  -28.0737  -12.3019   18.7063 C   0  0  0  0  0  0
  -27.6140  -13.2691   19.8262 C   0  0  2  0  0  0
  -28.6501  -13.4142   20.9608 C   0  0  0  0  0  0
  -25.2396  -13.8243   20.5741 C   0  0  0  0  0  0
  -24.1743  -13.0438   20.9256 C   0  0  0  0  0  0
  -24.6391  -11.6934   20.8765 C   0  0  0  0  0  0
  -23.9084  -10.4293   21.0410 C   0  0  0  0  0  0
  -24.3633   -9.4206   21.9185 C   0  0  0  0  0  0
  -23.6307   -8.2242   22.0750 C   0  0  0  0  0  0
  -22.4286   -8.0281   21.3544 C   0  0  0  0  0  0
  -21.9928   -9.0255   20.4643 C   0  0  0  0  0  0
  -22.7259  -10.2134   20.3055 C   0  0  0  0  0  0
  -21.6855   -6.0739   22.5281 C   0  0  0  0  0  0
  -21.4015   -6.5642   23.8214 C   0  0  0  0  0  0
  -21.3659   -5.6794   24.9175 C   0  0  0  0  0  0
  -21.6045   -4.3055   24.7226 C   0  0  0  0  0  0
  -21.8819   -3.8149   23.4346 C   0  0  0  0  0  0
  -21.9196   -4.6968   22.3404 C   0  0  0  0  0  0
  -22.7761  -13.5192   21.1912 C   0  0  0  0  0  0
  -22.1663   -4.2153   21.0981 F   0  0  0  0  0  0
  -21.5631   -3.4538   25.7738 F   0  0  0  0  0  0
  -29.8927  -13.8922   20.3375 N   0  0  0  0  0  0
  -26.2822  -12.9509   20.3229 N   0  0  0  0  0  0
  -25.9325  -11.6618   20.5732 N   0  0  0  0  0  0
  -22.0426  -12.8163   22.0464 N   0  0  0  0  0  0
  -25.4030  -15.1977   20.4173 N   0  0  0  0  0  0
  -31.6935  -15.1828   20.1597 O   0  0  0  0  0  0
  -21.6644   -6.8882   21.4241 O   0  0  0  0  0  0
  -22.3438  -14.5497   20.6759 O   0  0  0  0  0  0
  -24.6588  -31.8286   23.1761 C   0  0  0  0  0  0
  -25.9293  -32.4618   23.8201 C   0  0  1  0  0  0
  -27.2114  -26.9740   20.1745 C   0  0  0  0  0  0
  -25.5981  -33.8429   24.2108 N   0  0  0  0  0  0
  -23.4707  -30.4443   21.5237 C   0  0  2  0  0  0
  -24.9232  -28.8455   20.1093 C   0  0  0  0  0  0
  -22.7642  -29.4472   22.4790 C   0  0  0  0  0  0
  -18.0320  -28.1410   22.8475 C   0  0  0  0  0  0
  -24.1486  -36.7203   23.2645 C   0  0  0  0  0  0
  -26.0381  -30.6502   21.4006 C   0  0  0  0  0  0
  -26.1063  -29.2463   20.7427 C   0  0  0  0  0  0
  -27.2474  -28.3300   20.7549 C   0  0  0  0  0  0
  -26.0015  -26.7223   19.4877 C   0  0  0  0  0  0
  -24.8939  -27.6023   19.4623 C   0  0  0  0  0  0
  -23.7077  -29.7672   20.1472 C   0  0  0  0  0  0
  -25.4125  -36.2979   24.0306 C   0  0  1  0  0  0
  -20.5944  -28.3749   23.1193 C   0  0  2  0  0  0
  -20.6796  -26.9435   22.5401 C   0  0  0  0  0  0
  -19.5767  -26.6385   21.5213 C   0  0  0  0  0  0
  -18.1950  -26.7945   22.1627 C   0  0  0  0  0  0
  -19.1582  -28.8900   23.2826 C   0  0  0  0  0  0
  -18.9495  -30.1489   23.8861 C   0  0  0  0  0  0
  -17.6490  -30.6605   24.0555 C   0  0  0  0  0  0
  -25.9093  -34.9366   23.5024 C   0  0  0  0  0  0
  -16.5377  -29.9094   23.6348 C   0  0  0  0  0  0
  -16.7304  -28.6512   23.0375 C   0  0  0  0  0  0
  -26.4558  -31.6552   25.0712 C   0  0  0  0  0  0
  -25.3702  -31.3799   26.1381 C   0  0  0  0  0  0
  -27.0443  -30.2921   24.6420 C   0  0  0  0  0  0
  -27.6054  -32.4355   25.7514 C   0  0  0  0  0  0
  -27.5563  -37.1755   24.8468 C   0  0  0  0  0  0
  -21.4319  -29.3048   22.3543 N   0  0  0  0  0  0
  -26.4267  -37.3717   23.9420 N   0  0  0  0  0  0
  -24.7433  -30.9997   22.0872 N   0  0  0  0  0  0
  -23.4214  -28.8031   23.3007 O   0  0  0  0  0  0
  -28.1962  -25.8671   20.2637 O   0  0  0  0  0  0
  -26.5687  -34.8895   22.4609 O   0  0  0  0  0  0
  -23.5671  -32.1232   23.6885 O   0  0  0  0  0  0
  -28.2774  -20.1783   20.9076 C   0  0  0  0  0  0
  -30.1456  -20.7584   19.6963 C   0  0  0  0  0  0
  -27.8545  -21.6057   20.8710 C   0  0  0  0  0  0
  -29.7223  -22.1796   19.6571 C   0  0  0  0  0  0
  -29.4725  -19.6132   20.3050 C   0  0  0  0  0  0
  -28.5298  -22.7500   20.2537 C   0  0  0  0  0  0
  -30.1825  -18.0265   20.3361 C   0  0  0  0  0  0
  -27.8040  -24.3101   20.0193 C   0  0  0  0  0  0
  -29.7353  -16.4509   20.4631 N   0  0  0  0  0  0
  -31.4594  -12.9371   19.1947 H   0  0  0  0  0  0
  -30.4796  -11.8355   20.1142 H   0  0  0  0  0  0
  -29.8932  -11.7354   17.6652 H   0  0  0  0  0  0
  -29.5747  -13.4531   17.6556 H   0  0  0  0  0  0
  -28.0144  -11.2735   19.0644 H   0  0  0  0  0  0
  -27.4061  -12.3652   17.8463 H   0  0  0  0  0  0
  -27.5393  -14.2436   19.3423 H   0  0  0  0  0  0
  -28.7973  -12.4727   21.4919 H   0  0  0  0  0  0
  -28.3051  -14.1392   21.6999 H   0  0  0  0  0  0
  -25.2775   -9.5686   22.4766 H   0  0  0  0  0  0
  -24.0018   -7.4629   22.7465 H   0  0  0  0  0  0
  -21.0861   -8.8777   19.8943 H   0  0  0  0  0  0
  -22.3716  -10.9677   19.6168 H   0  0  0  0  0  0
  -21.2001   -7.6149   23.9719 H   0  0  0  0  0  0
  -21.1482   -6.0522   25.9080 H   0  0  0  0  0  0
  -22.0598   -2.7611   23.2844 H   0  0  0  0  0  0
  -22.4066  -11.9826   22.4836 H   0  0  0  0  0  0
  -21.1039  -13.1162   22.2684 H   0  0  0  0  0  0
  -24.6307  -15.8462   20.5268 H   0  0  0  0  0  0
  -26.2426  -15.6401   20.0678 H   0  0  0  0  0  0
  -26.7360  -32.5170   23.0915 H   0  0  0  0  0  0
  -25.0108  -33.9519   25.0247 H   0  0  0  0  0  0
  -22.7817  -31.2753   21.3586 H   0  0  0  0  0  0
  -23.3765  -35.9516   23.3288 H   0  0  0  0  0  0
  -24.3561  -36.8862   22.2063 H   0  0  0  0  0  0
  -23.7225  -37.6381   23.6704 H   0  0  0  0  0  0
  -26.2147  -31.3959   20.6243 H   0  0  0  0  0  0
  -26.8998  -30.7033   22.0539 H   0  0  0  0  0  0
  -28.1398  -28.6311   21.2848 H   0  0  0  0  0  0
  -25.8646  -25.7763   18.9864 H   0  0  0  0  0  0
  -23.9957  -27.2900   18.9472 H   0  0  0  0  0  0
  -23.8604  -30.5388   19.3918 H   0  0  0  0  0  0
  -22.8182  -29.2207   19.8291 H   0  0  0  0  0  0
  -25.1322  -36.1770   25.0795 H   0  0  0  0  0  0
  -21.0038  -28.3354   24.1314 H   0  0  0  0  0  0
  -20.5671  -26.2370   23.3639 H   0  0  0  0  0  0
  -21.6659  -26.7417   22.1202 H   0  0  0  0  0  0
  -19.6920  -25.6286   21.1269 H   0  0  0  0  0  0
  -19.6698  -27.3172   20.6723 H   0  0  0  0  0  0
  -17.4213  -26.6691   21.4036 H   0  0  0  0  0  0
  -18.0346  -26.0100   22.9037 H   0  0  0  0  0  0
  -19.7970  -30.7314   24.2214 H   0  0  0  0  0  0
  -17.5045  -31.6283   24.5161 H   0  0  0  0  0  0
  -15.5376  -30.2985   23.7697 H   0  0  0  0  0  0
  -15.8703  -28.0812   22.7124 H   0  0  0  0  0  0
  -24.5887  -30.7140   25.7706 H   0  0  0  0  0  0
  -24.8887  -32.3001   26.4697 H   0  0  0  0  0  0
  -25.7949  -30.9045   27.0232 H   0  0  0  0  0  0
  -26.3101  -29.6613   24.1393 H   0  0  0  0  0  0
  -27.3950  -29.7270   25.5066 H   0  0  0  0  0  0
  -27.9059  -30.4114   23.9849 H   0  0  0  0  0  0
  -27.2623  -33.3701   26.1969 H   0  0  0  0  0  0
  -28.3933  -32.6842   25.0392 H   0  0  0  0  0  0
  -28.0644  -31.8559   26.5535 H   0  0  0  0  0  0
  -28.2564  -38.0066   24.7527 H   0  0  0  0  0  0
  -28.1075  -36.2596   24.6281 H   0  0  0  0  0  0
  -27.2284  -37.1386   25.8872 H   0  0  0  0  0  0
  -20.9555  -29.8749   21.6692 H   0  0  0  0  0  0
  -26.0113  -38.2769   24.1454 H   0  0  0  0  0  0
  -27.6291  -19.4927   21.4361 H   0  0  0  0  0  0
  -31.0814  -20.5404   19.1999 H   0  0  0  0  0  0
  -26.9033  -21.8209   21.3381 H   0  0  0  0  0  0
  -30.3513  -22.8578   19.0974 H   0  0  0  0  0  0
  -30.9305  -18.1209   21.1241 H   0  0  0  0  0  0
  -30.7794  -18.0194   19.4234 H   0  0  0  0  0  0
  -26.8452  -24.2068   20.5276 H   0  0  0  0  0  0
  -27.5507  -24.2802   18.9596 H   0  0  0  0  0  0
  -28.7435  -16.3219   20.5965 H   0  0  0  0  0  0
  1 25  1  0  0  0
  1 30  2  0  0  0
  1 79  1  0  0  0
  2  3  1  0  0  0
  2 25  1  0  0  0
  2 80  1  0  0  0
  2 81  1  0  0  0
  3  4  1  0  0  0
  3 82  1  0  0  0
  3 83  1  0  0  0
  4  5  1  0  0  0
  4 84  1  0  0  0
  4 85  1  0  0  0
  5  6  1  0  0  0
  5 26  1  0  0  0
  5 86  1  0  0  0
  6 25  1  0  0  0
  6 87  1  0  0  0
  6 88  1  0  0  0
  7  8  2  0  0  0
  7 26  1  0  0  0
  7 29  1  0  0  0
  8  9  1  0  0  0
  8 22  1  0  0  0
  9 10  1  0  0  0
  9 27  2  0  0  0
 10 11  2  0  0  0
 10 15  1  0  0  0
 11 12  1  0  0  0
 11 89  1  0  0  0
 12 13  2  0  0  0
 12 90  1  0  0  0
 13 14  1  0  0  0
 13 31  1  0  0  0
 14 15  2  0  0  0
 14 91  1  0  0  0
 15 92  1  0  0  0
 16 17  2  0  0  0
 16 21  1  0  0  0
 16 31  1  0  0  0
 17 18  1  0  0  0
 17 93  1  0  0  0
 18 19  2  0  0  0
 18 94  1  0  0  0
 19 20  1  0  0  0
 19 24  1  0  0  0
 20 21  2  0  0  0
 20 95  1  0  0  0
 21 23  1  0  0  0
 22 28  1  0  0  0
 22 32  2  0  0  0
 26 27  1  0  0  0
 28 96  1  0  0  0
 28 97  1  0  0  0
 29 98  1  0  0  0
 29 99  1  0  0  0
 33 34  1  0  0  0
 33 66  1  0  0  0
 33 70  2  0  0  0
 34 36  1  0  0  0
 34 59  1  0  0  0
 34100  1  0  0  0
 35 44  2  0  0  0
 35 45  1  0  0  0
 35 68  1  0  0  0
 36 56  1  0  0  0
 36101  1  0  0  0
 37 39  1  0  0  0
 37 47  1  0  0  0
 37 66  1  0  0  0
 37102  1  0  0  0
 38 43  2  0  0  0
 38 46  1  0  0  0
 38 47  1  0  0  0
 39 64  1  0  0  0
 39 67  2  0  0  0
 40 52  1  0  0  0
 40 53  2  0  0  0
 40 58  1  0  0  0
 41103  1  0  0  0
 41104  1  0  0  0
 41105  1  0  0  0
 41 48  1  0  0  0
 42 43  1  0  0  0
 42 66  1  0  0  0
 42106  1  0  0  0
 42107  1  0  0  0
 43 44  1  0  0  0
 44108  1  0  0  0
 45 46  2  0  0  0
 45109  1  0  0  0
 46110  1  0  0  0
 47111  1  0  0  0
 47112  1  0  0  0
 48 56  1  0  0  0
 48 65  1  0  0  0
 48113  1  0  0  0
 49 50  1  0  0  0
 49 53  1  0  0  0
 49 64  1  0  0  0
 49114  1  0  0  0
 50 51  1  0  0  0
 50115  1  0  0  0
 50116  1  0  0  0
 51 52  1  0  0  0
 51117  1  0  0  0
 51118  1  0  0  0
 52119  1  0  0  0
 52120  1  0  0  0
 53 54  1  0  0  0
 54 55  2  0  0  0
 54121  1  0  0  0
 55 57  1  0  0  0
 55122  1  0  0  0
 56 69  2  0  0  0
 57 58  2  0  0  0
 57123  1  0  0  0
 58124  1  0  0  0
 59 60  1  0  0  0
 59 61  1  0  0  0
 59 62  1  0  0  0
 60125  1  0  0  0
 60126  1  0  0  0
 60127  1  0  0  0
 61128  1  0  0  0
 61129  1  0  0  0
 61130  1  0  0  0
 62131  1  0  0  0
 62132  1  0  0  0
 62133  1  0  0  0
 63 65  1  0  0  0
 63134  1  0  0  0
 63135  1  0  0  0
 63136  1  0  0  0
 64137  1  0  0  0
 65138  1  0  0  0
 68 78  1  0  0  0
 71 73  2  0  0  0
 71 75  1  0  0  0
 71139  1  0  0  0
 72 74  1  0  0  0
 72 75  2  0  0  0
 72140  1  0  0  0
 73 76  1  0  0  0
 73141  1  0  0  0
 74 76  2  0  0  0
 74142  1  0  0  0
 75 77  1  0  0  0
 76 78  1  0  0  0
 77 79  1  0  0  0
 77143  1  0  0  0
 77144  1  0  0  0
 78145  1  0  0  0
 78146  1  0  0  0
 79147  1  0  0  0
M  ISO  4   1 100  68 101  78 101  79 100
M  END
> <chiral flag>
0

> <version>
0

> <s_m_source_file>
/data/baiqing/PycharmProjects/Reinvent-master-3.2/result/LINK_invent/BTK/process_docking_weight1_custom_sum_contain_oxygen_bond_distance_aromatic_linkinvent_7_9_3/rearranged_h_0125.sdf

> <i_m_source_file_index>
35

> <r_mmod_Potential_Energy-OPLS-2005>
1015.4599609375

> <r_mmod_Stretch_Energy-OPLS-2005>
443.456787109375

> <r_mmod_Bend_Energy-OPLS-2005>
422.297058105469

> <r_mmod_Torsional_Energy-OPLS-2005>
215.021911621094

> <r_mmod_Improper_Torsional_Energy-OPLS-2005>
7.18429374694824

> <r_mmod_Van_der_Waal_Energy-OPLS-2005>
133.087112426758

> <r_mmod_Electrostatic_Energy-OPLS-2005>
-379.332244873047

> <r_mmod_Solvation_Energy-OPLS-2005>
-213.699493408203

> <b_mmod_Minimization_Converged-OPLS-2005>
0

> <r_mmod_RMS_Derivative-OPLS-2005>
0.623550474643707

$$$$
35
                    3D
 Structure written by MMmdl.
163172  0  0  1  0            999 V2000
  -30.6638  -14.6088   20.4694 C   0  0  0  0  0  0
  -30.4207  -12.3660   19.4615 C   0  0  0  0  0  0
  -29.5035  -12.4945   18.2269 C   0  0  0  0  0  0
  -28.0260  -12.3431   18.6366 C   0  0  0  0  0  0
  -27.6492  -13.2232   19.8591 C   0  0  2  0  0  0
  -28.6924  -13.1065   20.9937 C   0  0  0  0  0  0
  -25.2538  -13.8190   20.5688 C   0  0  0  0  0  0
  -24.1816  -13.0444   20.9195 C   0  0  0  0  0  0
  -24.6394  -11.6918   20.8744 C   0  0  0  0  0  0
  -23.9069  -10.4296   21.0408 C   0  0  0  0  0  0
  -24.3619   -9.4209   21.9184 C   0  0  0  0  0  0
  -23.6294   -8.2245   22.0754 C   0  0  0  0  0  0
  -22.4276   -8.0283   21.3544 C   0  0  0  0  0  0
  -21.9913   -9.0257   20.4646 C   0  0  0  0  0  0
  -22.7241  -10.2137   20.3056 C   0  0  0  0  0  0
  -21.6853   -6.0737   22.5279 C   0  0  0  0  0  0
  -21.4015   -6.5641   23.8212 C   0  0  0  0  0  0
  -21.3659   -5.6793   24.9174 C   0  0  0  0  0  0
  -21.6045   -4.3056   24.7224 C   0  0  0  0  0  0
  -21.8820   -3.8148   23.4345 C   0  0  0  0  0  0
  -21.9193   -4.6965   22.3401 C   0  0  0  0  0  0
  -22.7839  -13.5231   21.1857 C   0  0  0  0  0  0
  -22.1661   -4.2151   21.0979 F   0  0  0  0  0  0
  -21.5628   -3.4540   25.7737 F   0  0  0  0  0  0
  -30.0101  -13.4090   20.4218 N   0  0  0  0  0  0
  -26.2969  -12.9386   20.3310 N   0  0  0  0  0  0
  -25.9324  -11.6534   20.5762 N   0  0  0  0  0  0
  -22.0485  -12.8220   22.0412 N   0  0  0  0  0  0
  -25.4235  -15.1912   20.4099 N   0  0  0  0  0  0
  -31.8481  -14.7025   20.1386 O   0  0  0  0  0  0
  -21.6641   -6.8880   21.4240 O   0  0  0  0  0  0
  -22.3522  -14.5538   20.6707 O   0  0  0  0  0  0
  -24.6230  -31.8619   23.2045 C   0  0  0  0  0  0
  -25.9089  -32.4791   23.8368 C   0  0  1  0  0  0
  -27.2241  -27.3548   20.1191 C   0  0  0  0  0  0
  -25.5917  -33.8591   24.2296 N   0  0  0  0  0  0
  -23.4160  -30.4849   21.5460 C   0  0  2  0  0  0
  -24.8650  -28.9442   20.1100 C   0  0  0  0  0  0
  -22.7458  -29.4633   22.4949 C   0  0  0  0  0  0
  -18.0282  -28.1383   22.8490 C   0  0  0  0  0  0
  -24.1487  -36.7299   23.2639 C   0  0  0  0  0  0
  -25.9533  -30.8045   21.3704 C   0  0  0  0  0  0
  -26.0313  -29.4343   20.7137 C   0  0  0  0  0  0
  -27.2191  -28.6498   20.7106 C   0  0  0  0  0  0
  -26.0442  -26.9064   19.4914 C   0  0  0  0  0  0
  -24.8710  -27.6839   19.4897 C   0  0  0  0  0  0
  -23.6297  -29.8187   20.1609 C   0  0  0  0  0  0
  -25.4111  -36.3091   24.0332 C   0  0  1  0  0  0
  -20.5879  -28.3683   23.1293 C   0  0  2  0  0  0
  -20.6772  -26.9410   22.5415 C   0  0  0  0  0  0
  -19.5749  -26.6385   21.5215 C   0  0  0  0  0  0
  -18.1927  -26.7929   22.1623 C   0  0  0  0  0  0
  -19.1534  -28.8850   23.2887 C   0  0  0  0  0  0
  -18.9458  -30.1454   23.8901 C   0  0  0  0  0  0
  -17.6459  -30.6588   24.0565 C   0  0  0  0  0  0
  -25.9045  -34.9458   23.5113 C   0  0  0  0  0  0
  -16.5350  -29.9086   23.6332 C   0  0  0  0  0  0
  -16.7270  -28.6503   23.0353 C   0  0  0  0  0  0
  -26.4489  -31.6589   25.0724 C   0  0  0  0  0  0
  -25.3734  -31.3712   26.1458 C   0  0  0  0  0  0
  -27.0328  -30.3019   24.6151 C   0  0  0  0  0  0
  -27.6056  -32.4318   25.7489 C   0  0  0  0  0  0
  -27.5582  -37.1802   24.8465 C   0  0  0  0  0  0
  -21.4175  -29.3039   22.3689 N   0  0  0  0  0  0
  -26.4293  -37.3783   23.9410 N   0  0  0  0  0  0
  -24.6825  -31.0659   22.0980 N   0  0  0  0  0  0
  -23.4192  -28.8176   23.3024 O   0  0  0  0  0  0
  -28.3115  -26.4854   20.1583 O   0  0  0  0  0  0
  -26.5610  -34.8920   22.4677 O   0  0  0  0  0  0
  -23.5402  -32.1402   23.7392 O   0  0  0  0  0  0
  -30.3916  -22.1842   20.5192 C   0  0  0  0  0  0
  -28.1165  -21.5069   20.1108 C   0  0  0  0  0  0
  -29.9678  -23.5294   20.7168 C   0  0  0  0  0  0
  -27.6926  -22.8540   20.3088 C   0  0  0  0  0  0
  -29.4809  -21.1361   20.2138 C   0  0  0  0  0  0
  -28.6052  -23.8999   20.6149 C   0  0  0  0  0  0
  -30.6076  -18.2840   17.7973 C   0  0  0  0  0  0
  -29.8766  -19.5342   18.3023 C   0  0  0  0  0  0
  -30.0908  -17.0174   18.4885 C   0  0  0  0  0  0
  -30.0127  -19.7107   19.8262 C   0  0  2  0  0  0
  -29.5109  -18.3871   20.5649 C   0  0  1  0  0  0
  -30.2594  -17.0835   20.0237 C   0  0  1  0  0  0
  -29.6384  -18.5094   22.0901 C   0  0  0  0  0  0
  -28.0975  -25.3214   21.0262 C   0  0  0  0  0  0
  -29.8996  -15.7378   20.5969 N   0  0  0  0  0  0
  -31.4669  -12.4576   19.1645 H   0  0  0  0  0  0
  -30.3242  -11.3777   19.9136 H   0  0  0  0  0  0
  -29.7638  -11.7410   17.4825 H   0  0  0  0  0  0
  -29.6567  -13.4637   17.7494 H   0  0  0  0  0  0
  -27.8584  -11.2916   18.8727 H   0  0  0  0  0  0
  -27.3745  -12.5713   17.7923 H   0  0  0  0  0  0
  -27.6609  -14.2539   19.5048 H   0  0  0  0  0  0
  -28.6900  -12.1025   21.4204 H   0  0  0  0  0  0
  -28.4528  -13.7868   21.8126 H   0  0  0  0  0  0
  -25.2764   -9.5685   22.4758 H   0  0  0  0  0  0
  -24.0003   -7.4637   22.7475 H   0  0  0  0  0  0
  -21.0845   -8.8775   19.8951 H   0  0  0  0  0  0
  -22.3698  -10.9676   19.6166 H   0  0  0  0  0  0
  -21.2009   -7.6149   23.9716 H   0  0  0  0  0  0
  -21.1481   -6.0524   25.9077 H   0  0  0  0  0  0
  -22.0599   -2.7610   23.2846 H   0  0  0  0  0  0
  -22.4108  -11.9884   22.4798 H   0  0  0  0  0  0
  -21.1101  -13.1241   22.2620 H   0  0  0  0  0  0
  -24.6550  -15.8439   20.5193 H   0  0  0  0  0  0
  -26.2698  -15.6317   20.0733 H   0  0  0  0  0  0
  -26.7161  -32.5478   23.1126 H   0  0  0  0  0  0
  -25.0073  -33.9743   25.0447 H   0  0  0  0  0  0
  -22.7085  -31.3044   21.4034 H   0  0  0  0  0  0
  -23.3749  -35.9632   23.3305 H   0  0  0  0  0  0
  -24.3578  -36.8914   22.2052 H   0  0  0  0  0  0
  -23.7238  -37.6502   23.6657 H   0  0  0  0  0  0
  -26.0783  -31.5693   20.6024 H   0  0  0  0  0  0
  -26.8358  -30.8552   21.9965 H   0  0  0  0  0  0
  -28.1142  -29.0166   21.1934 H   0  0  0  0  0  0
  -26.0261  -25.9319   19.0233 H   0  0  0  0  0  0
  -23.9770  -27.3018   19.0164 H   0  0  0  0  0  0
  -23.7437  -30.5949   19.4032 H   0  0  0  0  0  0
  -22.7513  -29.2440   19.8615 H   0  0  0  0  0  0
  -25.1289  -36.1950   25.0825 H   0  0  0  0  0  0
  -20.9973  -28.3256   24.1413 H   0  0  0  0  0  0
  -20.5677  -26.2291   23.3610 H   0  0  0  0  0  0
  -21.6641  -26.7445   22.1208 H   0  0  0  0  0  0
  -19.6912  -25.6295   21.1243 H   0  0  0  0  0  0
  -19.6689  -27.3196   20.6746 H   0  0  0  0  0  0
  -17.4199  -26.6683   21.4020 H   0  0  0  0  0  0
  -18.0321  -26.0066   22.9014 H   0  0  0  0  0  0
  -19.7935  -30.7270   24.2271 H   0  0  0  0  0  0
  -17.5014  -31.6269   24.5164 H   0  0  0  0  0  0
  -15.5352  -30.2989   23.7656 H   0  0  0  0  0  0
  -15.8669  -28.0825   22.7066 H   0  0  0  0  0  0
  -24.5914  -30.7054   25.7791 H   0  0  0  0  0  0
  -24.8919  -32.2872   26.4892 H   0  0  0  0  0  0
  -25.8072  -30.8890   27.0228 H   0  0  0  0  0  0
  -26.2892  -29.6771   24.1190 H   0  0  0  0  0  0
  -27.4058  -29.7270   25.4637 H   0  0  0  0  0  0
  -27.8747  -30.4318   23.9345 H   0  0  0  0  0  0
  -27.2674  -33.3617   26.2072 H   0  0  0  0  0  0
  -28.3860  -32.6878   25.0311 H   0  0  0  0  0  0
  -28.0730  -31.8439   26.5399 H   0  0  0  0  0  0
  -28.2599  -38.0100   24.7517 H   0  0  0  0  0  0
  -28.1078  -36.2632   24.6286 H   0  0  0  0  0  0
  -27.2301  -37.1448   25.8868 H   0  0  0  0  0  0
  -20.9347  -29.8759   21.6901 H   0  0  0  0  0  0
  -26.0178  -38.2859   24.1414 H   0  0  0  0  0  0
  -31.4484  -21.9653   20.5864 H   0  0  0  0  0  0
  -27.3817  -20.7557   19.8555 H   0  0  0  0  0  0
  -30.7009  -24.2811   20.9748 H   0  0  0  0  0  0
  -26.6371  -23.0795   20.2449 H   0  0  0  0  0  0
  -31.6802  -18.3867   17.9687 H   0  0  0  0  0  0
  -30.4774  -18.1937   16.7183 H   0  0  0  0  0  0
  -28.8228  -19.4876   18.0242 H   0  0  0  0  0  0
  -30.2876  -20.4077   17.7936 H   0  0  0  0  0  0
  -30.6288  -16.1623   18.0772 H   0  0  0  0  0  0
  -29.0403  -16.8639   18.2357 H   0  0  0  0  0  0
  -31.0840  -19.7544   20.0299 H   0  0  0  0  0  0
  -28.4480  -18.2770   20.3441 H   0  0  0  0  0  0
  -31.3209  -17.2322   20.2333 H   0  0  0  0  0  0
  -30.6799  -18.6305   22.3893 H   0  0  0  0  0  0
  -29.2478  -17.6250   22.5935 H   0  0  0  0  0  0
  -29.0828  -19.3697   22.4644 H   0  0  0  0  0  0
  -28.5833  -25.5603   21.9729 H   0  0  0  0  0  0
  -27.0431  -25.2170   21.2887 H   0  0  0  0  0  0
  -28.9389  -15.5997   20.8708 H   0  0  0  0  0  0
  1 25  1  0  0  0
  1 30  2  0  0  0
  1 85  1  0  0  0
  2  3  1  0  0  0
  2 25  1  0  0  0
  2 86  1  0  0  0
  2 87  1  0  0  0
  3  4  1  0  0  0
  3 88  1  0  0  0
  3 89  1  0  0  0
  4  5  1  0  0  0
  4 90  1  0  0  0
  4 91  1  0  0  0
  5  6  1  0  0  0
  5 26  1  0  0  0
  5 92  1  0  0  0
  6 25  1  0  0  0
  6 93  1  0  0  0
  6 94  1  0  0  0
  7  8  2  0  0  0
  7 26  1  0  0  0
  7 29  1  0  0  0
  8  9  1  0  0  0
  8 22  1  0  0  0
  9 10  1  0  0  0
  9 27  2  0  0  0
 10 11  2  0  0  0
 10 15  1  0  0  0
 11 12  1  0  0  0
 11 95  1  0  0  0
 12 13  2  0  0  0
 12 96  1  0  0  0
 13 14  1  0  0  0
 13 31  1  0  0  0
 14 15  2  0  0  0
 14 97  1  0  0  0
 15 98  1  0  0  0
 16 17  2  0  0  0
 16 21  1  0  0  0
 16 31  1  0  0  0
 17 18  1  0  0  0
 17 99  1  0  0  0
 18 19  2  0  0  0
 18100  1  0  0  0
 19 20  1  0  0  0
 19 24  1  0  0  0
 20 21  2  0  0  0
 20101  1  0  0  0
 21 23  1  0  0  0
 22 28  1  0  0  0
 22 32  2  0  0  0
 26 27  1  0  0  0
 28102  1  0  0  0
 28103  1  0  0  0
 29104  1  0  0  0
 29105  1  0  0  0
 33 34  1  0  0  0
 33 66  1  0  0  0
 33 70  2  0  0  0
 34 36  1  0  0  0
 34 59  1  0  0  0
 34106  1  0  0  0
 35 44  2  0  0  0
 35 45  1  0  0  0
 35 68  1  0  0  0
 36 56  1  0  0  0
 36107  1  0  0  0
 37 39  1  0  0  0
 37 47  1  0  0  0
 37 66  1  0  0  0
 37108  1  0  0  0
 38 43  2  0  0  0
 38 46  1  0  0  0
 38 47  1  0  0  0
 39 64  1  0  0  0
 39 67  2  0  0  0
 40 52  1  0  0  0
 40 53  2  0  0  0
 40 58  1  0  0  0
 41109  1  0  0  0
 41110  1  0  0  0
 41111  1  0  0  0
 41 48  1  0  0  0
 42 43  1  0  0  0
 42 66  1  0  0  0
 42112  1  0  0  0
 42113  1  0  0  0
 43 44  1  0  0  0
 44114  1  0  0  0
 45 46  2  0  0  0
 45115  1  0  0  0
 46116  1  0  0  0
 47117  1  0  0  0
 47118  1  0  0  0
 48 56  1  0  0  0
 48 65  1  0  0  0
 48119  1  0  0  0
 49 50  1  0  0  0
 49 53  1  0  0  0
 49 64  1  0  0  0
 49120  1  0  0  0
 50 51  1  0  0  0
 50121  1  0  0  0
 50122  1  0  0  0
 51 52  1  0  0  0
 51123  1  0  0  0
 51124  1  0  0  0
 52125  1  0  0  0
 52126  1  0  0  0
 53 54  1  0  0  0
 54 55  2  0  0  0
 54127  1  0  0  0
 55 57  1  0  0  0
 55128  1  0  0  0
 56 69  2  0  0  0
 57 58  2  0  0  0
 57129  1  0  0  0
 58130  1  0  0  0
 59 60  1  0  0  0
 59 61  1  0  0  0
 59 62  1  0  0  0
 60131  1  0  0  0
 60132  1  0  0  0
 60133  1  0  0  0
 61134  1  0  0  0
 61135  1  0  0  0
 61136  1  0  0  0
 62137  1  0  0  0
 62138  1  0  0  0
 62139  1  0  0  0
 63 65  1  0  0  0
 63140  1  0  0  0
 63141  1  0  0  0
 63142  1  0  0  0
 64143  1  0  0  0
 65144  1  0  0  0
 68 84  1  0  0  0
 71 73  2  0  0  0
 71 75  1  0  0  0
 71145  1  0  0  0
 72 74  1  0  0  0
 72 75  2  0  0  0
 72146  1  0  0  0
 73 76  1  0  0  0
 73147  1  0  0  0
 74 76  2  0  0  0
 74148  1  0  0  0
 75 80  1  0  0  0
 76 84  1  0  0  0
 77 78  1  0  0  0
 77 79  1  0  0  0
 77149  1  0  0  0
 77150  1  0  0  0
 78 80  1  0  0  0
 78151  1  0  0  0
 78152  1  0  0  0
 79 82  1  0  0  0
 79153  1  0  0  0
 79154  1  0  0  0
 80 81  1  0  0  0
 80155  1  0  0  0
 81 82  1  0  0  0
 81 83  1  0  0  0
 81156  1  0  0  0
 82 85  1  0  0  0
 82157  1  0  0  0
 83158  1  0  0  0
 83159  1  0  0  0
 83160  1  0  0  0
 84161  1  0  0  0
 84162  1  0  0  0
 85163  1  0  0  0
M  ISO  4   1 100  68 101  84 101  85 100
M  END
> <chiral flag>
0

> <version>
0

> <s_m_source_file>
/data/baiqing/PycharmProjects/Reinvent-master-3.2/result/LINK_invent/BTK/process_docking_weight1_custom_sum_contain_oxygen_bond_distance_aromatic_linkinvent_7_9_3/rearranged_h_0125.sdf

> <i_m_source_file_index>
36

> <r_mmod_Potential_Energy-OPLS-2005>
92.5011291503906

> <r_mmod_Stretch_Energy-OPLS-2005>
70.2646636962891

> <r_mmod_Bend_Energy-OPLS-2005>
128.378311157227

> <r_mmod_Torsional_Energy-OPLS-2005>
271.147857666016

> <r_mmod_Improper_Torsional_Energy-OPLS-2005>
9.78236484527588

> <r_mmod_Van_der_Waal_Energy-OPLS-2005>
138.460174560547

> <r_mmod_Electrostatic_Energy-OPLS-2005>
-371.857055664062

> <r_mmod_Solvation_Energy-OPLS-2005>
-196.339248657227

> <b_mmod_Minimization_Converged-OPLS-2005>
0

> <r_mmod_RMS_Derivative-OPLS-2005>
0.243457853794098

$$$$
36
                    3D
 Structure written by MMmdl.
169178  0  0  1  0            999 V2000
  -30.5956  -14.6408   20.5200 C   0  0  0  0  0  0
  -30.4485  -12.3965   19.4501 C   0  0  0  0  0  0
  -29.5112  -12.5221   18.2267 C   0  0  0  0  0  0
  -28.0328  -12.3531   18.6366 C   0  0  0  0  0  0
  -27.6584  -13.2105   19.8743 C   0  0  2  0  0  0
  -28.7037  -13.0358   21.0006 C   0  0  0  0  0  0
  -25.2571  -13.8150   20.5685 C   0  0  0  0  0  0
  -24.1829  -13.0422   20.9189 C   0  0  0  0  0  0
  -24.6392  -11.6893   20.8745 C   0  0  0  0  0  0
  -23.9062  -10.4279   21.0406 C   0  0  0  0  0  0
  -24.3614   -9.4196   21.9178 C   0  0  0  0  0  0
  -23.6287   -8.2233   22.0748 C   0  0  0  0  0  0
  -22.4267   -8.0275   21.3537 C   0  0  0  0  0  0
  -21.9903   -9.0245   20.4639 C   0  0  0  0  0  0
  -22.7232  -10.2126   20.3052 C   0  0  0  0  0  0
  -21.6851   -6.0730   22.5278 C   0  0  0  0  0  0
  -21.4012   -6.5632   23.8216 C   0  0  0  0  0  0
  -21.3662   -5.6782   24.9174 C   0  0  0  0  0  0
  -21.6052   -4.3046   24.7226 C   0  0  0  0  0  0
  -21.8820   -3.8142   23.4345 C   0  0  0  0  0  0
  -21.9188   -4.6958   22.3403 C   0  0  0  0  0  0
  -22.7850  -13.5225   21.1848 C   0  0  0  0  0  0
  -22.1657   -4.2149   21.0978 F   0  0  0  0  0  0
  -21.5634   -3.4529   25.7738 F   0  0  0  0  0  0
  -30.0204  -13.3981   20.4473 N   0  0  0  0  0  0
  -26.3014  -12.9324   20.3370 N   0  0  0  0  0  0
  -25.9327  -11.6487   20.5788 N   0  0  0  0  0  0
  -22.0494  -12.8221   22.0409 N   0  0  0  0  0  0
  -25.4282  -15.1870   20.4083 N   0  0  0  0  0  0
  -31.7349  -14.8551   20.0940 O   0  0  0  0  0  0
  -21.6636   -6.8870   21.4239 O   0  0  0  0  0  0
  -22.3539  -14.5528   20.6685 O   0  0  0  0  0  0
  -24.6245  -31.8592   23.2005 C   0  0  0  0  0  0
  -25.9096  -32.4775   23.8337 C   0  0  1  0  0  0
  -27.2361  -27.3289   20.1195 C   0  0  0  0  0  0
  -25.5912  -33.8577   24.2264 N   0  0  0  0  0  0
  -23.4180  -30.4790   21.5432 C   0  0  2  0  0  0
  -24.8661  -28.9261   20.1176 C   0  0  0  0  0  0
  -22.7459  -29.4620   22.4952 C   0  0  0  0  0  0
  -18.0281  -28.1381   22.8491 C   0  0  0  0  0  0
  -24.1491  -36.7294   23.2639 C   0  0  0  0  0  0
  -25.9566  -30.7933   21.3678 C   0  0  0  0  0  0
  -26.0332  -29.4193   20.7136 C   0  0  0  0  0  0
  -27.2214  -28.6342   20.6976 C   0  0  0  0  0  0
  -26.0441  -26.8727   19.5167 C   0  0  0  0  0  0
  -24.8724  -27.6580   19.5116 C   0  0  0  0  0  0
  -23.6325  -29.8051   20.1618 C   0  0  0  0  0  0
  -25.4116  -36.3083   24.0327 C   0  0  1  0  0  0
  -20.5880  -28.3677   23.1296 C   0  0  2  0  0  0
  -20.6774  -26.9403   22.5416 C   0  0  0  0  0  0
  -19.5754  -26.6380   21.5216 C   0  0  0  0  0  0
  -18.1929  -26.7927   22.1624 C   0  0  0  0  0  0
  -19.1534  -28.8845   23.2890 C   0  0  0  0  0  0
  -18.9459  -30.1451   23.8903 C   0  0  0  0  0  0
  -17.6461  -30.6586   24.0560 C   0  0  0  0  0  0
  -25.9048  -34.9452   23.5095 C   0  0  0  0  0  0
  -16.5351  -29.9081   23.6334 C   0  0  0  0  0  0
  -16.7270  -28.6497   23.0356 C   0  0  0  0  0  0
  -26.4485  -31.6589   25.0706 C   0  0  0  0  0  0
  -25.3730  -31.3729   26.1440 C   0  0  0  0  0  0
  -27.0324  -30.3013   24.6154 C   0  0  0  0  0  0
  -27.6033  -32.4333   25.7484 C   0  0  0  0  0  0
  -27.5582  -37.1806   24.8465 C   0  0  0  0  0  0
  -21.4174  -29.3035   22.3692 N   0  0  0  0  0  0
  -26.4296  -37.3774   23.9404 N   0  0  0  0  0  0
  -24.6847  -31.0608   22.0944 N   0  0  0  0  0  0
  -23.4187  -28.8169   23.3035 O   0  0  0  0  0  0
  -28.3922  -26.5399   20.1154 O   0  0  0  0  0  0
  -26.5621  -34.8919   22.4666 O   0  0  0  0  0  0
  -23.5412  -32.1385   23.7343 O   0  0  0  0  0  0
  -32.1291  -24.9165   21.2229 C   0  0  0  0  0  0
  -32.1605  -23.6266   22.0208 C   0  0  0  0  0  0
  -30.6794  -25.3556   21.0370 C   0  0  0  0  0  0
  -30.2017  -18.0685   21.8195 C   0  0  0  0  0  0
  -29.9380  -17.7553   19.3473 C   0  0  0  0  0  0
  -31.4298  -22.5415   21.2367 C   0  0  0  0  0  0
  -29.6371  -19.5353   21.7054 C   0  0  0  0  0  0
  -29.3854  -19.2239   19.2244 C   0  0  0  0  0  0
  -29.7429  -24.3318   20.3257 C   0  0  1  0  0  0
  -29.6206  -17.1327   20.7274 C   0  0  1  0  0  0
  -29.8976  -20.2197   20.3200 C   0  0  1  0  0  0
  -29.9222  -22.8273   20.9456 C   0  0  1  0  0  0
  -28.3230  -25.0694   20.3044 C   0  0  0  0  0  0
  -29.7429  -15.6379   20.9079 N   0  0  0  0  0  0
  -29.3523  -21.6504   20.1537 N   0  3  0  0  0  0
  -31.4873  -12.5405   19.1474 H   0  0  0  0  0  0
  -30.3976  -11.3918   19.8728 H   0  0  0  0  0  0
  -29.7759  -11.7829   17.4696 H   0  0  0  0  0  0
  -29.6482  -13.4993   17.7603 H   0  0  0  0  0  0
  -27.8662  -11.2971   18.8538 H   0  0  0  0  0  0
  -27.3802  -12.5973   17.7977 H   0  0  0  0  0  0
  -27.6844  -14.2502   19.5491 H   0  0  0  0  0  0
  -28.7164  -12.0016   21.3474 H   0  0  0  0  0  0
  -28.4466  -13.6342   21.8763 H   0  0  0  0  0  0
  -25.2758   -9.5675   22.4743 H   0  0  0  0  0  0
  -23.9995   -7.4631   22.7466 H   0  0  0  0  0  0
  -21.0834   -8.8762   19.8946 H   0  0  0  0  0  0
  -22.3690  -10.9656   19.6158 H   0  0  0  0  0  0
  -21.2004   -7.6142   23.9715 H   0  0  0  0  0  0
  -21.1488   -6.0517   25.9077 H   0  0  0  0  0  0
  -22.0600   -2.7606   23.2852 H   0  0  0  0  0  0
  -22.4100  -11.9882   22.4801 H   0  0  0  0  0  0
  -21.1114  -13.1251   22.2610 H   0  0  0  0  0  0
  -24.6579  -15.8392   20.5090 H   0  0  0  0  0  0
  -26.2761  -15.6261   20.0728 H   0  0  0  0  0  0
  -26.7157  -32.5448   23.1081 H   0  0  0  0  0  0
  -25.0062  -33.9725   25.0409 H   0  0  0  0  0  0
  -22.7118  -31.2990   21.3964 H   0  0  0  0  0  0
  -23.3750  -35.9630   23.3308 H   0  0  0  0  0  0
  -24.3576  -36.8911   22.2051 H   0  0  0  0  0  0
  -23.7250  -37.6500   23.6658 H   0  0  0  0  0  0
  -26.0862  -31.5569   20.6002 H   0  0  0  0  0  0
  -26.8367  -30.8434   21.9968 H   0  0  0  0  0  0
  -28.1240  -29.0157   21.1532 H   0  0  0  0  0  0
  -26.0063  -25.9066   19.0369 H   0  0  0  0  0  0
  -23.9762  -27.2739   19.0434 H   0  0  0  0  0  0
  -23.7496  -30.5769   19.4003 H   0  0  0  0  0  0
  -22.7535  -29.2308   19.8635 H   0  0  0  0  0  0
  -25.1302  -36.1931   25.0820 H   0  0  0  0  0  0
  -20.9973  -28.3245   24.1419 H   0  0  0  0  0  0
  -20.5679  -26.2282   23.3607 H   0  0  0  0  0  0
  -21.6640  -26.7443   22.1207 H   0  0  0  0  0  0
  -19.6913  -25.6288   21.1247 H   0  0  0  0  0  0
  -19.6693  -27.3191   20.6745 H   0  0  0  0  0  0
  -17.4200  -26.6678   21.4022 H   0  0  0  0  0  0
  -18.0326  -26.0063   22.9015 H   0  0  0  0  0  0
  -19.7930  -30.7267   24.2273 H   0  0  0  0  0  0
  -17.5011  -31.6271   24.5152 H   0  0  0  0  0  0
  -15.5352  -30.2986   23.7651 H   0  0  0  0  0  0
  -15.8669  -28.0817   22.7077 H   0  0  0  0  0  0
  -24.5891  -30.7090   25.7774 H   0  0  0  0  0  0
  -24.8941  -32.2902   26.4877 H   0  0  0  0  0  0
  -25.8066  -30.8897   27.0207 H   0  0  0  0  0  0
  -26.2890  -29.6769   24.1182 H   0  0  0  0  0  0
  -27.4026  -29.7260   25.4650 H   0  0  0  0  0  0
  -27.8758  -30.4291   23.9363 H   0  0  0  0  0  0
  -27.2620  -33.3623   26.2063 H   0  0  0  0  0  0
  -28.3846  -32.6918   25.0325 H   0  0  0  0  0  0
  -28.0698  -31.8467   26.5409 H   0  0  0  0  0  0
  -28.2601  -38.0101   24.7507 H   0  0  0  0  0  0
  -28.1081  -36.2634   24.6301 H   0  0  0  0  0  0
  -27.2301  -37.1464   25.8869 H   0  0  0  0  0  0
  -20.9342  -29.8746   21.6899 H   0  0  0  0  0  0
  -26.0180  -38.2851   24.1398 H   0  0  0  0  0  0
  -32.6181  -24.7831   20.2562 H   0  0  0  0  0  0
  -32.6879  -25.6933   21.7468 H   0  0  0  0  0  0
  -31.7010  -23.7673   23.0007 H   0  0  0  0  0  0
  -33.1940  -23.3263   22.2008 H   0  0  0  0  0  0
  -30.7154  -26.2871   20.4706 H   0  0  0  0  0  0
  -30.2627  -25.6119   22.0123 H   0  0  0  0  0  0
  -29.9636  -17.6728   22.8071 H   0  0  0  0  0  0
  -31.2910  -18.0831   21.7540 H   0  0  0  0  0  0
  -31.0160  -17.7467   19.1782 H   0  0  0  0  0  0
  -29.4997  -17.1416   18.5591 H   0  0  0  0  0  0
  -31.5513  -21.6304   21.8185 H   0  0  0  0  0  0
  -31.9600  -22.3816   20.2959 H   0  0  0  0  0  0
  -30.0574  -20.1345   22.5122 H   0  0  0  0  0  0
  -28.5630  -19.5113   21.8945 H   0  0  0  0  0  0
  -28.2956  -19.1874   19.2540 H   0  0  0  0  0  0
  -29.6434  -19.6075   18.2364 H   0  0  0  0  0  0
  -30.0875  -24.2827   19.2920 H   0  0  0  0  0  0
  -28.5394  -17.2434   20.8295 H   0  0  0  0  0  0
  -30.9760  -20.2527   20.1655 H   0  0  0  0  0  0
  -29.4142  -22.8170   21.9114 H   0  0  0  0  0  0
  -27.8130  -24.8845   21.2506 H   0  0  0  0  0  0
  -27.7089  -24.6141   19.5284 H   0  0  0  0  0  0
  -28.8925  -15.2370   21.2749 H   0  0  0  0  0  0
  -28.3537  -21.6341   20.2919 H   0  0  0  0  0  0
  -29.4948  -21.8801   19.1832 H   0  0  0  0  0  0
  1 25  1  0  0  0
  1 30  2  0  0  0
  1 84  1  0  0  0
  2  3  1  0  0  0
  2 25  1  0  0  0
  2 86  1  0  0  0
  2 87  1  0  0  0
  3  4  1  0  0  0
  3 88  1  0  0  0
  3 89  1  0  0  0
  4  5  1  0  0  0
  4 90  1  0  0  0
  4 91  1  0  0  0
  5  6  1  0  0  0
  5 26  1  0  0  0
  5 92  1  0  0  0
  6 25  1  0  0  0
  6 93  1  0  0  0
  6 94  1  0  0  0
  7  8  2  0  0  0
  7 26  1  0  0  0
  7 29  1  0  0  0
  8  9  1  0  0  0
  8 22  1  0  0  0
  9 10  1  0  0  0
  9 27  2  0  0  0
 10 11  2  0  0  0
 10 15  1  0  0  0
 11 12  1  0  0  0
 11 95  1  0  0  0
 12 13  2  0  0  0
 12 96  1  0  0  0
 13 14  1  0  0  0
 13 31  1  0  0  0
 14 15  2  0  0  0
 14 97  1  0  0  0
 15 98  1  0  0  0
 16 17  2  0  0  0
 16 21  1  0  0  0
 16 31  1  0  0  0
 17 18  1  0  0  0
 17 99  1  0  0  0
 18 19  2  0  0  0
 18100  1  0  0  0
 19 20  1  0  0  0
 19 24  1  0  0  0
 20 21  2  0  0  0
 20101  1  0  0  0
 21 23  1  0  0  0
 22 28  1  0  0  0
 22 32  2  0  0  0
 26 27  1  0  0  0
 28102  1  0  0  0
 28103  1  0  0  0
 29104  1  0  0  0
 29105  1  0  0  0
 33 34  1  0  0  0
 33 66  1  0  0  0
 33 70  2  0  0  0
 34 36  1  0  0  0
 34 59  1  0  0  0
 34106  1  0  0  0
 35 44  2  0  0  0
 35 45  1  0  0  0
 35 68  1  0  0  0
 36 56  1  0  0  0
 36107  1  0  0  0
 37 39  1  0  0  0
 37 47  1  0  0  0
 37 66  1  0  0  0
 37108  1  0  0  0
 38 43  2  0  0  0
 38 46  1  0  0  0
 38 47  1  0  0  0
 39 64  1  0  0  0
 39 67  2  0  0  0
 40 52  1  0  0  0
 40 53  2  0  0  0
 40 58  1  0  0  0
 41109  1  0  0  0
 41110  1  0  0  0
 41111  1  0  0  0
 41 48  1  0  0  0
 42 43  1  0  0  0
 42 66  1  0  0  0
 42112  1  0  0  0
 42113  1  0  0  0
 43 44  1  0  0  0
 44114  1  0  0  0
 45 46  2  0  0  0
 45115  1  0  0  0
 46116  1  0  0  0
 47117  1  0  0  0
 47118  1  0  0  0
 48 56  1  0  0  0
 48 65  1  0  0  0
 48119  1  0  0  0
 49 50  1  0  0  0
 49 53  1  0  0  0
 49 64  1  0  0  0
 49120  1  0  0  0
 50 51  1  0  0  0
 50121  1  0  0  0
 50122  1  0  0  0
 51 52  1  0  0  0
 51123  1  0  0  0
 51124  1  0  0  0
 52125  1  0  0  0
 52126  1  0  0  0
 53 54  1  0  0  0
 54 55  2  0  0  0
 54127  1  0  0  0
 55 57  1  0  0  0
 55128  1  0  0  0
 56 69  2  0  0  0
 57 58  2  0  0  0
 57129  1  0  0  0
 58130  1  0  0  0
 59 60  1  0  0  0
 59 61  1  0  0  0
 59 62  1  0  0  0
 60131  1  0  0  0
 60132  1  0  0  0
 60133  1  0  0  0
 61134  1  0  0  0
 61135  1  0  0  0
 61136  1  0  0  0
 62137  1  0  0  0
 62138  1  0  0  0
 62139  1  0  0  0
 63 65  1  0  0  0
 63140  1  0  0  0
 63141  1  0  0  0
 63142  1  0  0  0
 64143  1  0  0  0
 65144  1  0  0  0
 68 83  1  0  0  0
 71 72  1  0  0  0
 71 73  1  0  0  0
 71145  1  0  0  0
 71146  1  0  0  0
 72 76  1  0  0  0
 72147  1  0  0  0
 72148  1  0  0  0
 73 79  1  0  0  0
 73149  1  0  0  0
 73150  1  0  0  0
 74 77  1  0  0  0
 74 80  1  0  0  0
 74151  1  0  0  0
 74152  1  0  0  0
 75 78  1  0  0  0
 75 80  1  0  0  0
 75153  1  0  0  0
 75154  1  0  0  0
 76 82  1  0  0  0
 76155  1  0  0  0
 76156  1  0  0  0
 77 81  1  0  0  0
 77157  1  0  0  0
 77158  1  0  0  0
 78 81  1  0  0  0
 78159  1  0  0  0
 78160  1  0  0  0
 79 82  1  0  0  0
 79 83  1  0  0  0
 79161  1  0  0  0
 80 84  1  0  0  0
 80162  1  0  0  0
 81 85  1  0  0  0
 81163  1  0  0  0
 82 85  1  0  0  0
 82164  1  0  0  0
 83165  1  0  0  0
 83166  1  0  0  0
 84167  1  0  0  0
 85168  1  0  0  0
 85169  1  0  0  0
M  CHG  1  85   1
M  ISO  4   1 100  68 101  83 101  84 100
M  END
> <chiral flag>
0

> <version>
0

> <s_m_source_file>
/data/baiqing/PycharmProjects/Reinvent-master-3.2/result/LINK_invent/BTK/process_docking_weight1_custom_sum_contain_oxygen_bond_distance_aromatic_linkinvent_7_9_3/rearranged_h_0125.sdf

> <i_m_source_file_index>
37

> <r_mmod_Potential_Energy-OPLS-2005>
19.7594375610352

> <r_mmod_Stretch_Energy-OPLS-2005>
94.247184753418

> <r_mmod_Bend_Energy-OPLS-2005>
184.864410400391

> <r_mmod_Torsional_Energy-OPLS-2005>
267.019073486328

> <r_mmod_Improper_Torsional_Energy-OPLS-2005>
5.03994178771973

> <r_mmod_Van_der_Waal_Energy-OPLS-2005>
132.060256958008

> <r_mmod_Electrostatic_Energy-OPLS-2005>
-246.447494506836

> <r_mmod_Solvation_Energy-OPLS-2005>
-460.546661376953

> <b_mmod_Minimization_Converged-OPLS-2005>
0

> <r_mmod_RMS_Derivative-OPLS-2005>
1.28933894634247

$$$$
37
                    3D
 Structure written by MMmdl.
170179  0  0  1  0            999 V2000
  -30.5653  -14.7843   20.4552 C   0  0  0  0  0  0
  -30.4488  -12.4868   19.4588 C   0  0  0  0  0  0
  -29.5113  -12.5109   18.2312 C   0  0  0  0  0  0
  -28.0384  -12.3239   18.6509 C   0  0  0  0  0  0
  -27.6376  -13.2265   19.8467 C   0  0  2  0  0  0
  -28.6880  -13.1724   20.9762 C   0  0  0  0  0  0
  -25.2498  -13.8176   20.5706 C   0  0  0  0  0  0
  -24.1793  -13.0433   20.9226 C   0  0  0  0  0  0
  -24.6381  -11.6902   20.8765 C   0  0  0  0  0  0
  -23.9053  -10.4291   21.0417 C   0  0  0  0  0  0
  -24.3599   -9.4204   21.9192 C   0  0  0  0  0  0
  -23.6279   -8.2233   22.0748 C   0  0  0  0  0  0
  -22.4259   -8.0271   21.3536 C   0  0  0  0  0  0
  -21.9895   -9.0248   20.4646 C   0  0  0  0  0  0
  -22.7223  -10.2131   20.3067 C   0  0  0  0  0  0
  -21.6861   -6.0722   22.5280 C   0  0  0  0  0  0
  -21.4022   -6.5634   23.8210 C   0  0  0  0  0  0
  -21.3654   -5.6794   24.9178 C   0  0  0  0  0  0
  -21.6040   -4.3057   24.7235 C   0  0  0  0  0  0
  -21.8820   -3.8139   23.4363 C   0  0  0  0  0  0
  -21.9188   -4.6947   22.3409 C   0  0  0  0  0  0
  -22.7808  -13.5209   21.1883 C   0  0  0  0  0  0
  -22.1661   -4.2130   21.0988 F   0  0  0  0  0  0
  -21.5616   -3.4541   25.7747 F   0  0  0  0  0  0
  -29.9778  -13.5417   20.3797 N   0  0  0  0  0  0
  -26.2922  -12.9382   20.3286 N   0  0  0  0  0  0
  -25.9312  -11.6533   20.5768 N   0  0  0  0  0  0
  -22.0472  -12.8188   22.0445 N   0  0  0  0  0  0
  -25.4166  -15.1908   20.4093 N   0  0  0  0  0  0
  -31.7765  -14.9022   20.2404 O   0  0  0  0  0  0
  -21.6637   -6.8855   21.4232 O   0  0  0  0  0  0
  -22.3487  -14.5520   20.6731 O   0  0  0  0  0  0
  -24.6335  -31.8570   23.2001 C   0  0  0  0  0  0
  -25.9142  -32.4770   23.8355 C   0  0  1  0  0  0
  -27.2224  -27.2477   20.1245 C   0  0  0  0  0  0
  -25.5927  -33.8578   24.2272 N   0  0  0  0  0  0
  -23.4313  -30.4819   21.5443 C   0  0  2  0  0  0
  -24.8780  -28.9243   20.1190 C   0  0  0  0  0  0
  -22.7502  -29.4622   22.4896 C   0  0  0  0  0  0
  -18.0299  -28.1351   22.8478 C   0  0  0  0  0  0
  -24.1482  -36.7299   23.2644 C   0  0  0  0  0  0
  -25.9811  -30.7623   21.3819 C   0  0  0  0  0  0
  -26.0539  -29.3833   20.7236 C   0  0  0  0  0  0
  -27.2298  -28.5601   20.7134 C   0  0  0  0  0  0
  -26.0170  -26.8618   19.4920 C   0  0  0  0  0  0
  -24.8622  -27.6671   19.4986 C   0  0  0  0  0  0
  -23.6570  -29.8251   20.1601 C   0  0  0  0  0  0
  -25.4109  -36.3085   24.0330 C   0  0  1  0  0  0
  -20.5911  -28.3710   23.1240 C   0  0  2  0  0  0
  -20.6810  -26.9411   22.5408 C   0  0  0  0  0  0
  -19.5783  -26.6357   21.5208 C   0  0  0  0  0  0
  -18.1949  -26.7890   22.1610 C   0  0  0  0  0  0
  -19.1557  -28.8837   23.2859 C   0  0  0  0  0  0
  -18.9481  -30.1420   23.8904 C   0  0  0  0  0  0
  -17.6497  -30.6572   24.0545 C   0  0  0  0  0  0
  -25.9047  -34.9449   23.5101 C   0  0  0  0  0  0
  -16.5378  -29.9081   23.6294 C   0  0  0  0  0  0
  -16.7293  -28.6477   23.0346 C   0  0  0  0  0  0
  -26.4507  -31.6599   25.0733 C   0  0  0  0  0  0
  -25.3727  -31.3772   26.1457 C   0  0  0  0  0  0
  -27.0351  -30.3021   24.6200 C   0  0  0  0  0  0
  -27.6061  -32.4349   25.7500 C   0  0  0  0  0  0
  -27.5571  -37.1794   24.8461 C   0  0  0  0  0  0
  -21.4205  -29.3078   22.3629 N   0  0  0  0  0  0
  -26.4286  -37.3780   23.9409 N   0  0  0  0  0  0
  -24.7018  -31.0515   22.0991 N   0  0  0  0  0  0
  -23.4167  -28.8115   23.2999 O   0  0  0  0  0  0
  -28.3119  -26.3376   20.1773 O   0  0  0  0  0  0
  -26.5615  -34.8913   22.4655 O   0  0  0  0  0  0
  -23.5475  -32.1411   23.7276 O   0  0  0  0  0  0
  -26.0479  -19.3115   22.8738 C   0  0  0  0  0  0
  -29.3513  -17.2563   22.3399 C   0  0  0  0  0  0
  -29.1633  -18.4641   23.0460 C   0  0  0  0  0  0
  -29.3639  -19.6989   22.3623 C   0  0  0  0  0  0
  -29.7120  -17.2364   20.9829 C   0  0  0  0  0  0
  -29.5565  -19.6895   20.9547 C   0  0  0  0  0  0
  -29.3858  -17.4202   25.4250 C   0  0  0  0  0  0
  -28.4227  -17.3277   26.6094 C   0  0  0  0  0  0
  -28.6665  -18.3996   24.5026 C   0  0  2  0  0  0
  -27.2108  -17.9229   24.6542 C   0  0  2  0  0  0
  -29.4059  -21.0142   23.1427 C   0  0  0  0  0  0
  -26.1218  -18.9559   24.3028 C   0  0  0  0  0  0
  -29.1286  -23.6658   20.2991 C   0  0  0  0  0  0
  -28.6357  -22.1040   20.3005 C   0  0  0  0  0  0
  -28.0262  -24.8524   20.1025 C   0  0  0  0  0  0
  -25.9827  -19.5920   21.7501 N   0  0  0  0  0  0
  -29.7510  -18.4663   20.3104 N   0  0  0  0  0  0
  -27.0797  -17.4936   26.0533 N   0  0  0  0  0  0
  -29.6996  -15.8736   20.4028 N   0  0  0  0  0  0
  -29.6229  -20.9380   20.2131 N   0  0  0  0  0  0
  -31.4814  -12.6537   19.1450 H   0  0  0  0  0  0
  -30.4313  -11.5148   19.9526 H   0  0  0  0  0  0
  -29.8002  -11.7353   17.5212 H   0  0  0  0  0  0
  -29.6197  -13.4624   17.7081 H   0  0  0  0  0  0
  -27.9021  -11.2761   18.9191 H   0  0  0  0  0  0
  -27.3769  -12.5111   17.8034 H   0  0  0  0  0  0
  -27.6226  -14.2427   19.4554 H   0  0  0  0  0  0
  -28.7402  -12.1797   21.4250 H   0  0  0  0  0  0
  -28.4219  -13.8603   21.7821 H   0  0  0  0  0  0
  -25.2743   -9.5675   22.4768 H   0  0  0  0  0  0
  -23.9990   -7.4619   22.7460 H   0  0  0  0  0  0
  -21.0822   -8.8765   19.8953 H   0  0  0  0  0  0
  -22.3678  -10.9664   19.6173 H   0  0  0  0  0  0
  -21.2041   -7.6145   23.9708 H   0  0  0  0  0  0
  -21.1468   -6.0528   25.9073 H   0  0  0  0  0  0
  -22.0603   -2.7597   23.2876 H   0  0  0  0  0  0
  -22.4110  -11.9847   22.4819 H   0  0  0  0  0  0
  -21.1092  -13.1196   22.2685 H   0  0  0  0  0  0
  -24.6357  -15.8322   20.5004 H   0  0  0  0  0  0
  -26.2462  -15.6390   20.0468 H   0  0  0  0  0  0
  -26.7186  -32.5426   23.1088 H   0  0  0  0  0  0
  -25.0110  -33.9753   25.0433 H   0  0  0  0  0  0
  -22.7278  -31.3054   21.3986 H   0  0  0  0  0  0
  -23.3769  -35.9607   23.3304 H   0  0  0  0  0  0
  -24.3597  -36.8920   22.2064 H   0  0  0  0  0  0
  -23.7190  -37.6481   23.6679 H   0  0  0  0  0  0
  -26.1169  -31.5222   20.6110 H   0  0  0  0  0  0
  -26.8599  -30.8179   22.0130 H   0  0  0  0  0  0
  -28.1309  -28.9069   21.1988 H   0  0  0  0  0  0
  -25.9271  -25.9115   18.9894 H   0  0  0  0  0  0
  -23.9618  -27.3056   19.0214 H   0  0  0  0  0  0
  -23.8021  -30.6130   19.4183 H   0  0  0  0  0  0
  -22.7706  -29.2802   19.8361 H   0  0  0  0  0  0
  -25.1276  -36.1979   25.0830 H   0  0  0  0  0  0
  -21.0010  -28.3330   24.1358 H   0  0  0  0  0  0
  -20.5732  -26.2320   23.3639 H   0  0  0  0  0  0
  -21.6668  -26.7436   22.1170 H   0  0  0  0  0  0
  -19.6970  -25.6260   21.1262 H   0  0  0  0  0  0
  -19.6733  -27.3145   20.6719 H   0  0  0  0  0  0
  -17.4221  -26.6648   21.4006 H   0  0  0  0  0  0
  -18.0338  -26.0001   22.8980 H   0  0  0  0  0  0
  -19.7969  -30.7199   24.2302 H   0  0  0  0  0  0
  -17.5068  -31.6251   24.5136 H   0  0  0  0  0  0
  -15.5389  -30.3012   23.7609 H   0  0  0  0  0  0
  -15.8671  -28.0811   22.7091 H   0  0  0  0  0  0
  -24.5914  -30.7090   25.7814 H   0  0  0  0  0  0
  -24.8901  -32.2957   26.4815 H   0  0  0  0  0  0
  -25.8034  -30.9018   27.0271 H   0  0  0  0  0  0
  -26.2935  -29.6778   24.1212 H   0  0  0  0  0  0
  -27.4059  -29.7253   25.4676 H   0  0  0  0  0  0
  -27.8784  -30.4328   23.9415 H   0  0  0  0  0  0
  -27.2698  -33.3711   26.1979 H   0  0  0  0  0  0
  -28.3924  -32.6828   25.0347 H   0  0  0  0  0  0
  -28.0669  -31.8539   26.5499 H   0  0  0  0  0  0
  -28.2562  -38.0107   24.7508 H   0  0  0  0  0  0
  -28.1084  -36.2636   24.6292 H   0  0  0  0  0  0
  -27.2293  -37.1419   25.8860 H   0  0  0  0  0  0
  -20.9383  -29.8881   21.6906 H   0  0  0  0  0  0
  -26.0184  -38.2853   24.1463 H   0  0  0  0  0  0
  -29.1701  -16.3162   22.8420 H   0  0  0  0  0  0
  -29.4835  -16.4290   24.9807 H   0  0  0  0  0  0
  -30.3837  -17.7527   25.7143 H   0  0  0  0  0  0
  -28.6187  -18.1393   27.3139 H   0  0  0  0  0  0
  -28.5179  -16.3895   27.1604 H   0  0  0  0  0  0
  -28.7398  -19.3744   24.9775 H   0  0  0  0  0  0
  -27.0669  -17.0324   24.0406 H   0  0  0  0  0  0
  -29.9075  -20.9007   24.1030 H   0  0  0  0  0  0
  -28.4055  -21.4110   23.3086 H   0  0  0  0  0  0
  -29.9912  -21.7725   22.6258 H   0  0  0  0  0  0
  -25.1408  -18.5655   24.5724 H   0  0  0  0  0  0
  -26.2594  -19.8786   24.8666 H   0  0  0  0  0  0
  -29.8665  -23.7781   19.5062 H   0  0  0  0  0  0
  -29.6714  -23.8638   21.2238 H   0  0  0  0  0  0
  -28.0015  -21.9884   19.4206 H   0  0  0  0  0  0
  -27.9543  -21.9438   21.1343 H   0  0  0  0  0  0
  -27.2146  -24.6488   20.8037 H   0  0  0  0  0  0
  -27.6081  -24.6656   19.1149 H   0  0  0  0  0  0
  -26.5678  -18.1824   26.6004 H   0  0  0  0  0  0
  -28.7586  -15.5531   20.2459 H   0  0  0  0  0  0
  -29.9571  -20.7994   19.2652 H   0  0  0  0  0  0
  1 25  1  0  0  0
  1 30  2  0  0  0
  1 89  1  0  0  0
  2  3  1  0  0  0
  2 25  1  0  0  0
  2 91  1  0  0  0
  2 92  1  0  0  0
  3  4  1  0  0  0
  3 93  1  0  0  0
  3 94  1  0  0  0
  4  5  1  0  0  0
  4 95  1  0  0  0
  4 96  1  0  0  0
  5  6  1  0  0  0
  5 26  1  0  0  0
  5 97  1  0  0  0
  6 25  1  0  0  0
  6 98  1  0  0  0
  6 99  1  0  0  0
  7  8  2  0  0  0
  7 26  1  0  0  0
  7 29  1  0  0  0
  8  9  1  0  0  0
  8 22  1  0  0  0
  9 10  1  0  0  0
  9 27  2  0  0  0
 10 11  2  0  0  0
 10 15  1  0  0  0
 11 12  1  0  0  0
 11100  1  0  0  0
 12 13  2  0  0  0
 12101  1  0  0  0
 13 14  1  0  0  0
 13 31  1  0  0  0
 14 15  2  0  0  0
 14102  1  0  0  0
 15103  1  0  0  0
 16 17  2  0  0  0
 16 21  1  0  0  0
 16 31  1  0  0  0
 17 18  1  0  0  0
 17104  1  0  0  0
 18 19  2  0  0  0
 18105  1  0  0  0
 19 20  1  0  0  0
 19 24  1  0  0  0
 20 21  2  0  0  0
 20106  1  0  0  0
 21 23  1  0  0  0
 22 28  1  0  0  0
 22 32  2  0  0  0
 26 27  1  0  0  0
 28107  1  0  0  0
 28108  1  0  0  0
 29109  1  0  0  0
 29110  1  0  0  0
 33 34  1  0  0  0
 33 66  1  0  0  0
 33 70  2  0  0  0
 34 36  1  0  0  0
 34 59  1  0  0  0
 34111  1  0  0  0
 35 44  2  0  0  0
 35 45  1  0  0  0
 35 68  1  0  0  0
 36 56  1  0  0  0
 36112  1  0  0  0
 37 39  1  0  0  0
 37 47  1  0  0  0
 37 66  1  0  0  0
 37113  1  0  0  0
 38 43  2  0  0  0
 38 46  1  0  0  0
 38 47  1  0  0  0
 39 64  1  0  0  0
 39 67  2  0  0  0
 40 52  1  0  0  0
 40 53  2  0  0  0
 40 58  1  0  0  0
 41114  1  0  0  0
 41115  1  0  0  0
 41116  1  0  0  0
 41 48  1  0  0  0
 42 43  1  0  0  0
 42 66  1  0  0  0
 42117  1  0  0  0
 42118  1  0  0  0
 43 44  1  0  0  0
 44119  1  0  0  0
 45 46  2  0  0  0
 45120  1  0  0  0
 46121  1  0  0  0
 47122  1  0  0  0
 47123  1  0  0  0
 48 56  1  0  0  0
 48 65  1  0  0  0
 48124  1  0  0  0
 49 50  1  0  0  0
 49 53  1  0  0  0
 49 64  1  0  0  0
 49125  1  0  0  0
 50 51  1  0  0  0
 50126  1  0  0  0
 50127  1  0  0  0
 51 52  1  0  0  0
 51128  1  0  0  0
 51129  1  0  0  0
 52130  1  0  0  0
 52131  1  0  0  0
 53 54  1  0  0  0
 54 55  2  0  0  0
 54132  1  0  0  0
 55 57  1  0  0  0
 55133  1  0  0  0
 56 69  2  0  0  0
 57 58  2  0  0  0
 57134  1  0  0  0
 58135  1  0  0  0
 59 60  1  0  0  0
 59 61  1  0  0  0
 59 62  1  0  0  0
 60136  1  0  0  0
 60137  1  0  0  0
 60138  1  0  0  0
 61139  1  0  0  0
 61140  1  0  0  0
 61141  1  0  0  0
 62142  1  0  0  0
 62143  1  0  0  0
 62144  1  0  0  0
 63 65  1  0  0  0
 63145  1  0  0  0
 63146  1  0  0  0
 63147  1  0  0  0
 64148  1  0  0  0
 65149  1  0  0  0
 68 85  1  0  0  0
 71 82  1  0  0  0
 71 86  3  0  0  0
 72 73  2  0  0  0
 72 75  1  0  0  0
 72150  1  0  0  0
 73 74  1  0  0  0
 73 79  1  0  0  0
 74 76  2  0  0  0
 74 81  1  0  0  0
 75 87  2  0  0  0
 75 89  1  0  0  0
 76 87  1  0  0  0
 76 90  1  0  0  0
 77 78  1  0  0  0
 77 79  1  0  0  0
 77151  1  0  0  0
 77152  1  0  0  0
 78 88  1  0  0  0
 78153  1  0  0  0
 78154  1  0  0  0
 79 80  1  0  0  0
 79155  1  0  0  0
 80 82  1  0  0  0
 80 88  1  0  0  0
 80156  1  0  0  0
 81157  1  0  0  0
 81158  1  0  0  0
 81159  1  0  0  0
 82160  1  0  0  0
 82161  1  0  0  0
 83 84  1  0  0  0
 83 85  1  0  0  0
 83162  1  0  0  0
 83163  1  0  0  0
 84 90  1  0  0  0
 84164  1  0  0  0
 84165  1  0  0  0
 85166  1  0  0  0
 85167  1  0  0  0
 88168  1  0  0  0
 89169  1  0  0  0
 90170  1  0  0  0
M  ISO  4   1 100  68 101  85 101  89 100
M  END
> <chiral flag>
0

> <version>
0

> <s_m_source_file>
/data/baiqing/PycharmProjects/Reinvent-master-3.2/result/LINK_invent/BTK/process_docking_weight1_custom_sum_contain_oxygen_bond_distance_aromatic_linkinvent_7_9_3/rearranged_h_0125.sdf

> <i_m_source_file_index>
38

> <r_mmod_Potential_Energy-OPLS-2005>
166.051376342773

> <r_mmod_Stretch_Energy-OPLS-2005>
138.581619262695

> <r_mmod_Bend_Energy-OPLS-2005>
214.158187866211

> <r_mmod_Torsional_Energy-OPLS-2005>
322.702575683594

> <r_mmod_Improper_Torsional_Energy-OPLS-2005>
17.3041820526123

> <r_mmod_Van_der_Waal_Energy-OPLS-2005>
134.668655395508

> <r_mmod_Electrostatic_Energy-OPLS-2005>
-493.554870605469

> <r_mmod_Solvation_Energy-OPLS-2005>
-271.225158691406

> <b_mmod_Minimization_Converged-OPLS-2005>
0

> <r_mmod_RMS_Derivative-OPLS-2005>
3.65309906005859

$$$$
38
                    3D
 Structure written by MMmdl.
163172  0  0  1  0            999 V2000
  -30.6711  -14.5100   20.5471 C   0  0  0  0  0  0
  -30.4299  -12.3139   19.4448 C   0  0  0  0  0  0
  -29.5033  -12.5002   18.2226 C   0  0  0  0  0  0
  -28.0236  -12.3541   18.6304 C   0  0  0  0  0  0
  -27.6623  -13.2034   19.8767 C   0  0  2  0  0  0
  -28.7014  -13.0008   21.0051 C   0  0  0  0  0  0
  -25.2605  -13.8154   20.5681 C   0  0  0  0  0  0
  -24.1848  -13.0445   20.9171 C   0  0  0  0  0  0
  -24.6384  -11.6905   20.8720 C   0  0  0  0  0  0
  -23.9054  -10.4289   21.0389 C   0  0  0  0  0  0
  -24.3609   -9.4209   21.9179 C   0  0  0  0  0  0
  -23.6286   -8.2245   22.0758 C   0  0  0  0  0  0
  -22.4276   -8.0272   21.3536 C   0  0  0  0  0  0
  -21.9905   -9.0247   20.4642 C   0  0  0  0  0  0
  -22.7230  -10.2122   20.3043 C   0  0  0  0  0  0
  -21.6856   -6.0729   22.5276 C   0  0  0  0  0  0
  -21.4014   -6.5640   23.8207 C   0  0  0  0  0  0
  -21.3656   -5.6789   24.9174 C   0  0  0  0  0  0
  -21.6042   -4.3056   24.7222 C   0  0  0  0  0  0
  -21.8819   -3.8142   23.4346 C   0  0  0  0  0  0
  -21.9201   -4.6956   22.3399 C   0  0  0  0  0  0
  -22.7872  -13.5253   21.1842 C   0  0  0  0  0  0
  -22.1671   -4.2145   21.0976 F   0  0  0  0  0  0
  -21.5625   -3.4534   25.7732 F   0  0  0  0  0  0
  -30.0358  -13.3078   20.4588 N   0  0  0  0  0  0
  -26.3030  -12.9310   20.3362 N   0  0  0  0  0  0
  -25.9310  -11.6476   20.5760 N   0  0  0  0  0  0
  -22.0518  -12.8215   22.0375 N   0  0  0  0  0  0
  -25.4365  -15.1865   20.4100 N   0  0  0  0  0  0
  -31.7946  -14.7099   20.0749 O   0  0  0  0  0  0
  -21.6653   -6.8864   21.4231 O   0  0  0  0  0  0
  -22.3565  -14.5563   20.6706 O   0  0  0  0  0  0
  -24.6157  -31.8643   23.2059 C   0  0  0  0  0  0
  -25.9044  -32.4807   23.8351 C   0  0  1  0  0  0
  -27.2371  -27.4152   20.1097 C   0  0  0  0  0  0
  -25.5904  -33.8603   24.2301 N   0  0  0  0  0  0
  -23.4051  -30.4869   21.5460 C   0  0  2  0  0  0
  -24.8509  -28.9443   20.1163 C   0  0  0  0  0  0
  -22.7410  -29.4648   22.4972 C   0  0  0  0  0  0
  -18.0272  -28.1382   22.8504 C   0  0  0  0  0  0
  -24.1485  -36.7292   23.2646 C   0  0  0  0  0  0
  -25.9329  -30.8283   21.3559 C   0  0  0  0  0  0
  -26.0126  -29.4591   20.7077 C   0  0  0  0  0  0
  -27.2095  -28.7052   20.6930 C   0  0  0  0  0  0
  -26.0587  -26.9131   19.5191 C   0  0  0  0  0  0
  -24.8708  -27.6720   19.5154 C   0  0  0  0  0  0
  -23.6133  -29.8137   20.1629 C   0  0  0  0  0  0
  -25.4111  -36.3098   24.0344 C   0  0  1  0  0  0
  -20.5864  -28.3670   23.1317 C   0  0  2  0  0  0
  -20.6765  -26.9413   22.5415 C   0  0  0  0  0  0
  -19.5753  -26.6385   21.5216 C   0  0  0  0  0  0
  -18.1927  -26.7936   22.1613 C   0  0  0  0  0  0
  -19.1524  -28.8837   23.2915 C   0  0  0  0  0  0
  -18.9449  -30.1445   23.8922 C   0  0  0  0  0  0
  -17.6455  -30.6596   24.0575 C   0  0  0  0  0  0
  -25.9040  -34.9470   23.5120 C   0  0  0  0  0  0
  -16.5343  -29.9101   23.6340 C   0  0  0  0  0  0
  -16.7260  -28.6518   23.0354 C   0  0  0  0  0  0
  -26.4483  -31.6589   25.0681 C   0  0  0  0  0  0
  -25.3764  -31.3675   26.1431 C   0  0  0  0  0  0
  -27.0345  -30.3050   24.6039 C   0  0  0  0  0  0
  -27.6043  -32.4329   25.7468 C   0  0  0  0  0  0
  -27.5580  -37.1798   24.8477 C   0  0  0  0  0  0
  -21.4131  -29.3030   22.3710 N   0  0  0  0  0  0
  -26.4292  -37.3787   23.9427 N   0  0  0  0  0  0
  -24.6702  -31.0744   22.0954 N   0  0  0  0  0  0
  -23.4172  -28.8184   23.3022 O   0  0  0  0  0  0
  -28.4087  -26.6829   20.0843 O   0  0  0  0  0  0
  -26.5597  -34.8937   22.4676 O   0  0  0  0  0  0
  -23.5347  -32.1363   23.7467 O   0  0  0  0  0  0
  -30.4132  -20.9087   20.5269 C   0  0  0  0  0  0
  -30.1341  -22.1665   19.9491 C   0  0  0  0  0  0
  -29.4843  -20.2928   21.4028 C   0  0  0  0  0  0
  -28.2776  -21.0210   21.6017 C   0  0  0  0  0  0
  -28.9222  -22.8201   20.2463 C   0  0  0  0  0  0
  -29.4388  -18.7084   23.3962 C   0  0  0  0  0  0
  -29.8331  -19.0135   22.1338 C   0  0  0  0  0  0
  -27.2392  -20.5522   22.5927 C   0  0  0  0  0  0
  -28.6167  -19.4579   24.4404 C   0  0  0  0  0  0
  -27.8069  -20.6843   24.0041 C   0  0  0  0  0  0
  -28.5753  -24.1941   19.6350 C   0  0  0  0  0  0
  -30.7045  -17.9415   21.4349 C   0  0  0  0  0  0
  -29.9579  -16.9396   20.5098 C   0  0  0  0  0  0
  -28.3834  -25.3529   20.6548 C   0  0  0  0  0  0
  -28.0065  -22.2333   21.0452 N   0  0  0  0  0  0
  -29.9008  -15.5332   20.9763 N   0  0  0  0  0  0
  -31.4745  -12.4160   19.1473 H   0  0  0  0  0  0
  -30.3343  -11.3049   19.8498 H   0  0  0  0  0  0
  -29.7476  -11.7699   17.4507 H   0  0  0  0  0  0
  -29.6671  -13.4840   17.7796 H   0  0  0  0  0  0
  -27.8392  -11.2994   18.8366 H   0  0  0  0  0  0
  -27.3733  -12.6145   17.7952 H   0  0  0  0  0  0
  -27.7029  -14.2470   19.5650 H   0  0  0  0  0  0
  -28.6776  -11.9714   21.3665 H   0  0  0  0  0  0
  -28.4584  -13.6183   21.8714 H   0  0  0  0  0  0
  -25.2748   -9.5705   22.4760 H   0  0  0  0  0  0
  -23.9995   -7.4647   22.7482 H   0  0  0  0  0  0
  -21.0844   -8.8756   19.8948 H   0  0  0  0  0  0
  -22.3684  -10.9660   19.6147 H   0  0  0  0  0  0
  -21.2001   -7.6151   23.9708 H   0  0  0  0  0  0
  -21.1477   -6.0525   25.9073 H   0  0  0  0  0  0
  -22.0599   -2.7608   23.2847 H   0  0  0  0  0  0
  -22.4123  -11.9843   22.4696 H   0  0  0  0  0  0
  -21.1138  -13.1235   22.2603 H   0  0  0  0  0  0
  -24.6753  -15.8467   20.5221 H   0  0  0  0  0  0
  -26.2949  -15.6234   20.0978 H   0  0  0  0  0  0
  -26.7116  -32.5507   23.1112 H   0  0  0  0  0  0
  -25.0109  -33.9778   25.0480 H   0  0  0  0  0  0
  -22.6976  -31.3054   21.4042 H   0  0  0  0  0  0
  -23.3759  -35.9613   23.3308 H   0  0  0  0  0  0
  -24.3594  -36.8882   22.2061 H   0  0  0  0  0  0
  -23.7207  -37.6486   23.6652 H   0  0  0  0  0  0
  -26.0421  -31.5927   20.5851 H   0  0  0  0  0  0
  -26.8227  -30.8856   21.9709 H   0  0  0  0  0  0
  -28.1093  -29.1031   21.1411 H   0  0  0  0  0  0
  -26.0596  -25.9386   19.0528 H   0  0  0  0  0  0
  -23.9807  -27.2687   19.0500 H   0  0  0  0  0  0
  -23.7200  -30.5857   19.3998 H   0  0  0  0  0  0
  -22.7380  -29.2311   19.8699 H   0  0  0  0  0  0
  -25.1295  -36.1945   25.0836 H   0  0  0  0  0  0
  -20.9989  -28.3213   24.1421 H   0  0  0  0  0  0
  -20.5668  -26.2280   23.3585 H   0  0  0  0  0  0
  -21.6633  -26.7458   22.1197 H   0  0  0  0  0  0
  -19.6934  -25.6305   21.1220 H   0  0  0  0  0  0
  -19.6712  -27.3218   20.6771 H   0  0  0  0  0  0
  -17.4215  -26.6704   21.3996 H   0  0  0  0  0  0
  -18.0324  -26.0056   22.8978 H   0  0  0  0  0  0
  -19.7929  -30.7254   24.2287 H   0  0  0  0  0  0
  -17.5021  -31.6291   24.5161 H   0  0  0  0  0  0
  -15.5349  -30.3012   23.7679 H   0  0  0  0  0  0
  -15.8647  -28.0859   22.7050 H   0  0  0  0  0  0
  -24.5985  -30.6967   25.7772 H   0  0  0  0  0  0
  -24.8906  -32.2817   26.4851 H   0  0  0  0  0  0
  -25.8123  -30.8879   27.0199 H   0  0  0  0  0  0
  -26.2882  -29.6769   24.1159 H   0  0  0  0  0  0
  -27.4222  -29.7320   25.4467 H   0  0  0  0  0  0
  -27.8661  -30.4410   23.9122 H   0  0  0  0  0  0
  -27.2655  -33.3647   26.2012 H   0  0  0  0  0  0
  -28.3883  -32.6833   25.0317 H   0  0  0  0  0  0
  -28.0675  -31.8459   26.5405 H   0  0  0  0  0  0
  -28.2585  -38.0109   24.7537 H   0  0  0  0  0  0
  -28.1070  -36.2628   24.6277 H   0  0  0  0  0  0
  -27.2304  -37.1413   25.8882 H   0  0  0  0  0  0
  -20.9268  -29.8752   21.6946 H   0  0  0  0  0  0
  -26.0161  -38.2854   24.1431 H   0  0  0  0  0  0
  -31.3698  -20.4560   20.3156 H   0  0  0  0  0  0
  -30.8602  -22.6290   19.2943 H   0  0  0  0  0  0
  -29.7737  -17.7583   23.7896 H   0  0  0  0  0  0
  -26.9336  -19.5285   22.3710 H   0  0  0  0  0  0
  -26.3407  -21.1643   22.5014 H   0  0  0  0  0  0
  -29.2772  -19.7258   25.2662 H   0  0  0  0  0  0
  -27.9201  -18.7266   24.8520 H   0  0  0  0  0  0
  -26.9853  -20.8063   24.7111 H   0  0  0  0  0  0
  -28.4015  -21.5969   24.0893 H   0  0  0  0  0  0
  -27.6858  -24.0947   19.0139 H   0  0  0  0  0  0
  -29.3818  -24.4680   18.9549 H   0  0  0  0  0  0
  -31.2255  -17.3568   22.1969 H   0  0  0  0  0  0
  -31.5219  -18.4127   20.8937 H   0  0  0  0  0  0
  -30.4289  -16.9611   19.5243 H   0  0  0  0  0  0
  -28.9362  -17.2832   20.3402 H   0  0  0  0  0  0
  -29.2111  -25.3203   21.3630 H   0  0  0  0  0  0
  -27.4826  -25.1820   21.2466 H   0  0  0  0  0  0
  -29.0259  -15.2478   21.3916 H   0  0  0  0  0  0
  1 25  1  0  0  0
  1 30  2  0  0  0
  1 86  1  0  0  0
  2  3  1  0  0  0
  2 25  1  0  0  0
  2 87  1  0  0  0
  2 88  1  0  0  0
  3  4  1  0  0  0
  3 89  1  0  0  0
  3 90  1  0  0  0
  4  5  1  0  0  0
  4 91  1  0  0  0
  4 92  1  0  0  0
  5  6  1  0  0  0
  5 26  1  0  0  0
  5 93  1  0  0  0
  6 25  1  0  0  0
  6 94  1  0  0  0
  6 95  1  0  0  0
  7  8  2  0  0  0
  7 26  1  0  0  0
  7 29  1  0  0  0
  8  9  1  0  0  0
  8 22  1  0  0  0
  9 10  1  0  0  0
  9 27  2  0  0  0
 10 11  2  0  0  0
 10 15  1  0  0  0
 11 12  1  0  0  0
 11 96  1  0  0  0
 12 13  2  0  0  0
 12 97  1  0  0  0
 13 14  1  0  0  0
 13 31  1  0  0  0
 14 15  2  0  0  0
 14 98  1  0  0  0
 15 99  1  0  0  0
 16 17  2  0  0  0
 16 21  1  0  0  0
 16 31  1  0  0  0
 17 18  1  0  0  0
 17100  1  0  0  0
 18 19  2  0  0  0
 18101  1  0  0  0
 19 20  1  0  0  0
 19 24  1  0  0  0
 20 21  2  0  0  0
 20102  1  0  0  0
 21 23  1  0  0  0
 22 28  1  0  0  0
 22 32  2  0  0  0
 26 27  1  0  0  0
 28103  1  0  0  0
 28104  1  0  0  0
 29105  1  0  0  0
 29106  1  0  0  0
 33 34  1  0  0  0
 33 66  1  0  0  0
 33 70  2  0  0  0
 34 36  1  0  0  0
 34 59  1  0  0  0
 34107  1  0  0  0
 35 44  2  0  0  0
 35 45  1  0  0  0
 35 68  1  0  0  0
 36 56  1  0  0  0
 36108  1  0  0  0
 37 39  1  0  0  0
 37 47  1  0  0  0
 37 66  1  0  0  0
 37109  1  0  0  0
 38 43  2  0  0  0
 38 46  1  0  0  0
 38 47  1  0  0  0
 39 64  1  0  0  0
 39 67  2  0  0  0
 40 52  1  0  0  0
 40 53  2  0  0  0
 40 58  1  0  0  0
 41110  1  0  0  0
 41111  1  0  0  0
 41112  1  0  0  0
 41 48  1  0  0  0
 42 43  1  0  0  0
 42 66  1  0  0  0
 42113  1  0  0  0
 42114  1  0  0  0
 43 44  1  0  0  0
 44115  1  0  0  0
 45 46  2  0  0  0
 45116  1  0  0  0
 46117  1  0  0  0
 47118  1  0  0  0
 47119  1  0  0  0
 48 56  1  0  0  0
 48 65  1  0  0  0
 48120  1  0  0  0
 49 50  1  0  0  0
 49 53  1  0  0  0
 49 64  1  0  0  0
 49121  1  0  0  0
 50 51  1  0  0  0
 50122  1  0  0  0
 50123  1  0  0  0
 51 52  1  0  0  0
 51124  1  0  0  0
 51125  1  0  0  0
 52126  1  0  0  0
 52127  1  0  0  0
 53 54  1  0  0  0
 54 55  2  0  0  0
 54128  1  0  0  0
 55 57  1  0  0  0
 55129  1  0  0  0
 56 69  2  0  0  0
 57 58  2  0  0  0
 57130  1  0  0  0
 58131  1  0  0  0
 59 60  1  0  0  0
 59 61  1  0  0  0
 59 62  1  0  0  0
 60132  1  0  0  0
 60133  1  0  0  0
 60134  1  0  0  0
 61135  1  0  0  0
 61136  1  0  0  0
 61137  1  0  0  0
 62138  1  0  0  0
 62139  1  0  0  0
 62140  1  0  0  0
 63 65  1  0  0  0
 63141  1  0  0  0
 63142  1  0  0  0
 63143  1  0  0  0
 64144  1  0  0  0
 65145  1  0  0  0
 68 84  1  0  0  0
 71 72  2  0  0  0
 71 73  1  0  0  0
 71146  1  0  0  0
 72 75  1  0  0  0
 72147  1  0  0  0
 73 74  2  0  0  0
 73 77  1  0  0  0
 74 78  1  0  0  0
 74 85  1  0  0  0
 75 81  1  0  0  0
 75 85  2  0  0  0
 76 77  2  0  0  0
 76 79  1  0  0  0
 76148  1  0  0  0
 77 82  1  0  0  0
 78 80  1  0  0  0
 78149  1  0  0  0
 78150  1  0  0  0
 79 80  1  0  0  0
 79151  1  0  0  0
 79152  1  0  0  0
 80153  1  0  0  0
 80154  1  0  0  0
 81 84  1  0  0  0
 81155  1  0  0  0
 81156  1  0  0  0
 82 83  1  0  0  0
 82157  1  0  0  0
 82158  1  0  0  0
 83 86  1  0  0  0
 83159  1  0  0  0
 83160  1  0  0  0
 84161  1  0  0  0
 84162  1  0  0  0
 86163  1  0  0  0
M  ISO  4   1 100  68 101  84 101  86 100
M  END
> <chiral flag>
0

> <version>
0

> <s_m_source_file>
/data/baiqing/PycharmProjects/Reinvent-master-3.2/result/LINK_invent/BTK/process_docking_weight1_custom_sum_contain_oxygen_bond_distance_aromatic_linkinvent_7_9_3/rearranged_h_0125.sdf

> <i_m_source_file_index>
39

> <r_mmod_Potential_Energy-OPLS-2005>
-94.5045318603516

> <r_mmod_Stretch_Energy-OPLS-2005>
48.054370880127

> <r_mmod_Bend_Energy-OPLS-2005>
125.504043579102

> <r_mmod_Torsional_Energy-OPLS-2005>
240.086380004883

> <r_mmod_Improper_Torsional_Energy-OPLS-2005>
7.2309365272522

> <r_mmod_Van_der_Waal_Energy-OPLS-2005>
153.971237182617

> <r_mmod_Electrostatic_Energy-OPLS-2005>
-469.92431640625

> <r_mmod_Solvation_Energy-OPLS-2005>
-215.141311645508

> <b_mmod_Minimization_Converged-OPLS-2005>
0

> <r_mmod_RMS_Derivative-OPLS-2005>
2.49575233459473

$$$$
39
                    3D
 Structure written by MMmdl.
168176  0  0  1  0            999 V2000
  -30.7009  -14.4325   20.5041 C   0  0  0  0  0  0
  -30.4176  -12.2576   19.4315 C   0  0  0  0  0  0
  -29.4968  -12.4846   18.2125 C   0  0  0  0  0  0
  -28.0152  -12.3570   18.6201 C   0  0  0  0  0  0
  -27.6625  -13.1984   19.8757 C   0  0  2  0  0  0
  -28.7047  -12.9839   21.0019 C   0  0  0  0  0  0
  -25.2599  -13.8144   20.5675 C   0  0  0  0  0  0
  -24.1839  -13.0435   20.9169 C   0  0  0  0  0  0
  -24.6382  -11.6895   20.8735 C   0  0  0  0  0  0
  -23.9044  -10.4291   21.0401 C   0  0  0  0  0  0
  -24.3606   -9.4212   21.9181 C   0  0  0  0  0  0
  -23.6289   -8.2240   22.0748 C   0  0  0  0  0  0
  -22.4271   -8.0271   21.3536 C   0  0  0  0  0  0
  -21.9900   -9.0243   20.4642 C   0  0  0  0  0  0
  -22.7219  -10.2127   20.3048 C   0  0  0  0  0  0
  -21.6853   -6.0731   22.5278 C   0  0  0  0  0  0
  -21.4006   -6.5637   23.8208 C   0  0  0  0  0  0
  -21.3654   -5.6793   24.9172 C   0  0  0  0  0  0
  -21.6044   -4.3056   24.7227 C   0  0  0  0  0  0
  -21.8821   -3.8142   23.4352 C   0  0  0  0  0  0
  -21.9197   -4.6959   22.3407 C   0  0  0  0  0  0
  -22.7865  -13.5241   21.1840 C   0  0  0  0  0  0
  -22.1667   -4.2144   21.0982 F   0  0  0  0  0  0
  -21.5631   -3.4538   25.7744 F   0  0  0  0  0  0
  -30.0443  -13.2473   20.4506 N   0  0  0  0  0  0
  -26.3026  -12.9294   20.3366 N   0  0  0  0  0  0
  -25.9307  -11.6465   20.5775 N   0  0  0  0  0  0
  -22.0502  -12.8233   22.0394 N   0  0  0  0  0  0
  -25.4332  -15.1860   20.4079 N   0  0  0  0  0  0
  -31.8661  -14.5886   20.1311 O   0  0  0  0  0  0
  -21.6639   -6.8867   21.4235 O   0  0  0  0  0  0
  -22.3556  -14.5554   20.6698 O   0  0  0  0  0  0
  -24.6113  -31.8701   23.2130 C   0  0  0  0  0  0
  -25.9027  -32.4829   23.8411 C   0  0  1  0  0  0
  -27.2355  -27.4640   20.0881 C   0  0  0  0  0  0
  -25.5908  -33.8626   24.2341 N   0  0  0  0  0  0
  -23.3965  -30.4956   21.5530 C   0  0  2  0  0  0
  -24.8406  -28.9657   20.1158 C   0  0  0  0  0  0
  -22.7392  -29.4672   22.5006 C   0  0  0  0  0  0
  -18.0268  -28.1365   22.8498 C   0  0  0  0  0  0
  -24.1482  -36.7305   23.2639 C   0  0  0  0  0  0
  -25.9225  -30.8455   21.3609 C   0  0  0  0  0  0
  -25.9993  -29.4826   20.7075 C   0  0  0  0  0  0
  -27.1976  -28.7390   20.6902 C   0  0  0  0  0  0
  -26.0544  -26.9533   19.4964 C   0  0  0  0  0  0
  -24.8614  -27.6984   19.5097 C   0  0  0  0  0  0
  -23.6021  -29.8296   20.1664 C   0  0  0  0  0  0
  -25.4102  -36.3109   24.0346 C   0  0  1  0  0  0
  -20.5858  -28.3647   23.1336 C   0  0  2  0  0  0
  -20.6755  -26.9387   22.5432 C   0  0  0  0  0  0
  -19.5746  -26.6379   21.5215 C   0  0  0  0  0  0
  -18.1913  -26.7923   22.1605 C   0  0  0  0  0  0
  -19.1516  -28.8821   23.2918 C   0  0  0  0  0  0
  -18.9443  -30.1427   23.8927 C   0  0  0  0  0  0
  -17.6448  -30.6572   24.0566 C   0  0  0  0  0  0
  -25.9038  -34.9479   23.5136 C   0  0  0  0  0  0
  -16.5340  -29.9078   23.6323 C   0  0  0  0  0  0
  -16.7258  -28.6493   23.0350 C   0  0  0  0  0  0
  -26.4472  -31.6594   25.0720 C   0  0  0  0  0  0
  -25.3764  -31.3705   26.1495 C   0  0  0  0  0  0
  -27.0266  -30.3031   24.6065 C   0  0  0  0  0  0
  -27.6071  -32.4293   25.7468 C   0  0  0  0  0  0
  -27.5583  -37.1799   24.8458 C   0  0  0  0  0  0
  -21.4124  -29.3018   22.3743 N   0  0  0  0  0  0
  -26.4280  -37.3800   23.9427 N   0  0  0  0  0  0
  -24.6618  -31.0837   22.1011 N   0  0  0  0  0  0
  -23.4182  -28.8217   23.3036 O   0  0  0  0  0  0
  -28.4282  -26.7756   20.0961 O   0  0  0  0  0  0
  -26.5587  -34.8931   22.4688 O   0  0  0  0  0  0
  -23.5317  -32.1437   23.7549 O   0  0  0  0  0  0
  -31.1884  -18.6038   18.8805 C   0  0  0  0  0  0
  -29.5722  -18.7669   20.8346 C   0  0  0  0  0  0
  -31.7240  -19.9999   19.2187 C   0  0  0  0  0  0
  -30.0981  -20.1901   21.1036 C   0  0  0  0  0  0
  -30.5960  -17.8714   20.1012 C   0  0  1  0  0  0
  -30.5989  -20.8719   19.8088 C   0  0  1  0  0  0
  -32.0260  -22.9141   19.0693 C   0  0  0  0  0  0
  -30.0899  -24.9550   21.7274 C   0  0  0  0  0  0
  -29.9449  -16.5614   19.6152 C   0  0  0  0  0  0
  -29.6458  -23.2081   19.9144 C   0  0  0  0  0  0
  -28.3691  -25.3667   19.9043 C   0  0  0  0  0  0
  -30.9476  -22.3746   20.0333 C   0  0  1  0  0  0
  -29.7183  -24.7137   20.2536 C   0  0  1  0  0  0
  -29.8835  -15.4883   20.6098 N   0  0  0  0  0  0
  -31.4659  -12.3341   19.1360 H   0  0  0  0  0  0
  -30.2913  -11.2481   19.8258 H   0  0  0  0  0  0
  -29.7297  -11.7674   17.4247 H   0  0  0  0  0  0
  -29.6775  -13.4740   17.7881 H   0  0  0  0  0  0
  -27.8177  -11.3022   18.8150 H   0  0  0  0  0  0
  -27.3688  -12.6364   17.7871 H   0  0  0  0  0  0
  -27.7009  -14.2420   19.5664 H   0  0  0  0  0  0
  -28.6608  -11.9583   21.3711 H   0  0  0  0  0  0
  -28.4911  -13.6206   21.8620 H   0  0  0  0  0  0
  -25.2749   -9.5697   22.4752 H   0  0  0  0  0  0
  -24.0005   -7.4635   22.7467 H   0  0  0  0  0  0
  -21.0825   -8.8751   19.8958 H   0  0  0  0  0  0
  -22.3669  -10.9658   19.6154 H   0  0  0  0  0  0
  -21.1983   -7.6149   23.9707 H   0  0  0  0  0  0
  -21.1472   -6.0525   25.9073 H   0  0  0  0  0  0
  -22.0604   -2.7604   23.2849 H   0  0  0  0  0  0
  -22.4098  -11.9880   22.4768 H   0  0  0  0  0  0
  -21.1125  -13.1266   22.2617 H   0  0  0  0  0  0
  -24.6639  -15.8395   20.5067 H   0  0  0  0  0  0
  -26.2855  -15.6263   20.0859 H   0  0  0  0  0  0
  -26.7098  -32.5545   23.1179 H   0  0  0  0  0  0
  -25.0095  -33.9795   25.0510 H   0  0  0  0  0  0
  -22.6832  -31.3109   21.4172 H   0  0  0  0  0  0
  -23.3764  -35.9614   23.3259 H   0  0  0  0  0  0
  -24.3598  -36.8959   22.2065 H   0  0  0  0  0  0
  -23.7202  -37.6485   23.6676 H   0  0  0  0  0  0
  -26.0314  -31.6136   20.5938 H   0  0  0  0  0  0
  -26.8124  -30.8968   21.9766 H   0  0  0  0  0  0
  -28.0938  -29.1381   21.1449 H   0  0  0  0  0  0
  -26.0332  -25.9884   19.0116 H   0  0  0  0  0  0
  -23.9702  -27.2943   19.0494 H   0  0  0  0  0  0
  -23.7082  -30.6050   19.4067 H   0  0  0  0  0  0
  -22.7271  -29.2477   19.8716 H   0  0  0  0  0  0
  -25.1276  -36.1968   25.0836 H   0  0  0  0  0  0
  -20.9953  -28.3199   24.1456 H   0  0  0  0  0  0
  -20.5636  -26.2257   23.3614 H   0  0  0  0  0  0
  -21.6630  -26.7417   22.1234 H   0  0  0  0  0  0
  -19.6902  -25.6294   21.1229 H   0  0  0  0  0  0
  -19.6703  -27.3203   20.6759 H   0  0  0  0  0  0
  -17.4206  -26.6711   21.3979 H   0  0  0  0  0  0
  -18.0277  -26.0039   22.8967 H   0  0  0  0  0  0
  -19.7922  -30.7229   24.2314 H   0  0  0  0  0  0
  -17.5006  -31.6258   24.5159 H   0  0  0  0  0  0
  -15.5339  -30.2989   23.7634 H   0  0  0  0  0  0
  -15.8657  -28.0820   22.7056 H   0  0  0  0  0  0
  -24.5937  -30.7038   25.7858 H   0  0  0  0  0  0
  -24.8961  -32.2862   26.4952 H   0  0  0  0  0  0
  -25.8147  -30.8884   27.0243 H   0  0  0  0  0  0
  -26.2767  -29.6807   24.1165 H   0  0  0  0  0  0
  -27.4084  -29.7255   25.4492 H   0  0  0  0  0  0
  -27.8595  -30.4330   23.9152 H   0  0  0  0  0  0
  -27.2722  -33.3606   26.2046 H   0  0  0  0  0  0
  -28.3889  -32.6818   25.0291 H   0  0  0  0  0  0
  -28.0727  -31.8406   26.5383 H   0  0  0  0  0  0
  -28.2587  -38.0109   24.7529 H   0  0  0  0  0  0
  -28.1090  -36.2646   24.6234 H   0  0  0  0  0  0
  -27.2322  -37.1387   25.8865 H   0  0  0  0  0  0
  -20.9273  -29.8749   21.6981 H   0  0  0  0  0  0
  -26.0163  -38.2871   24.1461 H   0  0  0  0  0  0
  -31.9921  -18.0074   18.4455 H   0  0  0  0  0  0
  -30.4272  -18.6945   18.1028 H   0  0  0  0  0  0
  -28.6606  -18.8472   20.2399 H   0  0  0  0  0  0
  -29.2775  -18.2985   21.7749 H   0  0  0  0  0  0
  -32.1118  -20.4288   18.2953 H   0  0  0  0  0  0
  -32.5620  -19.9304   19.9132 H   0  0  0  0  0  0
  -30.9060  -20.1485   21.8356 H   0  0  0  0  0  0
  -29.3048  -20.7775   21.5665 H   0  0  0  0  0  0
  -31.4210  -17.6444   20.7782 H   0  0  0  0  0  0
  -29.7859  -20.8392   19.0804 H   0  0  0  0  0  0
  -32.9696  -22.3790   19.1803 H   0  0  0  0  0  0
  -32.2584  -23.9599   19.2629 H   0  0  0  0  0  0
  -31.7103  -22.8324   18.0284 H   0  0  0  0  0  0
  -31.0772  -24.5585   21.9629 H   0  0  0  0  0  0
  -29.3713  -24.4868   22.4006 H   0  0  0  0  0  0
  -30.1132  -26.0203   21.9590 H   0  0  0  0  0  0
  -30.4674  -16.2012   18.7248 H   0  0  0  0  0  0
  -28.9302  -16.7544   19.2635 H   0  0  0  0  0  0
  -28.8716  -22.7613   20.5386 H   0  0  0  0  0  0
  -29.2795  -23.1074   18.8913 H   0  0  0  0  0  0
  -27.5835  -24.9281   20.5238 H   0  0  0  0  0  0
  -28.1249  -25.1612   18.8608 H   0  0  0  0  0  0
  -31.3465  -22.4742   21.0428 H   0  0  0  0  0  0
  -30.4702  -25.1906   19.6251 H   0  0  0  0  0  0
  -28.9695  -15.2889   20.9866 H   0  0  0  0  0  0
  1 25  1  0  0  0
  1 30  2  0  0  0
  1 84  1  0  0  0
  2  3  1  0  0  0
  2 25  1  0  0  0
  2 85  1  0  0  0
  2 86  1  0  0  0
  3  4  1  0  0  0
  3 87  1  0  0  0
  3 88  1  0  0  0
  4  5  1  0  0  0
  4 89  1  0  0  0
  4 90  1  0  0  0
  5  6  1  0  0  0
  5 26  1  0  0  0
  5 91  1  0  0  0
  6 25  1  0  0  0
  6 92  1  0  0  0
  6 93  1  0  0  0
  7  8  2  0  0  0
  7 26  1  0  0  0
  7 29  1  0  0  0
  8  9  1  0  0  0
  8 22  1  0  0  0
  9 10  1  0  0  0
  9 27  2  0  0  0
 10 11  2  0  0  0
 10 15  1  0  0  0
 11 12  1  0  0  0
 11 94  1  0  0  0
 12 13  2  0  0  0
 12 95  1  0  0  0
 13 14  1  0  0  0
 13 31  1  0  0  0
 14 15  2  0  0  0
 14 96  1  0  0  0
 15 97  1  0  0  0
 16 17  2  0  0  0
 16 21  1  0  0  0
 16 31  1  0  0  0
 17 18  1  0  0  0
 17 98  1  0  0  0
 18 19  2  0  0  0
 18 99  1  0  0  0
 19 20  1  0  0  0
 19 24  1  0  0  0
 20 21  2  0  0  0
 20100  1  0  0  0
 21 23  1  0  0  0
 22 28  1  0  0  0
 22 32  2  0  0  0
 26 27  1  0  0  0
 28101  1  0  0  0
 28102  1  0  0  0
 29103  1  0  0  0
 29104  1  0  0  0
 33 34  1  0  0  0
 33 66  1  0  0  0
 33 70  2  0  0  0
 34 36  1  0  0  0
 34 59  1  0  0  0
 34105  1  0  0  0
 35 44  2  0  0  0
 35 45  1  0  0  0
 35 68  1  0  0  0
 36 56  1  0  0  0
 36106  1  0  0  0
 37 39  1  0  0  0
 37 47  1  0  0  0
 37 66  1  0  0  0
 37107  1  0  0  0
 38 43  2  0  0  0
 38 46  1  0  0  0
 38 47  1  0  0  0
 39 64  1  0  0  0
 39 67  2  0  0  0
 40 52  1  0  0  0
 40 53  2  0  0  0
 40 58  1  0  0  0
 41108  1  0  0  0
 41109  1  0  0  0
 41110  1  0  0  0
 41 48  1  0  0  0
 42 43  1  0  0  0
 42 66  1  0  0  0
 42111  1  0  0  0
 42112  1  0  0  0
 43 44  1  0  0  0
 44113  1  0  0  0
 45 46  2  0  0  0
 45114  1  0  0  0
 46115  1  0  0  0
 47116  1  0  0  0
 47117  1  0  0  0
 48 56  1  0  0  0
 48 65  1  0  0  0
 48118  1  0  0  0
 49 50  1  0  0  0
 49 53  1  0  0  0
 49 64  1  0  0  0
 49119  1  0  0  0
 50 51  1  0  0  0
 50120  1  0  0  0
 50121  1  0  0  0
 51 52  1  0  0  0
 51122  1  0  0  0
 51123  1  0  0  0
 52124  1  0  0  0
 52125  1  0  0  0
 53 54  1  0  0  0
 54 55  2  0  0  0
 54126  1  0  0  0
 55 57  1  0  0  0
 55127  1  0  0  0
 56 69  2  0  0  0
 57 58  2  0  0  0
 57128  1  0  0  0
 58129  1  0  0  0
 59 60  1  0  0  0
 59 61  1  0  0  0
 59 62  1  0  0  0
 60130  1  0  0  0
 60131  1  0  0  0
 60132  1  0  0  0
 61133  1  0  0  0
 61134  1  0  0  0
 61135  1  0  0  0
 62136  1  0  0  0
 62137  1  0  0  0
 62138  1  0  0  0
 63 65  1  0  0  0
 63139  1  0  0  0
 63140  1  0  0  0
 63141  1  0  0  0
 64142  1  0  0  0
 65143  1  0  0  0
 68 81  1  0  0  0
 71 73  1  0  0  0
 71 75  1  0  0  0
 71144  1  0  0  0
 71145  1  0  0  0
 72 74  1  0  0  0
 72 75  1  0  0  0
 72146  1  0  0  0
 72147  1  0  0  0
 73148  1  0  0  0
 73149  1  0  0  0
 73 76  1  0  0  0
 74 76  1  0  0  0
 74150  1  0  0  0
 74151  1  0  0  0
 75 79  1  0  0  0
 75152  1  0  0  0
 76 82  1  0  0  0
 76153  1  0  0  0
 77154  1  0  0  0
 77155  1  0  0  0
 77156  1  0  0  0
 77 82  1  0  0  0
 78157  1  0  0  0
 78158  1  0  0  0
 78159  1  0  0  0
 78 83  1  0  0  0
 79 84  1  0  0  0
 79160  1  0  0  0
 79161  1  0  0  0
 80 82  1  0  0  0
 80 83  1  0  0  0
 80162  1  0  0  0
 80163  1  0  0  0
 81 83  1  0  0  0
 81164  1  0  0  0
 81165  1  0  0  0
 82166  1  0  0  0
 83167  1  0  0  0
 84168  1  0  0  0
M  ISO  4   1 100  68 101  81 101  84 100
M  END
> <chiral flag>
0

> <version>
0

> <s_m_source_file>
/data/baiqing/PycharmProjects/Reinvent-master-3.2/result/LINK_invent/BTK/process_docking_weight1_custom_sum_contain_oxygen_bond_distance_aromatic_linkinvent_7_9_3/rearranged_h_0125.sdf

> <i_m_source_file_index>
40

> <r_mmod_Potential_Energy-OPLS-2005>
8.23234272003174

> <r_mmod_Stretch_Energy-OPLS-2005>
32.7701759338379

> <r_mmod_Bend_Energy-OPLS-2005>
103.72046661377

> <r_mmod_Torsional_Energy-OPLS-2005>
272.837066650391

> <r_mmod_Improper_Torsional_Energy-OPLS-2005>
13.5786409378052

> <r_mmod_Van_der_Waal_Energy-OPLS-2005>
150.856872558594

> <r_mmod_Electrostatic_Energy-OPLS-2005>
-386.242370605469

> <r_mmod_Solvation_Energy-OPLS-2005>
-192.865783691406

> <b_mmod_Minimization_Converged-OPLS-2005>
0

> <r_mmod_RMS_Derivative-OPLS-2005>
1.03831470012665

$$$$
40
                    3D
 Structure written by MMmdl.
165173  0  0  1  0            999 V2000
  -30.2354  -15.8028   20.4765 C   0  0  0  0  0  0
  -30.4141  -13.2230   19.6172 C   0  0  0  0  0  0
  -29.5738  -12.7365   18.3906 C   0  0  0  0  0  0
  -28.1629  -12.3184   18.8213 C   0  0  0  0  0  0
  -27.5990  -13.3276   19.8435 C   0  0  2  0  0  0
  -28.5806  -13.7103   20.9852 C   0  0  0  0  0  0
  -25.2285  -13.8306   20.5803 C   0  0  0  0  0  0
  -24.1699  -13.0418   20.9268 C   0  0  0  0  0  0
  -24.6445  -11.6944   20.8754 C   0  0  0  0  0  0
  -23.9151  -10.4293   21.0376 C   0  0  0  0  0  0
  -24.3686   -9.4209   21.9161 C   0  0  0  0  0  0
  -23.6341   -8.2255   22.0742 C   0  0  0  0  0  0
  -22.4315   -8.0304   21.3540 C   0  0  0  0  0  0
  -21.9966   -9.0274   20.4630 C   0  0  0  0  0  0
  -22.7313  -10.2144   20.3028 C   0  0  0  0  0  0
  -21.6869   -6.0766   22.5284 C   0  0  0  0  0  0
  -21.4026   -6.5658   23.8221 C   0  0  0  0  0  0
  -21.3656   -5.6800   24.9178 C   0  0  0  0  0  0
  -21.6036   -4.3061   24.7219 C   0  0  0  0  0  0
  -21.8817   -3.8164   23.4337 C   0  0  0  0  0  0
  -21.9200   -4.6992   22.3402 C   0  0  0  0  0  0
  -22.7715  -13.5137   21.1907 C   0  0  0  0  0  0
  -22.1667   -4.2181   21.0978 F   0  0  0  0  0  0
  -21.5621   -3.4541   25.7727 F   0  0  0  0  0  0
  -29.7444  -14.4024   20.3750 N   0  0  0  0  0  0
  -26.2771  -12.9674   20.3321 N   0  0  0  0  0  0
  -25.9404  -11.6726   20.5738 N   0  0  0  0  0  0
  -22.0405  -12.8106   22.0470 N   0  0  0  0  0  0
  -25.3828  -15.2063   20.4247 N   0  0  0  0  0  0
  -31.4532  -15.7349   20.2005 O   0  0  0  0  0  0
  -21.6650   -6.8921   21.4254 O   0  0  0  0  0  0
  -22.3379  -14.5436   20.6753 O   0  0  0  0  0  0
  -24.6752  -31.7959   23.2130 C   0  0  0  0  0  0
  -25.9406  -32.4413   23.8466 C   0  0  1  0  0  0
  -27.2249  -26.3117   19.8615 C   0  0  0  0  0  0
  -25.6028  -33.8324   24.2135 N   0  0  0  0  0  0
  -23.5391  -30.3970   21.5498 C   0  0  2  0  0  0
  -25.0584  -28.7384   20.1663 C   0  0  0  0  0  0
  -22.7759  -29.4144   22.4784 C   0  0  0  0  0  0
  -18.0315  -28.1427   22.8435 C   0  0  0  0  0  0
  -24.1511  -36.7119   23.2628 C   0  0  0  0  0  0
  -26.0921  -30.2935   21.7371 C   0  0  0  0  0  0
  -26.0826  -28.7744   21.2924 C   0  0  0  0  0  0
  -27.2262  -27.5392   21.4569 C   0  0  0  0  0  0
  -26.0545  -26.6117   18.8280 C   0  0  0  0  0  0
  -25.0835  -27.7665   19.0272 C   0  0  0  0  0  0
  -23.8778  -29.7363   20.1821 C   0  0  0  0  0  0
  -25.4154  -36.2881   24.0273 C   0  0  1  0  0  0
  -20.5943  -28.3761   23.1081 C   0  0  2  0  0  0
  -20.6768  -26.9411   22.5376 C   0  0  0  0  0  0
  -19.5745  -26.6352   21.5192 C   0  0  0  0  0  0
  -18.1933  -26.7949   22.1610 C   0  0  0  0  0  0
  -19.1591  -28.8920   23.2744 C   0  0  0  0  0  0
  -18.9512  -30.1497   23.8805 C   0  0  0  0  0  0
  -17.6510  -30.6603   24.0547 C   0  0  0  0  0  0
  -25.9143  -34.9242   23.5014 C   0  0  0  0  0  0
  -16.5389  -29.9100   23.6358 C   0  0  0  0  0  0
  -16.7299  -28.6524   23.0370 C   0  0  0  0  0  0
  -26.4586  -31.6612   25.1200 C   0  0  0  0  0  0
  -25.3546  -31.4160   26.1733 C   0  0  0  0  0  0
  -27.0616  -30.2790   24.7823 C   0  0  0  0  0  0
  -27.6012  -32.4606   25.7852 C   0  0  0  0  0  0
  -27.5568  -37.1725   24.8468 C   0  0  0  0  0  0
  -21.4418  -29.2990   22.3404 N   0  0  0  0  0  0
  -26.4281  -37.3630   23.9404 N   0  0  0  0  0  0
  -24.7879  -30.8875   22.1972 N   0  0  0  0  0  0
  -23.3996  -28.7652   23.3221 O   0  0  0  0  0  0
  -28.2129  -25.8477   19.0160 O   0  0  0  0  0  0
  -26.5764  -34.8738   22.4630 O   0  0  0  0  0  0
  -23.5716  -32.1473   23.6611 O   0  0  0  0  0  0
  -25.3948  -26.3868   21.0693 C   0  0  0  0  0  0
  -29.2950  -27.5969   20.2252 C   0  0  0  0  0  0
  -26.3874  -24.7899   21.5796 C   0  0  0  0  0  0
  -29.3582  -25.8002   21.1153 C   0  0  0  0  0  0
  -27.5834  -28.4083   19.4632 C   0  0  1  0  0  0
  -28.1884  -24.2435   21.2984 C   0  0  2  0  0  0
  -27.2442  -28.7629   16.8410 C   0  0  0  0  0  0
  -29.5352  -19.0443   20.5488 C   0  0  0  0  0  0
  -28.7061  -20.7766   21.1948 C   0  0  0  0  0  0
  -28.4556  -26.6431   17.8032 C   0  0  0  0  0  0
  -28.0926  -28.1677   17.9840 C   0  0  2  0  0  0
  -29.4849  -17.2010   20.7089 N   0  0  0  0  0  0
  -28.6957  -22.5527   20.7650 N   0  3  0  0  0  0
  -31.4003  -13.5125   19.2530 H   0  0  0  0  0  0
  -30.6110  -12.3948   20.2989 H   0  0  0  0  0  0
  -30.0783  -11.9151   17.8786 H   0  0  0  0  0  0
  -29.5002  -13.5515   17.6676 H   0  0  0  0  0  0
  -28.2276  -11.3317   19.2826 H   0  0  0  0  0  0
  -27.5032  -12.2201   17.9579 H   0  0  0  0  0  0
  -27.4551  -14.2356   19.2570 H   0  0  0  0  0  0
  -28.8703  -12.8447   21.5804 H   0  0  0  0  0  0
  -28.0993  -14.4062   21.6748 H   0  0  0  0  0  0
  -25.2835   -9.5686   22.4739 H   0  0  0  0  0  0
  -24.0054   -7.4644   22.7462 H   0  0  0  0  0  0
  -21.0897   -8.8791   19.8932 H   0  0  0  0  0  0
  -22.3767  -10.9685   19.6135 H   0  0  0  0  0  0
  -21.2026   -7.6168   23.9737 H   0  0  0  0  0  0
  -21.1470   -6.0528   25.9083 H   0  0  0  0  0  0
  -22.0601   -2.7632   23.2815 H   0  0  0  0  0  0
  -22.4086  -11.9798   22.4876 H   0  0  0  0  0  0
  -21.0997  -13.1064   22.2662 H   0  0  0  0  0  0
  -24.5960  -15.8407   20.5149 H   0  0  0  0  0  0
  -26.2193  -15.6588   20.0797 H   0  0  0  0  0  0
  -26.7416  -32.4740   23.1083 H   0  0  0  0  0  0
  -25.0072  -33.9506   25.0199 H   0  0  0  0  0  0
  -22.8793  -31.2441   21.3514 H   0  0  0  0  0  0
  -23.3791  -35.9430   23.3234 H   0  0  0  0  0  0
  -24.3593  -36.8821   22.2054 H   0  0  0  0  0  0
  -23.7248  -37.6278   23.6726 H   0  0  0  0  0  0
  -26.3509  -30.8823   20.8556 H   0  0  0  0  0  0
  -26.9504  -30.4597   22.3610 H   0  0  0  0  0  0
  -27.9890  -27.6339   22.2179 H   0  0  0  0  0  0
  -25.9602  -26.0390   17.9178 H   0  0  0  0  0  0
  -24.3180  -27.8781   18.2711 H   0  0  0  0  0  0
  -24.1172  -30.5233   19.4665 H   0  0  0  0  0  0
  -22.9892  -29.2376   19.7916 H   0  0  0  0  0  0
  -25.1353  -36.1680   25.0757 H   0  0  0  0  0  0
  -20.9983  -28.3390   24.1226 H   0  0  0  0  0  0
  -20.5611  -26.2392   23.3654 H   0  0  0  0  0  0
  -21.6634  -26.7327   22.1216 H   0  0  0  0  0  0
  -19.6898  -25.6243   21.1277 H   0  0  0  0  0  0
  -19.6710  -27.3113   20.6685 H   0  0  0  0  0  0
  -17.4201  -26.6674   21.4022 H   0  0  0  0  0  0
  -18.0329  -26.0120   22.9033 H   0  0  0  0  0  0
  -19.7996  -30.7309   24.2157 H   0  0  0  0  0  0
  -17.5079  -31.6276   24.5169 H   0  0  0  0  0  0
  -15.5398  -30.2998   23.7719 H   0  0  0  0  0  0
  -15.8690  -28.0815   22.7160 H   0  0  0  0  0  0
  -24.5808  -30.7367   25.8139 H   0  0  0  0  0  0
  -24.8633  -32.3444   26.4653 H   0  0  0  0  0  0
  -25.7624  -30.9744   27.0835 H   0  0  0  0  0  0
  -26.3424  -29.6064   24.3146 H   0  0  0  0  0  0
  -27.3815  -29.7701   25.6927 H   0  0  0  0  0  0
  -27.9591  -30.3571   24.1679 H   0  0  0  0  0  0
  -27.2567  -33.4088   26.1998 H   0  0  0  0  0  0
  -28.3952  -32.6864   25.0719 H   0  0  0  0  0  0
  -28.0521  -31.9067   26.6102 H   0  0  0  0  0  0
  -28.2544  -38.0056   24.7517 H   0  0  0  0  0  0
  -28.1107  -36.2581   24.6308 H   0  0  0  0  0  0
  -27.2274  -37.1347   25.8862 H   0  0  0  0  0  0
  -20.9776  -29.8710   21.6478 H   0  0  0  0  0  0
  -26.0105  -38.2676   24.1403 H   0  0  0  0  0  0
  -24.9643  -26.7647   22.0073 H   0  0  0  0  0  0
  -24.4813  -26.0410   20.5701 H   0  0  0  0  0  0
  -30.1051  -27.6300   19.4977 H   0  0  0  0  0  0
  -29.6810  -28.3146   20.9516 H   0  0  0  0  0  0
  -25.7826  -23.9538   21.2291 H   0  0  0  0  0  0
  -26.2536  -24.7372   22.6596 H   0  0  0  0  0  0
  -29.5620  -26.0539   22.1542 H   0  0  0  0  0  0
  -30.3158  -25.3848   20.8033 H   0  0  0  0  0  0
  -27.5529  -29.4950   19.5873 H   0  0  0  0  0  0
  -28.4366  -24.0243   22.3367 H   0  0  0  0  0  0
  -26.9783  -29.7997   17.0451 H   0  0  0  0  0  0
  -26.3256  -28.2086   16.6526 H   0  0  0  0  0  0
  -27.8079  -28.7538   15.9073 H   0  0  0  0  0  0
  -30.6041  -19.2346   20.6490 H   0  0  0  0  0  0
  -29.3745  -19.1318   19.4755 H   0  0  0  0  0  0
  -29.0184  -20.8137   22.2384 H   0  0  0  0  0  0
  -27.6414  -20.5456   21.2609 H   0  0  0  0  0  0
  -29.5116  -26.5525   17.5455 H   0  0  0  0  0  0
  -27.9309  -26.2089   16.9507 H   0  0  0  0  0  0
  -29.0279  -28.7225   17.9094 H   0  0  0  0  0  0
  -28.5380  -16.9511   20.9600 H   0  0  0  0  0  0
  -29.6851  -22.6981   20.6564 H   0  0  0  0  0  0
  -28.3433  -22.5254   19.8218 H   0  0  0  0  0  0
  1 25  1  0  0  0
  1 30  2  0  0  0
  1 82  1  0  0  0
  2  3  1  0  0  0
  2 25  1  0  0  0
  2 84  1  0  0  0
  2 85  1  0  0  0
  3  4  1  0  0  0
  3 86  1  0  0  0
  3 87  1  0  0  0
  4  5  1  0  0  0
  4 88  1  0  0  0
  4 89  1  0  0  0
  5  6  1  0  0  0
  5 26  1  0  0  0
  5 90  1  0  0  0
  6 25  1  0  0  0
  6 91  1  0  0  0
  6 92  1  0  0  0
  7  8  2  0  0  0
  7 26  1  0  0  0
  7 29  1  0  0  0
  8  9  1  0  0  0
  8 22  1  0  0  0
  9 10  1  0  0  0
  9 27  2  0  0  0
 10 11  2  0  0  0
 10 15  1  0  0  0
 11 12  1  0  0  0
 11 93  1  0  0  0
 12 13  2  0  0  0
 12 94  1  0  0  0
 13 14  1  0  0  0
 13 31  1  0  0  0
 14 15  2  0  0  0
 14 95  1  0  0  0
 15 96  1  0  0  0
 16 17  2  0  0  0
 16 21  1  0  0  0
 16 31  1  0  0  0
 17 18  1  0  0  0
 17 97  1  0  0  0
 18 19  2  0  0  0
 18 98  1  0  0  0
 19 20  1  0  0  0
 19 24  1  0  0  0
 20 21  2  0  0  0
 20 99  1  0  0  0
 21 23  1  0  0  0
 22 28  1  0  0  0
 22 32  2  0  0  0
 26 27  1  0  0  0
 28100  1  0  0  0
 28101  1  0  0  0
 29102  1  0  0  0
 29103  1  0  0  0
 33 34  1  0  0  0
 33 66  1  0  0  0
 33 70  2  0  0  0
 34 36  1  0  0  0
 34 59  1  0  0  0
 34104  1  0  0  0
 35 44  2  0  0  0
 35 45  1  0  0  0
 35 68  1  0  0  0
 36 56  1  0  0  0
 36105  1  0  0  0
 37 39  1  0  0  0
 37 47  1  0  0  0
 37 66  1  0  0  0
 37106  1  0  0  0
 38 43  2  0  0  0
 38 46  1  0  0  0
 38 47  1  0  0  0
 39 64  1  0  0  0
 39 67  2  0  0  0
 40 52  1  0  0  0
 40 53  2  0  0  0
 40 58  1  0  0  0
 41107  1  0  0  0
 41108  1  0  0  0
 41109  1  0  0  0
 41 48  1  0  0  0
 42 43  1  0  0  0
 42 66  1  0  0  0
 42110  1  0  0  0
 42111  1  0  0  0
 43 44  1  0  0  0
 44112  1  0  0  0
 45 46  2  0  0  0
 45113  1  0  0  0
 46114  1  0  0  0
 47115  1  0  0  0
 47116  1  0  0  0
 48 56  1  0  0  0
 48 65  1  0  0  0
 48117  1  0  0  0
 49 50  1  0  0  0
 49 53  1  0  0  0
 49 64  1  0  0  0
 49118  1  0  0  0
 50 51  1  0  0  0
 50119  1  0  0  0
 50120  1  0  0  0
 51 52  1  0  0  0
 51121  1  0  0  0
 51122  1  0  0  0
 52123  1  0  0  0
 52124  1  0  0  0
 53 54  1  0  0  0
 54 55  2  0  0  0
 54125  1  0  0  0
 55 57  1  0  0  0
 55126  1  0  0  0
 56 69  2  0  0  0
 57 58  2  0  0  0
 57127  1  0  0  0
 58128  1  0  0  0
 59 60  1  0  0  0
 59 61  1  0  0  0
 59 62  1  0  0  0
 60129  1  0  0  0
 60130  1  0  0  0
 60131  1  0  0  0
 61132  1  0  0  0
 61133  1  0  0  0
 61134  1  0  0  0
 62135  1  0  0  0
 62136  1  0  0  0
 62137  1  0  0  0
 63 65  1  0  0  0
 63138  1  0  0  0
 63139  1  0  0  0
 63140  1  0  0  0
 64141  1  0  0  0
 65142  1  0  0  0
 68 80  1  0  0  0
 71 73  1  0  0  0
 71143  1  0  0  0
 71144  1  0  0  0
 71 75  1  0  0  0
 72 74  1  0  0  0
 72 75  1  0  0  0
 72145  1  0  0  0
 72146  1  0  0  0
 73 76  1  0  0  0
 73147  1  0  0  0
 73148  1  0  0  0
 74 76  1  0  0  0
 74149  1  0  0  0
 74150  1  0  0  0
 75 81  1  0  0  0
 75151  1  0  0  0
 76 83  1  0  0  0
 76152  1  0  0  0
 77153  1  0  0  0
 77154  1  0  0  0
 77155  1  0  0  0
 77 81  1  0  0  0
 78 79  1  0  0  0
 78 82  1  0  0  0
 78156  1  0  0  0
 78157  1  0  0  0
 79 83  1  0  0  0
 79158  1  0  0  0
 79159  1  0  0  0
 80 81  1  0  0  0
 80160  1  0  0  0
 80161  1  0  0  0
 81162  1  0  0  0
 82163  1  0  0  0
 83164  1  0  0  0
 83165  1  0  0  0
M  CHG  1  83   1
M  ISO  4   1 100  68 101  80 101  82 100
M  END
> <chiral flag>
0

> <version>
0

> <s_m_source_file>
/data/baiqing/PycharmProjects/Reinvent-master-3.2/result/LINK_invent/BTK/process_docking_weight1_custom_sum_contain_oxygen_bond_distance_aromatic_linkinvent_7_9_3/rearranged_h_0125.sdf

> <i_m_source_file_index>
41

> <r_mmod_Potential_Energy-OPLS-2005>
11865.521484375

> <r_mmod_Stretch_Energy-OPLS-2005>
7199.978515625

> <r_mmod_Bend_Energy-OPLS-2005>
948.011840820312

> <r_mmod_Torsional_Energy-OPLS-2005>
428.456634521484

> <r_mmod_Improper_Torsional_Energy-OPLS-2005>
24.9638652801514

> <r_mmod_Van_der_Waal_Energy-OPLS-2005>
2518.49853515625

> <r_mmod_Electrostatic_Energy-OPLS-2005>
-306.247344970703

> <r_mmod_Solvation_Energy-OPLS-2005>
-450.029449462891

> <b_mmod_Minimization_Converged-OPLS-2005>
0

> <r_mmod_RMS_Derivative-OPLS-2005>
4.29918909072876

$$$$
41
                    3D
 Structure written by MMmdl.
154163  0  0  1  0            999 V2000
  -30.6870  -14.5913   20.5221 C   0  0  0  0  0  0
  -30.4280  -12.3751   19.4395 C   0  0  0  0  0  0
  -29.4995  -12.5074   18.2141 C   0  0  0  0  0  0
  -28.0192  -12.3708   18.6195 C   0  0  0  0  0  0
  -27.6515  -13.2283   19.8608 C   0  0  2  0  0  0
  -28.7022  -13.0871   20.9871 C   0  0  0  0  0  0
  -25.2546  -13.8225   20.5656 C   0  0  0  0  0  0
  -24.1829  -13.0474   20.9159 C   0  0  0  0  0  0
  -24.6420  -11.6945   20.8719 C   0  0  0  0  0  0
  -23.9102  -10.4306   21.0404 C   0  0  0  0  0  0
  -24.3647   -9.4206   21.9166 C   0  0  0  0  0  0
  -23.6309   -8.2249   22.0745 C   0  0  0  0  0  0
  -22.4282   -8.0295   21.3544 C   0  0  0  0  0  0
  -21.9942   -9.0265   20.4625 C   0  0  0  0  0  0
  -22.7287  -10.2133   20.3032 C   0  0  0  0  0  0
  -21.6856   -6.0739   22.5262 C   0  0  0  0  0  0
  -21.4021   -6.5646   23.8204 C   0  0  0  0  0  0
  -21.3655   -5.6789   24.9161 C   0  0  0  0  0  0
  -21.6049   -4.3054   24.7208 C   0  0  0  0  0  0
  -21.8833   -3.8144   23.4334 C   0  0  0  0  0  0
  -21.9208   -4.6959   22.3386 C   0  0  0  0  0  0
  -22.7841  -13.5236   21.1820 C   0  0  0  0  0  0
  -22.1662   -4.2154   21.0954 F   0  0  0  0  0  0
  -21.5637   -3.4522   25.7724 F   0  0  0  0  0  0
  -30.0195  -13.4017   20.4180 N   0  0  0  0  0  0
  -26.2988  -12.9419   20.3317 N   0  0  0  0  0  0
  -25.9353  -11.6561   20.5765 N   0  0  0  0  0  0
  -22.0482  -12.8204   22.0361 N   0  0  0  0  0  0
  -25.4289  -15.1936   20.4024 N   0  0  0  0  0  0
  -31.8474  -14.7134   20.1267 O   0  0  0  0  0  0
  -21.6651   -6.8881   21.4231 O   0  0  0  0  0  0
  -22.3521  -14.5549   20.6683 O   0  0  0  0  0  0
  -24.6216  -31.8628   23.2015 C   0  0  0  0  0  0
  -25.9087  -32.4803   23.8330 C   0  0  1  0  0  0
  -27.2223  -27.3515   20.1049 C   0  0  0  0  0  0
  -25.5960  -33.8590   24.2298 N   0  0  0  0  0  0
  -23.4151  -30.4879   21.5452 C   0  0  2  0  0  0
  -24.8614  -28.9468   20.1059 C   0  0  0  0  0  0
  -22.7466  -29.4657   22.4938 C   0  0  0  0  0  0
  -18.0303  -28.1395   22.8557 C   0  0  0  0  0  0
  -24.1481  -36.7210   23.2652 C   0  0  0  0  0  0
  -25.9529  -30.8085   21.3575 C   0  0  0  0  0  0
  -26.0276  -29.4330   20.7110 C   0  0  0  0  0  0
  -27.2185  -28.6463   20.7032 C   0  0  0  0  0  0
  -26.0357  -26.9113   19.4802 C   0  0  0  0  0  0
  -24.8633  -27.6872   19.4861 C   0  0  0  0  0  0
  -23.6252  -29.8220   20.1591 C   0  0  0  0  0  0
  -25.4116  -36.3068   24.0355 C   0  0  1  0  0  0
  -20.5908  -28.3654   23.1322 C   0  0  2  0  0  0
  -20.6790  -26.9395   22.5404 C   0  0  0  0  0  0
  -19.5733  -26.6430   21.5228 C   0  0  0  0  0  0
  -18.1923  -26.7985   22.1643 C   0  0  0  0  0  0
  -19.1552  -28.8859   23.2965 C   0  0  0  0  0  0
  -18.9480  -30.1472   23.8940 C   0  0  0  0  0  0
  -17.6474  -30.6610   24.0584 C   0  0  0  0  0  0
  -25.9047  -34.9472   23.5123 C   0  0  0  0  0  0
  -16.5370  -29.9113   23.6328 C   0  0  0  0  0  0
  -16.7293  -28.6533   23.0377 C   0  0  0  0  0  0
  -26.4528  -31.6573   25.0631 C   0  0  0  0  0  0
  -25.3783  -31.3614   26.1338 C   0  0  0  0  0  0
  -27.0375  -30.3070   24.5919 C   0  0  0  0  0  0
  -27.6134  -32.4243   25.7396 C   0  0  0  0  0  0
  -27.5557  -37.1770   24.8505 C   0  0  0  0  0  0
  -21.4181  -29.3036   22.3722 N   0  0  0  0  0  0
  -26.4270  -37.3783   23.9447 N   0  0  0  0  0  0
  -24.6825  -31.0696   22.0926 N   0  0  0  0  0  0
  -23.4241  -28.8197   23.2981 O   0  0  0  0  0  0
  -28.3204  -26.4852   20.1156 O   0  0  0  0  0  0
  -26.5598  -34.8958   22.4666 O   0  0  0  0  0  0
  -23.5399  -32.1357   23.7411 O   0  0  0  0  0  0
  -30.4122  -22.0971   20.7852 C   0  0  0  0  0  0
  -28.3954  -21.5259   19.6155 C   0  0  0  0  0  0
  -29.9692  -23.4453   20.9090 C   0  0  0  0  0  0
  -27.9438  -22.8744   19.7451 C   0  0  0  0  0  0
  -29.6338  -21.0886   20.1616 C   0  0  0  0  0  0
  -28.7109  -23.8648   20.4180 C   0  0  0  0  0  0
  -29.6824  -18.6475   19.0303 C   0  0  0  0  0  0
  -30.2087  -19.6489   20.0383 C   0  0  2  0  0  0
  -29.6028  -18.2851   20.4932 C   0  0  2  0  0  0
  -28.0848  -25.2346   20.8536 C   0  0  0  0  0  0
  -30.4628  -17.0956   21.0305 C   0  0  0  0  0  0
  -29.9726  -15.6836   20.9199 N   0  0  0  0  0  0
  -31.4677  -12.4849   19.1268 H   0  0  0  0  0  0
  -30.3564  -11.3804   19.8795 H   0  0  0  0  0  0
  -29.7528  -11.7563   17.4650 H   0  0  0  0  0  0
  -29.6569  -13.4774   17.7408 H   0  0  0  0  0  0
  -27.8213  -11.3179   18.8165 H   0  0  0  0  0  0
  -27.3791  -12.6446   17.7796 H   0  0  0  0  0  0
  -27.6728  -14.2648   19.5223 H   0  0  0  0  0  0
  -28.7070  -12.0744   21.3949 H   0  0  0  0  0  0
  -28.4598  -13.7439   21.8233 H   0  0  0  0  0  0
  -25.2802   -9.5683   22.4730 H   0  0  0  0  0  0
  -24.0012   -7.4663   22.7488 H   0  0  0  0  0  0
  -21.0872   -8.8777   19.8940 H   0  0  0  0  0  0
  -22.3752  -10.9652   19.6110 H   0  0  0  0  0  0
  -21.2005   -7.6154   23.9700 H   0  0  0  0  0  0
  -21.1457   -6.0517   25.9066 H   0  0  0  0  0  0
  -22.0622   -2.7610   23.2817 H   0  0  0  0  0  0
  -22.4100  -11.9808   22.4642 H   0  0  0  0  0  0
  -21.1090  -13.1183   22.2589 H   0  0  0  0  0  0
  -24.6744  -15.8615   20.5171 H   0  0  0  0  0  0
  -26.2924  -15.6225   20.0911 H   0  0  0  0  0  0
  -26.7132  -32.5496   23.1071 H   0  0  0  0  0  0
  -25.0245  -33.9730   25.0557 H   0  0  0  0  0  0
  -22.7071  -31.3083   21.4034 H   0  0  0  0  0  0
  -23.3791  -35.9480   23.3332 H   0  0  0  0  0  0
  -24.3573  -36.8763   22.2043 H   0  0  0  0  0  0
  -23.7162  -37.6413   23.6633 H   0  0  0  0  0  0
  -26.0589  -31.5628   20.5760 H   0  0  0  0  0  0
  -26.8469  -30.8799   21.9633 H   0  0  0  0  0  0
  -28.1148  -29.0158   21.1843 H   0  0  0  0  0  0
  -26.0077  -25.9395   19.0074 H   0  0  0  0  0  0
  -23.9644  -27.3074   19.0177 H   0  0  0  0  0  0
  -23.7316  -30.5973   19.3977 H   0  0  0  0  0  0
  -22.7461  -29.2451   19.8648 H   0  0  0  0  0  0
  -25.1295  -36.1898   25.0841 H   0  0  0  0  0  0
  -21.0050  -28.3179   24.1421 H   0  0  0  0  0  0
  -20.5748  -26.2231   23.3564 H   0  0  0  0  0  0
  -21.6639  -26.7467   22.1119 H   0  0  0  0  0  0
  -19.6852  -25.6387   21.1147 H   0  0  0  0  0  0
  -19.6649  -27.3347   20.6850 H   0  0  0  0  0  0
  -17.4195  -26.6827   21.4015 H   0  0  0  0  0  0
  -18.0257  -26.0134   22.9015 H   0  0  0  0  0  0
  -19.7942  -30.7328   24.2304 H   0  0  0  0  0  0
  -17.5001  -31.6274   24.5200 H   0  0  0  0  0  0
  -15.5366  -30.3003   23.7649 H   0  0  0  0  0  0
  -15.8701  -28.0843   22.7055 H   0  0  0  0  0  0
  -24.6076  -30.6845   25.7645 H   0  0  0  0  0  0
  -24.8833  -32.2727   26.4699 H   0  0  0  0  0  0
  -25.8135  -30.8865   27.0136 H   0  0  0  0  0  0
  -26.2889  -29.6802   24.1069 H   0  0  0  0  0  0
  -27.4382  -29.7291   25.4254 H   0  0  0  0  0  0
  -27.8610  -30.4496   23.8908 H   0  0  0  0  0  0
  -27.2868  -33.3617   26.1895 H   0  0  0  0  0  0
  -28.4027  -32.6632   25.0252 H   0  0  0  0  0  0
  -28.0714  -31.8363   26.5352 H   0  0  0  0  0  0
  -28.2630  -38.0028   24.7598 H   0  0  0  0  0  0
  -28.1027  -36.2593   24.6336 H   0  0  0  0  0  0
  -27.2284  -37.1369   25.8911 H   0  0  0  0  0  0
  -20.9328  -29.8741   21.6944 H   0  0  0  0  0  0
  -26.0142  -38.2841   24.1520 H   0  0  0  0  0  0
  -31.3727  -21.8280   21.1996 H   0  0  0  0  0  0
  -27.7605  -20.8167   19.1016 H   0  0  0  0  0  0
  -30.5881  -24.1465   21.4486 H   0  0  0  0  0  0
  -26.9631  -23.1268   19.3671 H   0  0  0  0  0  0
  -30.4219  -18.1176   18.4314 H   0  0  0  0  0  0
  -28.7277  -18.8216   18.5438 H   0  0  0  0  0  0
  -31.2926  -19.7130   20.1261 H   0  0  0  0  0  0
  -28.6124  -18.3431   20.9411 H   0  0  0  0  0  0
  -28.4478  -25.4239   21.8654 H   0  0  0  0  0  0
  -27.0193  -25.0461   20.9905 H   0  0  0  0  0  0
  -30.6251  -17.2791   22.0931 H   0  0  0  0  0  0
  -31.4553  -17.1700   20.5833 H   0  0  0  0  0  0
  -29.0263  -15.5052   21.2202 H   0  0  0  0  0  0
  1 25  1  0  0  0
  1 30  2  0  0  0
  1 82  1  0  0  0
  2  3  1  0  0  0
  2 25  1  0  0  0
  2 83  1  0  0  0
  2 84  1  0  0  0
  3  4  1  0  0  0
  3 85  1  0  0  0
  3 86  1  0  0  0
  4  5  1  0  0  0
  4 87  1  0  0  0
  4 88  1  0  0  0
  5  6  1  0  0  0
  5 26  1  0  0  0
  5 89  1  0  0  0
  6 25  1  0  0  0
  6 90  1  0  0  0
  6 91  1  0  0  0
  7  8  2  0  0  0
  7 26  1  0  0  0
  7 29  1  0  0  0
  8  9  1  0  0  0
  8 22  1  0  0  0
  9 10  1  0  0  0
  9 27  2  0  0  0
 10 11  2  0  0  0
 10 15  1  0  0  0
 11 12  1  0  0  0
 11 92  1  0  0  0
 12 13  2  0  0  0
 12 93  1  0  0  0
 13 14  1  0  0  0
 13 31  1  0  0  0
 14 15  2  0  0  0
 14 94  1  0  0  0
 15 95  1  0  0  0
 16 17  2  0  0  0
 16 21  1  0  0  0
 16 31  1  0  0  0
 17 18  1  0  0  0
 17 96  1  0  0  0
 18 19  2  0  0  0
 18 97  1  0  0  0
 19 20  1  0  0  0
 19 24  1  0  0  0
 20 21  2  0  0  0
 20 98  1  0  0  0
 21 23  1  0  0  0
 22 28  1  0  0  0
 22 32  2  0  0  0
 26 27  1  0  0  0
 28 99  1  0  0  0
 28100  1  0  0  0
 29101  1  0  0  0
 29102  1  0  0  0
 33 34  1  0  0  0
 33 66  1  0  0  0
 33 70  2  0  0  0
 34 36  1  0  0  0
 34 59  1  0  0  0
 34103  1  0  0  0
 35 44  2  0  0  0
 35 45  1  0  0  0
 35 68  1  0  0  0
 36 56  1  0  0  0
 36104  1  0  0  0
 37 39  1  0  0  0
 37 47  1  0  0  0
 37 66  1  0  0  0
 37105  1  0  0  0
 38 43  2  0  0  0
 38 46  1  0  0  0
 38 47  1  0  0  0
 39 64  1  0  0  0
 39 67  2  0  0  0
 40 52  1  0  0  0
 40 53  2  0  0  0
 40 58  1  0  0  0
 41106  1  0  0  0
 41107  1  0  0  0
 41108  1  0  0  0
 41 48  1  0  0  0
 42 43  1  0  0  0
 42 66  1  0  0  0
 42109  1  0  0  0
 42110  1  0  0  0
 43 44  1  0  0  0
 44111  1  0  0  0
 45 46  2  0  0  0
 45112  1  0  0  0
 46113  1  0  0  0
 47114  1  0  0  0
 47115  1  0  0  0
 48 56  1  0  0  0
 48 65  1  0  0  0
 48116  1  0  0  0
 49 50  1  0  0  0
 49 53  1  0  0  0
 49 64  1  0  0  0
 49117  1  0  0  0
 50 51  1  0  0  0
 50118  1  0  0  0
 50119  1  0  0  0
 51 52  1  0  0  0
 51120  1  0  0  0
 51121  1  0  0  0
 52122  1  0  0  0
 52123  1  0  0  0
 53 54  1  0  0  0
 54 55  2  0  0  0
 54124  1  0  0  0
 55 57  1  0  0  0
 55125  1  0  0  0
 56 69  2  0  0  0
 57 58  2  0  0  0
 57126  1  0  0  0
 58127  1  0  0  0
 59 60  1  0  0  0
 59 61  1  0  0  0
 59 62  1  0  0  0
 60128  1  0  0  0
 60129  1  0  0  0
 60130  1  0  0  0
 61131  1  0  0  0
 61132  1  0  0  0
 61133  1  0  0  0
 62134  1  0  0  0
 62135  1  0  0  0
 62136  1  0  0  0
 63 65  1  0  0  0
 63137  1  0  0  0
 63138  1  0  0  0
 63139  1  0  0  0
 64140  1  0  0  0
 65141  1  0  0  0
 68 80  1  0  0  0
 71 73  2  0  0  0
 71 75  1  0  0  0
 71142  1  0  0  0
 72 74  1  0  0  0
 72 75  2  0  0  0
 72143  1  0  0  0
 73 76  1  0  0  0
 73144  1  0  0  0
 74 76  2  0  0  0
 74145  1  0  0  0
 75 78  1  0  0  0
 76 80  1  0  0  0
 77 78  1  0  0  0
 77 79  1  0  0  0
 77146  1  0  0  0
 77147  1  0  0  0
 78 79  1  0  0  0
 78148  1  0  0  0
 79 81  1  0  0  0
 79149  1  0  0  0
 80150  1  0  0  0
 80151  1  0  0  0
 81 82  1  0  0  0
 81152  1  0  0  0
 81153  1  0  0  0
 82154  1  0  0  0
M  ISO  4   1 100  68 101  80 101  82 100
M  END
> <chiral flag>
0

> <version>
0

> <s_m_source_file>
/data/baiqing/PycharmProjects/Reinvent-master-3.2/result/LINK_invent/BTK/process_docking_weight1_custom_sum_contain_oxygen_bond_distance_aromatic_linkinvent_7_9_3/rearranged_h_0125.sdf

> <i_m_source_file_index>
42

> <r_mmod_Potential_Energy-OPLS-2005>
79.0143432617188

> <r_mmod_Stretch_Energy-OPLS-2005>
67.075553894043

> <r_mmod_Bend_Energy-OPLS-2005>
123.632621765137

> <r_mmod_Torsional_Energy-OPLS-2005>
278.132507324219

> <r_mmod_Improper_Torsional_Energy-OPLS-2005>
5.4630913734436

> <r_mmod_Van_der_Waal_Energy-OPLS-2005>
141.359130859375

> <r_mmod_Electrostatic_Energy-OPLS-2005>
-368.373046875

> <r_mmod_Solvation_Energy-OPLS-2005>
-205.418472290039

> <b_mmod_Minimization_Converged-OPLS-2005>
0

> <r_mmod_RMS_Derivative-OPLS-2005>
4.86642074584961

$$$$
42
                    3D
 Structure written by MMmdl.
153162  0  0  1  0            999 V2000
  -30.3843  -15.3310   20.3745 C   0  0  0  0  0  0
  -30.4428  -12.8740   19.4931 C   0  0  0  0  0  0
  -29.5262  -12.5593   18.2820 C   0  0  0  0  0  0
  -28.0865  -12.2647   18.7374 C   0  0  0  0  0  0
  -27.6006  -13.2685   19.8104 C   0  0  2  0  0  0
  -28.6369  -13.4788   20.9296 C   0  0  0  0  0  0
  -25.2350  -13.8242   20.5757 C   0  0  0  0  0  0
  -24.1710  -13.0448   20.9297 C   0  0  0  0  0  0
  -24.6364  -11.6940   20.8787 C   0  0  0  0  0  0
  -23.9069  -10.4302   21.0405 C   0  0  0  0  0  0
  -24.3616   -9.4203   21.9182 C   0  0  0  0  0  0
  -23.6276   -8.2239   22.0738 C   0  0  0  0  0  0
  -22.4266   -8.0266   21.3522 C   0  0  0  0  0  0
  -21.9906   -9.0264   20.4645 C   0  0  0  0  0  0
  -22.7239  -10.2147   20.3050 C   0  0  0  0  0  0
  -21.6858   -6.0718   22.5276 C   0  0  0  0  0  0
  -21.4026   -6.5624   23.8210 C   0  0  0  0  0  0
  -21.3651   -5.6779   24.9177 C   0  0  0  0  0  0
  -21.6031   -4.3043   24.7231 C   0  0  0  0  0  0
  -21.8825   -3.8126   23.4366 C   0  0  0  0  0  0
  -21.9198   -4.6936   22.3411 C   0  0  0  0  0  0
  -22.7726  -13.5187   21.1975 C   0  0  0  0  0  0
  -22.1660   -4.2125   21.0990 F   0  0  0  0  0  0
  -21.5610   -3.4527   25.7755 F   0  0  0  0  0  0
  -29.8411  -14.0168   20.2737 N   0  0  0  0  0  0
  -26.2757  -12.9510   20.3220 N   0  0  0  0  0  0
  -25.9301  -11.6613   20.5757 N   0  0  0  0  0  0
  -22.0400  -12.8167   22.0533 N   0  0  0  0  0  0
  -25.3962  -15.1983   20.4177 N   0  0  0  0  0  0
  -31.6216  -15.3290   20.3009 O   0  0  0  0  0  0
  -21.6607   -6.8864   21.4240 O   0  0  0  0  0  0
  -22.3403  -14.5496   20.6829 O   0  0  0  0  0  0
  -24.6750  -31.8238   23.1639 C   0  0  0  0  0  0
  -25.9404  -32.4571   23.8161 C   0  0  1  0  0  0
  -27.2144  -26.8834   20.1889 C   0  0  0  0  0  0
  -25.6028  -33.8387   24.2051 N   0  0  0  0  0  0
  -23.4879  -30.4291   21.5232 C   0  0  2  0  0  0
  -24.9320  -28.8015   20.1191 C   0  0  0  0  0  0
  -22.7780  -29.4425   22.4857 C   0  0  0  0  0  0
  -18.0356  -28.1403   22.8436 C   0  0  0  0  0  0
  -24.1456  -36.7196   23.2664 C   0  0  0  0  0  0
  -26.0589  -30.6116   21.3950 C   0  0  0  0  0  0
  -26.1208  -29.1952   20.7457 C   0  0  0  0  0  0
  -27.2594  -28.2612   20.7489 C   0  0  0  0  0  0
  -25.9927  -26.6463   19.5216 C   0  0  0  0  0  0
  -24.8924  -27.5462   19.4892 C   0  0  0  0  0  0
  -23.7244  -29.7446   20.1484 C   0  0  0  0  0  0
  -25.4085  -36.2979   24.0346 C   0  0  1  0  0  0
  -20.5992  -28.3758   23.1176 C   0  0  2  0  0  0
  -20.6830  -26.9439   22.5409 C   0  0  0  0  0  0
  -19.5781  -26.6351   21.5243 C   0  0  0  0  0  0
  -18.1943  -26.7914   22.1625 C   0  0  0  0  0  0
  -19.1614  -28.8902   23.2756 C   0  0  0  0  0  0
  -18.9543  -30.1486   23.8791 C   0  0  0  0  0  0
  -17.6528  -30.6567   24.0551 C   0  0  0  0  0  0
  -25.9097  -34.9364   23.5020 C   0  0  0  0  0  0
  -16.5416  -29.9062   23.6349 C   0  0  0  0  0  0
  -16.7339  -28.6505   23.0318 C   0  0  0  0  0  0
  -26.4578  -31.6533   25.0720 C   0  0  0  0  0  0
  -25.3676  -31.3817   26.1368 C   0  0  0  0  0  0
  -27.0529  -30.2929   24.6460 C   0  0  0  0  0  0
  -27.6061  -32.4389   25.7494 C   0  0  0  0  0  0
  -27.5562  -37.1710   24.8482 C   0  0  0  0  0  0
  -21.4456  -29.3018   22.3555 N   0  0  0  0  0  0
  -26.4222  -37.3738   23.9502 N   0  0  0  0  0  0
  -24.7643  -30.9844   22.0785 N   0  0  0  0  0  0
  -23.4282  -28.8050   23.3150 O   0  0  0  0  0  0
  -28.2318  -25.7782   20.1735 O   0  0  0  0  0  0
  -26.5732  -34.8941   22.4623 O   0  0  0  0  0  0
  -23.5803  -32.1246   23.6672 O   0  0  0  0  0  0
  -29.0976  -19.4812   19.9477 C   0  0  0  0  0  0
  -29.4790  -20.8761   21.8345 C   0  0  0  0  0  0
  -29.0288  -20.9287   20.5067 C   0  0  0  0  0  0
  -29.5755  -18.1730   20.6378 C   0  0  0  0  0  0
  -29.9063  -18.4976   21.9808 C   0  0  0  0  0  0
  -29.4165  -16.3071   23.4483 C   0  0  0  0  0  0
  -29.6018  -17.4775   24.3690 C   0  0  0  0  0  0
  -30.3006  -17.4715   23.0193 C   0  0  0  0  0  0
  -28.6751  -22.5409   19.8496 C   0  0  0  0  0  0
  -28.0946  -24.1474   20.5225 C   0  0  0  0  0  0
  -29.8773  -19.7596   22.5032 N   0  0  0  0  0  0
  -29.5917  -16.5923   20.2145 N   0  0  0  0  0  0
  -31.4353  -13.1374   19.1220 H   0  0  0  0  0  0
  -30.5833  -11.9926   20.1200 H   0  0  0  0  0  0
  -29.9182  -11.7095   17.7206 H   0  0  0  0  0  0
  -29.5252  -13.4076   17.5964 H   0  0  0  0  0  0
  -28.0769  -11.2566   19.1562 H   0  0  0  0  0  0
  -27.4077  -12.2441   17.8859 H   0  0  0  0  0  0
  -27.5035  -14.2196   19.2846 H   0  0  0  0  0  0
  -28.8376  -12.5571   21.4771 H   0  0  0  0  0  0
  -28.2590  -14.2024   21.6527 H   0  0  0  0  0  0
  -25.2754   -9.5652   22.4788 H   0  0  0  0  0  0
  -23.9960   -7.4611   22.7463 H   0  0  0  0  0  0
  -21.0814   -8.8804   19.8972 H   0  0  0  0  0  0
  -22.3672  -10.9695   19.6166 H   0  0  0  0  0  0
  -21.2028   -7.6135   23.9724 H   0  0  0  0  0  0
  -21.1454   -6.0497   25.9080 H   0  0  0  0  0  0
  -22.0612   -2.7588   23.2876 H   0  0  0  0  0  0
  -22.4008  -11.9801   22.4876 H   0  0  0  0  0  0
  -21.1041  -13.1211   22.2816 H   0  0  0  0  0  0
  -24.6163  -15.8393   20.5145 H   0  0  0  0  0  0
  -26.2402  -15.6563   20.1014 H   0  0  0  0  0  0
  -26.7507  -32.5081   23.0917 H   0  0  0  0  0  0
  -25.0161  -33.9443   25.0197 H   0  0  0  0  0  0
  -22.8013  -31.2619   21.3557 H   0  0  0  0  0  0
  -23.3792  -35.9452   23.3249 H   0  0  0  0  0  0
  -24.3560  -36.8915   22.2099 H   0  0  0  0  0  0
  -23.7109  -37.6327   23.6753 H   0  0  0  0  0  0
  -26.2404  -31.3507   20.6115 H   0  0  0  0  0  0
  -26.9181  -30.6675   22.0518 H   0  0  0  0  0  0
  -28.1650  -28.5736   21.2483 H   0  0  0  0  0  0
  -25.8683  -25.6894   19.0306 H   0  0  0  0  0  0
  -23.9903  -27.2312   18.9812 H   0  0  0  0  0  0
  -23.8993  -30.5198   19.4004 H   0  0  0  0  0  0
  -22.8257  -29.2198   19.8221 H   0  0  0  0  0  0
  -25.1233  -36.1789   25.0832 H   0  0  0  0  0  0
  -20.9997  -28.3358   24.1339 H   0  0  0  0  0  0
  -20.5758  -26.2401   23.3683 H   0  0  0  0  0  0
  -21.6672  -26.7428   22.1172 H   0  0  0  0  0  0
  -19.6957  -25.6255   21.1286 H   0  0  0  0  0  0
  -19.6662  -27.3147   20.6765 H   0  0  0  0  0  0
  -17.4233  -26.6725   21.3988 H   0  0  0  0  0  0
  -18.0263  -26.0034   22.9000 H   0  0  0  0  0  0
  -19.8026  -30.7307   24.2084 H   0  0  0  0  0  0
  -17.5100  -31.6244   24.5187 H   0  0  0  0  0  0
  -15.5391  -30.2928   23.7712 H   0  0  0  0  0  0
  -15.8765  -28.0823   22.7008 H   0  0  0  0  0  0
  -24.5804  -30.7237   25.7654 H   0  0  0  0  0  0
  -24.8915  -32.3040   26.4723 H   0  0  0  0  0  0
  -25.7825  -30.8996   27.0226 H   0  0  0  0  0  0
  -26.3246  -29.6553   24.1430 H   0  0  0  0  0  0
  -27.4100  -29.7315   25.5110 H   0  0  0  0  0  0
  -27.9135  -30.4192   23.9883 H   0  0  0  0  0  0
  -27.2639  -33.3767   26.1896 H   0  0  0  0  0  0
  -28.3896  -32.6845   25.0302 H   0  0  0  0  0  0
  -28.0726  -31.8670   26.5535 H   0  0  0  0  0  0
  -28.2500  -38.0080   24.7636 H   0  0  0  0  0  0
  -28.1109  -36.2625   24.6104 H   0  0  0  0  0  0
  -27.2363  -37.1149   25.8901 H   0  0  0  0  0  0
  -20.9808  -29.8737   21.6655 H   0  0  0  0  0  0
  -26.0093  -38.2790   24.1564 H   0  0  0  0  0  0
  -28.7707  -19.3708   18.9220 H   0  0  0  0  0  0
  -29.5476  -21.7947   22.3959 H   0  0  0  0  0  0
  -28.4358  -16.1951   22.9963 H   0  0  0  0  0  0
  -29.9047  -15.3756   23.7386 H   0  0  0  0  0  0
  -30.2111  -17.3297   25.2562 H   0  0  0  0  0  0
  -28.7334  -18.1220   24.5000 H   0  0  0  0  0  0
  -31.3764  -17.2989   23.0014 H   0  0  0  0  0  0
  -27.9886  -22.3405   19.0241 H   0  0  0  0  0  0
  -29.6062  -22.7873   19.3357 H   0  0  0  0  0  0
  -28.5230  -24.1454   21.5261 H   0  0  0  0  0  0
  -27.0305  -24.0005   20.7154 H   0  0  0  0  0  0
  -28.7188  -16.3470   19.7692 H   0  0  0  0  0  0
  1 25  1  0  0  0
  1 30  2  0  0  0
  1 82  1  0  0  0
  2  3  1  0  0  0
  2 25  1  0  0  0
  2 83  1  0  0  0
  2 84  1  0  0  0
  3  4  1  0  0  0
  3 85  1  0  0  0
  3 86  1  0  0  0
  4  5  1  0  0  0
  4 87  1  0  0  0
  4 88  1  0  0  0
  5  6  1  0  0  0
  5 26  1  0  0  0
  5 89  1  0  0  0
  6 25  1  0  0  0
  6 90  1  0  0  0
  6 91  1  0  0  0
  7  8  2  0  0  0
  7 26  1  0  0  0
  7 29  1  0  0  0
  8  9  1  0  0  0
  8 22  1  0  0  0
  9 10  1  0  0  0
  9 27  2  0  0  0
 10 11  2  0  0  0
 10 15  1  0  0  0
 11 12  1  0  0  0
 11 92  1  0  0  0
 12 13  2  0  0  0
 12 93  1  0  0  0
 13 14  1  0  0  0
 13 31  1  0  0  0
 14 15  2  0  0  0
 14 94  1  0  0  0
 15 95  1  0  0  0
 16 17  2  0  0  0
 16 21  1  0  0  0
 16 31  1  0  0  0
 17 18  1  0  0  0
 17 96  1  0  0  0
 18 19  2  0  0  0
 18 97  1  0  0  0
 19 20  1  0  0  0
 19 24  1  0  0  0
 20 21  2  0  0  0
 20 98  1  0  0  0
 21 23  1  0  0  0
 22 28  1  0  0  0
 22 32  2  0  0  0
 26 27  1  0  0  0
 28 99  1  0  0  0
 28100  1  0  0  0
 29101  1  0  0  0
 29102  1  0  0  0
 33 34  1  0  0  0
 33 66  1  0  0  0
 33 70  2  0  0  0
 34 36  1  0  0  0
 34 59  1  0  0  0
 34103  1  0  0  0
 35 44  2  0  0  0
 35 45  1  0  0  0
 35 68  1  0  0  0
 36 56  1  0  0  0
 36104  1  0  0  0
 37 39  1  0  0  0
 37 47  1  0  0  0
 37 66  1  0  0  0
 37105  1  0  0  0
 38 43  2  0  0  0
 38 46  1  0  0  0
 38 47  1  0  0  0
 39 64  1  0  0  0
 39 67  2  0  0  0
 40 52  1  0  0  0
 40 53  2  0  0  0
 40 58  1  0  0  0
 41106  1  0  0  0
 41107  1  0  0  0
 41108  1  0  0  0
 41 48  1  0  0  0
 42 43  1  0  0  0
 42 66  1  0  0  0
 42109  1  0  0  0
 42110  1  0  0  0
 43 44  1  0  0  0
 44111  1  0  0  0
 45 46  2  0  0  0
 45112  1  0  0  0
 46113  1  0  0  0
 47114  1  0  0  0
 47115  1  0  0  0
 48 56  1  0  0  0
 48 65  1  0  0  0
 48116  1  0  0  0
 49 50  1  0  0  0
 49 53  1  0  0  0
 49 64  1  0  0  0
 49117  1  0  0  0
 50 51  1  0  0  0
 50118  1  0  0  0
 50119  1  0  0  0
 51 52  1  0  0  0
 51120  1  0  0  0
 51121  1  0  0  0
 52122  1  0  0  0
 52123  1  0  0  0
 53 54  1  0  0  0
 54 55  2  0  0  0
 54124  1  0  0  0
 55 57  1  0  0  0
 55125  1  0  0  0
 56 69  2  0  0  0
 57 58  2  0  0  0
 57126  1  0  0  0
 58127  1  0  0  0
 59 60  1  0  0  0
 59 61  1  0  0  0
 59 62  1  0  0  0
 60128  1  0  0  0
 60129  1  0  0  0
 60130  1  0  0  0
 61131  1  0  0  0
 61132  1  0  0  0
 61133  1  0  0  0
 62134  1  0  0  0
 62135  1  0  0  0
 62136  1  0  0  0
 63 65  1  0  0  0
 63137  1  0  0  0
 63138  1  0  0  0
 63139  1  0  0  0
 64140  1  0  0  0
 65141  1  0  0  0
 68 80  1  0  0  0
 71 73  2  0  0  0
 71 74  1  0  0  0
 71142  1  0  0  0
 72 73  1  0  0  0
 72 81  2  0  0  0
 72143  1  0  0  0
 73 79  1  0  0  0
 74 75  2  0  0  0
 74 82  1  0  0  0
 75 81  1  0  0  0
 75 78  1  0  0  0
 76 77  1  0  0  0
 76 78  1  0  0  0
 76144  1  0  0  0
 76145  1  0  0  0
 77 78  1  0  0  0
 77146  1  0  0  0
 77147  1  0  0  0
 78148  1  0  0  0
 79 80  1  0  0  0
 79149  1  0  0  0
 79150  1  0  0  0
 80151  1  0  0  0
 80152  1  0  0  0
 82153  1  0  0  0
M  ISO  4   1 100  68 101  80 101  82 100
M  END
> <chiral flag>
0

> <version>
0

> <s_m_source_file>
/data/baiqing/PycharmProjects/Reinvent-master-3.2/result/LINK_invent/BTK/process_docking_weight1_custom_sum_contain_oxygen_bond_distance_aromatic_linkinvent_7_9_3/rearranged_h_0125.sdf

> <i_m_source_file_index>
43

> <r_mmod_Potential_Energy-OPLS-2005>
1297.23266601562

> <r_mmod_Stretch_Energy-OPLS-2005>
647.318969726562

> <r_mmod_Bend_Energy-OPLS-2005>
450.896667480469

> <r_mmod_Torsional_Energy-OPLS-2005>
284.973846435547

> <r_mmod_Improper_Torsional_Energy-OPLS-2005>
10.5424337387085

> <r_mmod_Van_der_Waal_Energy-OPLS-2005>
116.710800170898

> <r_mmod_Electrostatic_Energy-OPLS-2005>
-526.173400878906

> <r_mmod_Solvation_Energy-OPLS-2005>
-220.975204467773

> <b_mmod_Minimization_Converged-OPLS-2005>
0

> <r_mmod_RMS_Derivative-OPLS-2005>
5.2778582572937

$$$$
43
                    3D
 Structure written by MMmdl.
161169  0  0  1  0            999 V2000
  -30.6263  -14.6401   20.4917 C   0  0  0  0  0  0
  -30.4377  -12.3865   19.4551 C   0  0  0  0  0  0
  -29.5110  -12.5081   18.2251 C   0  0  0  0  0  0
  -28.0328  -12.3443   18.6329 C   0  0  0  0  0  0
  -27.6540  -13.2145   19.8615 C   0  0  2  0  0  0
  -28.6983  -13.0725   20.9923 C   0  0  0  0  0  0
  -25.2569  -13.8161   20.5680 C   0  0  0  0  0  0
  -24.1837  -13.0430   20.9208 C   0  0  0  0  0  0
  -24.6400  -11.6899   20.8730 C   0  0  0  0  0  0
  -23.9063  -10.4287   21.0383 C   0  0  0  0  0  0
  -24.3612   -9.4209   21.9173 C   0  0  0  0  0  0
  -23.6287   -8.2247   22.0753 C   0  0  0  0  0  0
  -22.4275   -8.0274   21.3544 C   0  0  0  0  0  0
  -21.9906   -9.0241   20.4650 C   0  0  0  0  0  0
  -22.7225  -10.2126   20.3044 C   0  0  0  0  0  0
  -21.6854   -6.0731   22.5277 C   0  0  0  0  0  0
  -21.4016   -6.5638   23.8212 C   0  0  0  0  0  0
  -21.3666   -5.6789   24.9175 C   0  0  0  0  0  0
  -21.6041   -4.3051   24.7227 C   0  0  0  0  0  0
  -21.8818   -3.8148   23.4346 C   0  0  0  0  0  0
  -21.9199   -4.6958   22.3406 C   0  0  0  0  0  0
  -22.7861  -13.5234   21.1852 C   0  0  0  0  0  0
  -22.1657   -4.2149   21.0984 F   0  0  0  0  0  0
  -21.5641   -3.4536   25.7743 F   0  0  0  0  0  0
  -30.0168  -13.4123   20.4309 N   0  0  0  0  0  0
  -26.2993  -12.9338   20.3295 N   0  0  0  0  0  0
  -25.9327  -11.6500   20.5735 N   0  0  0  0  0  0
  -22.0476  -12.8248   22.0401 N   0  0  0  0  0  0
  -25.4296  -15.1888   20.4077 N   0  0  0  0  0  0
  -31.7944  -14.7829   20.1146 O   0  0  0  0  0  0
  -21.6641   -6.8869   21.4238 O   0  0  0  0  0  0
  -22.3557  -14.5539   20.6677 O   0  0  0  0  0  0
  -24.6240  -31.8616   23.2047 C   0  0  0  0  0  0
  -25.9108  -32.4781   23.8355 C   0  0  1  0  0  0
  -27.2206  -27.3371   20.1086 C   0  0  0  0  0  0
  -25.5935  -33.8584   24.2293 N   0  0  0  0  0  0
  -23.4155  -30.4855   21.5476 C   0  0  2  0  0  0
  -24.8610  -28.9430   20.1151 C   0  0  0  0  0  0
  -22.7455  -29.4629   22.4957 C   0  0  0  0  0  0
  -18.0277  -28.1380   22.8489 C   0  0  0  0  0  0
  -24.1493  -36.7292   23.2637 C   0  0  0  0  0  0
  -25.9556  -30.7960   21.3744 C   0  0  0  0  0  0
  -26.0296  -29.4242   20.7191 C   0  0  0  0  0  0
  -27.2142  -28.6322   20.7076 C   0  0  0  0  0  0
  -26.0339  -26.9113   19.4701 C   0  0  0  0  0  0
  -24.8637  -27.6899   19.4847 C   0  0  0  0  0  0
  -23.6284  -29.8203   20.1630 C   0  0  0  0  0  0
  -25.4122  -36.3086   24.0322 C   0  0  1  0  0  0
  -20.5877  -28.3683   23.1293 C   0  0  2  0  0  0
  -20.6773  -26.9414   22.5408 C   0  0  0  0  0  0
  -19.5746  -26.6385   21.5211 C   0  0  0  0  0  0
  -18.1924  -26.7924   22.1620 C   0  0  0  0  0  0
  -19.1532  -28.8846   23.2882 C   0  0  0  0  0  0
  -18.9453  -30.1450   23.8893 C   0  0  0  0  0  0
  -17.6454  -30.6586   24.0562 C   0  0  0  0  0  0
  -25.9047  -34.9453   23.5102 C   0  0  0  0  0  0
  -16.5345  -29.9088   23.6331 C   0  0  0  0  0  0
  -16.7263  -28.6500   23.0355 C   0  0  0  0  0  0
  -26.4506  -31.6575   25.0712 C   0  0  0  0  0  0
  -25.3759  -31.3702   26.1448 C   0  0  0  0  0  0
  -27.0341  -30.2993   24.6150 C   0  0  0  0  0  0
  -27.6062  -32.4301   25.7488 C   0  0  0  0  0  0
  -27.5583  -37.1799   24.8461 C   0  0  0  0  0  0
  -21.4172  -29.3048   22.3702 N   0  0  0  0  0  0
  -26.4302  -37.3778   23.9401 N   0  0  0  0  0  0
  -24.6837  -31.0639   22.0987 N   0  0  0  0  0  0
  -23.4191  -28.8170   23.3026 O   0  0  0  0  0  0
  -28.3454  -26.5045   20.1151 O   0  0  0  0  0  0
  -26.5613  -34.8916   22.4668 O   0  0  0  0  0  0
  -23.5411  -32.1408   23.7387 O   0  0  0  0  0  0
  -28.6600  -17.8454   20.7662 C   0  0  0  0  0  0
  -28.5651  -19.2455   20.5167 C   0  0  0  0  0  0
  -29.7184  -19.9804   20.1229 C   0  0  0  0  0  0
  -30.9108  -19.1927   20.0355 C   0  0  0  0  0  0
  -29.8716  -17.1263   20.6090 C   0  0  0  0  0  0
  -27.2123  -19.9205   20.6680 C   0  0  0  0  0  0
  -32.2428  -19.8072   19.6357 C   0  0  0  0  0  0
  -30.6407  -24.5179   20.4419 C   0  0  0  0  0  0
  -29.6773  -21.4941   19.6369 C   0  0  0  0  0  0
  -28.1475  -25.0811   20.4716 C   0  0  0  0  0  0
  -29.2458  -24.0351   19.9969 C   0  0  2  0  0  0
  -30.9731  -17.8416   20.2614 N   0  0  0  0  0  0
  -29.8109  -15.6856   20.8355 N   0  0  0  0  0  0
  -29.0101  -22.5919   20.4443 N   0  3  0  0  0  0
  -31.4808  -12.5024   19.1551 H   0  0  0  0  0  0
  -30.3644  -11.3904   19.8955 H   0  0  0  0  0  0
  -29.7783  -11.7620   17.4745 H   0  0  0  0  0  0
  -29.6562  -13.4802   17.7519 H   0  0  0  0  0  0
  -27.8704  -11.2908   18.8613 H   0  0  0  0  0  0
  -27.3805  -12.5737   17.7902 H   0  0  0  0  0  0
  -27.6705  -14.2501   19.5215 H   0  0  0  0  0  0
  -28.7087  -12.0506   21.3739 H   0  0  0  0  0  0
  -28.4426  -13.7051   21.8440 H   0  0  0  0  0  0
  -25.2743   -9.5706   22.4760 H   0  0  0  0  0  0
  -23.9999   -7.4651   22.7475 H   0  0  0  0  0  0
  -21.0844   -8.8744   19.8958 H   0  0  0  0  0  0
  -22.3655  -10.9665   19.6165 H   0  0  0  0  0  0
  -21.1990   -7.6135   23.9721 H   0  0  0  0  0  0
  -21.1497   -6.0512   25.9078 H   0  0  0  0  0  0
  -22.0595   -2.7608   23.2852 H   0  0  0  0  0  0
  -22.4051  -11.9913   22.4828 H   0  0  0  0  0  0
  -21.1087  -13.1300   22.2548 H   0  0  0  0  0  0
  -24.6593  -15.8398   20.5153 H   0  0  0  0  0  0
  -26.2594  -15.6215   20.0229 H   0  0  0  0  0  0
  -26.7167  -32.5458   23.1096 H   0  0  0  0  0  0
  -25.0101  -33.9742   25.0448 H   0  0  0  0  0  0
  -22.7085  -31.3053   21.4048 H   0  0  0  0  0  0
  -23.3757  -35.9619   23.3288 H   0  0  0  0  0  0
  -24.3579  -36.8929   22.2052 H   0  0  0  0  0  0
  -23.7239  -37.6485   23.6668 H   0  0  0  0  0  0
  -26.0865  -31.5599   20.6068 H   0  0  0  0  0  0
  -26.8359  -30.8438   22.0026 H   0  0  0  0  0  0
  -28.1129  -28.9986   21.1842 H   0  0  0  0  0  0
  -25.9927  -25.9715   18.9383 H   0  0  0  0  0  0
  -23.9715  -27.3218   18.9971 H   0  0  0  0  0  0
  -23.7457  -30.5951   19.4041 H   0  0  0  0  0  0
  -22.7492  -29.2469   19.8627 H   0  0  0  0  0  0
  -25.1306  -36.1935   25.0812 H   0  0  0  0  0  0
  -20.9958  -28.3251   24.1414 H   0  0  0  0  0  0
  -20.5687  -26.2295   23.3605 H   0  0  0  0  0  0
  -21.6643  -26.7455   22.1194 H   0  0  0  0  0  0
  -19.6916  -25.6295   21.1243 H   0  0  0  0  0  0
  -19.6689  -27.3199   20.6745 H   0  0  0  0  0  0
  -17.4203  -26.6674   21.4012 H   0  0  0  0  0  0
  -18.0317  -26.0054   22.9002 H   0  0  0  0  0  0
  -19.7932  -30.7267   24.2261 H   0  0  0  0  0  0
  -17.5008  -31.6269   24.5159 H   0  0  0  0  0  0
  -15.5345  -30.2992   23.7643 H   0  0  0  0  0  0
  -15.8656  -28.0811   22.7084 H   0  0  0  0  0  0
  -24.5917  -30.7076   25.7769 H   0  0  0  0  0  0
  -24.8991  -32.2878   26.4902 H   0  0  0  0  0  0
  -25.8107  -30.8844   27.0195 H   0  0  0  0  0  0
  -26.2901  -29.6734   24.1211 H   0  0  0  0  0  0
  -27.4072  -29.7250   25.4638 H   0  0  0  0  0  0
  -27.8756  -30.4256   23.9337 H   0  0  0  0  0  0
  -27.2664  -33.3588   26.2073 H   0  0  0  0  0  0
  -28.3882  -32.6877   25.0339 H   0  0  0  0  0  0
  -28.0716  -31.8424   26.5406 H   0  0  0  0  0  0
  -28.2595  -38.0101   24.7518 H   0  0  0  0  0  0
  -28.1088  -36.2633   24.6286 H   0  0  0  0  0  0
  -27.2291  -37.1437   25.8860 H   0  0  0  0  0  0
  -20.9349  -29.8773   21.6912 H   0  0  0  0  0  0
  -26.0179  -38.2847   24.1410 H   0  0  0  0  0  0
  -27.7664  -17.3137   21.0619 H   0  0  0  0  0  0
  -26.4044  -19.1903   20.7184 H   0  0  0  0  0  0
  -26.9967  -20.5815   19.8291 H   0  0  0  0  0  0
  -27.1857  -20.4980   21.5919 H   0  0  0  0  0  0
  -32.5395  -20.5714   20.3543 H   0  0  0  0  0  0
  -32.1850  -20.2624   18.6468 H   0  0  0  0  0  0
  -33.0407  -19.0653   19.6067 H   0  0  0  0  0  0
  -30.8375  -25.5259   20.0742 H   0  0  0  0  0  0
  -31.4399  -23.8827   20.0616 H   0  0  0  0  0  0
  -30.7230  -24.5454   21.5291 H   0  0  0  0  0  0
  -29.2164  -21.4931   18.6475 H   0  0  0  0  0  0
  -30.6950  -21.8288   19.4570 H   0  0  0  0  0  0
  -28.0779  -25.0427   21.5589 H   0  0  0  0  0  0
  -27.1891  -24.7074   20.1182 H   0  0  0  0  0  0
  -29.2205  -24.0404   18.9057 H   0  0  0  0  0  0
  -28.9127  -15.3663   21.1589 H   0  0  0  0  0  0
  -29.2830  -22.5028   21.4111 H   0  0  0  0  0  0
  -28.0181  -22.4199   20.3999 H   0  0  0  0  0  0
  1 25  1  0  0  0
  1 30  2  0  0  0
  1 83  1  0  0  0
  2  3  1  0  0  0
  2 25  1  0  0  0
  2 85  1  0  0  0
  2 86  1  0  0  0
  3  4  1  0  0  0
  3 87  1  0  0  0
  3 88  1  0  0  0
  4  5  1  0  0  0
  4 89  1  0  0  0
  4 90  1  0  0  0
  5  6  1  0  0  0
  5 26  1  0  0  0
  5 91  1  0  0  0
  6 25  1  0  0  0
  6 92  1  0  0  0
  6 93  1  0  0  0
  7  8  2  0  0  0
  7 26  1  0  0  0
  7 29  1  0  0  0
  8  9  1  0  0  0
  8 22  1  0  0  0
  9 10  1  0  0  0
  9 27  2  0  0  0
 10 11  2  0  0  0
 10 15  1  0  0  0
 11 12  1  0  0  0
 11 94  1  0  0  0
 12 13  2  0  0  0
 12 95  1  0  0  0
 13 14  1  0  0  0
 13 31  1  0  0  0
 14 15  2  0  0  0
 14 96  1  0  0  0
 15 97  1  0  0  0
 16 17  2  0  0  0
 16 21  1  0  0  0
 16 31  1  0  0  0
 17 18  1  0  0  0
 17 98  1  0  0  0
 18 19  2  0  0  0
 18 99  1  0  0  0
 19 20  1  0  0  0
 19 24  1  0  0  0
 20 21  2  0  0  0
 20100  1  0  0  0
 21 23  1  0  0  0
 22 28  1  0  0  0
 22 32  2  0  0  0
 26 27  1  0  0  0
 28101  1  0  0  0
 28102  1  0  0  0
 29103  1  0  0  0
 29104  1  0  0  0
 33 34  1  0  0  0
 33 66  1  0  0  0
 33 70  2  0  0  0
 34 36  1  0  0  0
 34 59  1  0  0  0
 34105  1  0  0  0
 35 44  2  0  0  0
 35 45  1  0  0  0
 35 68  1  0  0  0
 36 56  1  0  0  0
 36106  1  0  0  0
 37 39  1  0  0  0
 37 47  1  0  0  0
 37 66  1  0  0  0
 37107  1  0  0  0
 38 43  2  0  0  0
 38 46  1  0  0  0
 38 47  1  0  0  0
 39 64  1  0  0  0
 39 67  2  0  0  0
 40 52  1  0  0  0
 40 53  2  0  0  0
 40 58  1  0  0  0
 41108  1  0  0  0
 41109  1  0  0  0
 41110  1  0  0  0
 41 48  1  0  0  0
 42 43  1  0  0  0
 42 66  1  0  0  0
 42111  1  0  0  0
 42112  1  0  0  0
 43 44  1  0  0  0
 44113  1  0  0  0
 45 46  2  0  0  0
 45114  1  0  0  0
 46115  1  0  0  0
 47116  1  0  0  0
 47117  1  0  0  0
 48 56  1  0  0  0
 48 65  1  0  0  0
 48118  1  0  0  0
 49 50  1  0  0  0
 49 53  1  0  0  0
 49 64  1  0  0  0
 49119  1  0  0  0
 50 51  1  0  0  0
 50120  1  0  0  0
 50121  1  0  0  0
 51 52  1  0  0  0
 51122  1  0  0  0
 51123  1  0  0  0
 52124  1  0  0  0
 52125  1  0  0  0
 53 54  1  0  0  0
 54 55  2  0  0  0
 54126  1  0  0  0
 55 57  1  0  0  0
 55127  1  0  0  0
 56 69  2  0  0  0
 57 58  2  0  0  0
 57128  1  0  0  0
 58129  1  0  0  0
 59 60  1  0  0  0
 59 61  1  0  0  0
 59 62  1  0  0  0
 60130  1  0  0  0
 60131  1  0  0  0
 60132  1  0  0  0
 61133  1  0  0  0
 61134  1  0  0  0
 61135  1  0  0  0
 62136  1  0  0  0
 62137  1  0  0  0
 62138  1  0  0  0
 63 65  1  0  0  0
 63139  1  0  0  0
 63140  1  0  0  0
 63141  1  0  0  0
 64142  1  0  0  0
 65143  1  0  0  0
 68 80  1  0  0  0
 71 72  2  0  0  0
 71 75  1  0  0  0
 71144  1  0  0  0
 72 73  1  0  0  0
 72 76  1  0  0  0
 73 74  2  0  0  0
 73 79  1  0  0  0
 74 77  1  0  0  0
 74 82  1  0  0  0
 75 82  2  0  0  0
 75 83  1  0  0  0
 76145  1  0  0  0
 76146  1  0  0  0
 76147  1  0  0  0
 77148  1  0  0  0
 77149  1  0  0  0
 77150  1  0  0  0
 78151  1  0  0  0
 78152  1  0  0  0
 78153  1  0  0  0
 78 81  1  0  0  0
 79 84  1  0  0  0
 79154  1  0  0  0
 79155  1  0  0  0
 80 81  1  0  0  0
 80156  1  0  0  0
 80157  1  0  0  0
 81 84  1  0  0  0
 81158  1  0  0  0
 83159  1  0  0  0
 84160  1  0  0  0
 84161  1  0  0  0
M  CHG  1  84   1
M  ISO  4   1 100  68 101  80 101  83 100
M  END
> <chiral flag>
0

> <version>
0

> <s_m_source_file>
/data/baiqing/PycharmProjects/Reinvent-master-3.2/result/LINK_invent/BTK/process_docking_weight1_custom_sum_contain_oxygen_bond_distance_aromatic_linkinvent_7_9_3/rearranged_h_0125.sdf

> <i_m_source_file_index>
44

> <r_mmod_Potential_Energy-OPLS-2005>
-177.879547119141

> <r_mmod_Stretch_Energy-OPLS-2005>
79.5891418457031

> <r_mmod_Bend_Energy-OPLS-2005>
141.468978881836

> <r_mmod_Torsional_Energy-OPLS-2005>
219.596618652344

> <r_mmod_Improper_Torsional_Energy-OPLS-2005>
5.0002555847168

> <r_mmod_Van_der_Waal_Energy-OPLS-2005>
145.587310791016

> <r_mmod_Electrostatic_Energy-OPLS-2005>
-331.7919921875

> <r_mmod_Solvation_Energy-OPLS-2005>
-480.800079345703

> <b_mmod_Minimization_Converged-OPLS-2005>
0

> <r_mmod_RMS_Derivative-OPLS-2005>
1.93659496307373

$$$$
44
                    3D
 Structure written by MMmdl.
158166  0  0  1  0            999 V2000
  -30.6067  -14.7403   20.4625 C   0  0  0  0  0  0
  -30.4339  -12.4520   19.4674 C   0  0  0  0  0  0
  -29.5081  -12.5011   18.2316 C   0  0  0  0  0  0
  -28.0350  -12.3239   18.6478 C   0  0  0  0  0  0
  -27.6410  -13.2263   19.8472 C   0  0  2  0  0  0
  -28.6864  -13.1586   20.9819 C   0  0  0  0  0  0
  -25.2511  -13.8186   20.5668 C   0  0  0  0  0  0
  -24.1803  -13.0440   20.9212 C   0  0  0  0  0  0
  -24.6391  -11.6918   20.8765 C   0  0  0  0  0  0
  -23.9076  -10.4296   21.0421 C   0  0  0  0  0  0
  -24.3629   -9.4207   21.9191 C   0  0  0  0  0  0
  -23.6299   -8.2246   22.0759 C   0  0  0  0  0  0
  -22.4283   -8.0289   21.3547 C   0  0  0  0  0  0
  -21.9924   -9.0262   20.4648 C   0  0  0  0  0  0
  -22.7258  -10.2139   20.3056 C   0  0  0  0  0  0
  -21.6847   -6.0744   22.5281 C   0  0  0  0  0  0
  -21.4013   -6.5649   23.8217 C   0  0  0  0  0  0
  -21.3658   -5.6799   24.9175 C   0  0  0  0  0  0
  -21.6039   -4.3059   24.7223 C   0  0  0  0  0  0
  -21.8821   -3.8156   23.4344 C   0  0  0  0  0  0
  -21.9197   -4.6973   22.3401 C   0  0  0  0  0  0
  -22.7829  -13.5225   21.1870 C   0  0  0  0  0  0
  -22.1661   -4.2163   21.0976 F   0  0  0  0  0  0
  -21.5631   -3.4535   25.7735 F   0  0  0  0  0  0
  -29.9864  -13.5121   20.3991 N   0  0  0  0  0  0
  -26.2932  -12.9383   20.3260 N   0  0  0  0  0  0
  -25.9315  -11.6532   20.5756 N   0  0  0  0  0  0
  -22.0468  -12.8209   22.0418 N   0  0  0  0  0  0
  -25.4201  -15.1912   20.4047 N   0  0  0  0  0  0
  -31.8015  -14.8294   20.1622 O   0  0  0  0  0  0
  -21.6641   -6.8889   21.4245 O   0  0  0  0  0  0
  -22.3519  -14.5537   20.6723 O   0  0  0  0  0  0
  -24.6295  -31.8556   23.1948 C   0  0  0  0  0  0
  -25.9115  -32.4750   23.8312 C   0  0  1  0  0  0
  -27.2231  -27.2756   20.1419 C   0  0  0  0  0  0
  -25.5917  -33.8556   24.2239 N   0  0  0  0  0  0
  -23.4258  -30.4751   21.5376 C   0  0  2  0  0  0
  -24.8736  -28.9141   20.1154 C   0  0  0  0  0  0
  -22.7492  -29.4601   22.4897 C   0  0  0  0  0  0
  -18.0293  -28.1391   22.8492 C   0  0  0  0  0  0
  -24.1486  -36.7272   23.2645 C   0  0  0  0  0  0
  -25.9688  -30.7739   21.3698 C   0  0  0  0  0  0
  -26.0427  -29.3947   20.7191 C   0  0  0  0  0  0
  -27.2245  -28.5901   20.7131 C   0  0  0  0  0  0
  -26.0325  -26.8463   19.5229 C   0  0  0  0  0  0
  -24.8711  -27.6473   19.5056 C   0  0  0  0  0  0
  -23.6441  -29.8015   20.1563 C   0  0  0  0  0  0
  -25.4116  -36.3060   24.0328 C   0  0  1  0  0  0
  -20.5895  -28.3692   23.1273 C   0  0  2  0  0  0
  -20.6771  -26.9409   22.5413 C   0  0  0  0  0  0
  -19.5748  -26.6381   21.5215 C   0  0  0  0  0  0
  -18.1928  -26.7944   22.1620 C   0  0  0  0  0  0
  -19.1546  -28.8860   23.2879 C   0  0  0  0  0  0
  -18.9473  -30.1467   23.8887 C   0  0  0  0  0  0
  -17.6472  -30.6590   24.0569 C   0  0  0  0  0  0
  -25.9053  -34.9438   23.5085 C   0  0  0  0  0  0
  -16.5358  -29.9091   23.6337 C   0  0  0  0  0  0
  -16.7281  -28.6511   23.0354 C   0  0  0  0  0  0
  -26.4495  -31.6579   25.0698 C   0  0  0  0  0  0
  -25.3724  -31.3749   26.1419 C   0  0  0  0  0  0
  -27.0337  -30.3001   24.6171 C   0  0  0  0  0  0
  -27.6037  -32.4335   25.7477 C   0  0  0  0  0  0
  -27.5577  -37.1788   24.8468 C   0  0  0  0  0  0
  -21.4200  -29.3032   22.3657 N   0  0  0  0  0  0
  -26.4281  -37.3763   23.9421 N   0  0  0  0  0  0
  -24.6934  -31.0532   22.0910 N   0  0  0  0  0  0
  -23.4201  -28.8150   23.2994 O   0  0  0  0  0  0
  -28.3400  -26.4203   20.1256 O   0  0  0  0  0  0
  -26.5626  -34.8919   22.4653 O   0  0  0  0  0  0
  -23.5450  -32.1356   23.7267 O   0  0  0  0  0  0
  -31.3676  -17.8009   21.0800 C   0  0  0  0  0  0
  -29.1459  -18.3738   20.3905 C   0  0  0  0  0  0
  -30.1021  -17.3218   20.6775 C   0  0  0  0  0  0
  -31.6206  -19.1874   21.1792 C   0  0  0  0  0  0
  -29.4747  -19.7877   20.4938 C   0  0  0  0  0  0
  -32.9830  -19.6744   21.6285 C   0  0  0  0  0  0
  -27.0588  -20.7034   20.4996 C   0  0  0  0  0  0
  -28.4161  -23.6825   19.9044 C   0  0  0  0  0  0
  -28.2652  -25.0572   20.7475 C   0  0  0  0  0  0
  -28.5178  -21.0085   20.1117 C   0  0  1  0  0  0
  -30.7101  -20.1523   20.9018 N   0  0  0  0  0  0
  -29.8025  -15.8647   20.6273 N   0  0  0  0  0  0
  -28.9037  -22.4006   20.6263 N   0  3  0  0  0  0
  -31.4732  -12.5823   19.1619 H   0  0  0  0  0  0
  -30.3847  -11.4754   19.9510 H   0  0  0  0  0  0
  -29.7912  -11.7257   17.5187 H   0  0  0  0  0  0
  -29.6312  -13.4538   17.7135 H   0  0  0  0  0  0
  -27.8955  -11.2757   18.9144 H   0  0  0  0  0  0
  -27.3759  -12.5111   17.7991 H   0  0  0  0  0  0
  -27.6345  -14.2464   19.4628 H   0  0  0  0  0  0
  -28.7215  -12.1603   21.4197 H   0  0  0  0  0  0
  -28.4196  -13.8383   21.7931 H   0  0  0  0  0  0
  -25.2775   -9.5678   22.4767 H   0  0  0  0  0  0
  -24.0011   -7.4630   22.7472 H   0  0  0  0  0  0
  -21.0864   -8.8780   19.8939 H   0  0  0  0  0  0
  -22.3727  -10.9678   19.6163 H   0  0  0  0  0  0
  -21.1997   -7.6154   23.9728 H   0  0  0  0  0  0
  -21.1475   -6.0521   25.9083 H   0  0  0  0  0  0
  -22.0599   -2.7618   23.2834 H   0  0  0  0  0  0
  -22.4081  -11.9862   22.4787 H   0  0  0  0  0  0
  -21.1082  -13.1235   22.2624 H   0  0  0  0  0  0
  -24.6447  -15.8383   20.5000 H   0  0  0  0  0  0
  -26.2528  -15.6276   20.0328 H   0  0  0  0  0  0
  -26.7180  -32.5404   23.1056 H   0  0  0  0  0  0
  -25.0070  -33.9704   25.0393 H   0  0  0  0  0  0
  -22.7216  -31.2965   21.3882 H   0  0  0  0  0  0
  -23.3747  -35.9600   23.3292 H   0  0  0  0  0  0
  -24.3582  -36.8905   22.2059 H   0  0  0  0  0  0
  -23.7237  -37.6473   23.6677 H   0  0  0  0  0  0
  -26.1020  -31.5312   20.5964 H   0  0  0  0  0  0
  -26.8499  -30.8270   21.9977 H   0  0  0  0  0  0
  -28.1282  -28.9606   21.1770 H   0  0  0  0  0  0
  -25.9966  -25.8732   19.0535 H   0  0  0  0  0  0
  -23.9754  -27.2726   19.0295 H   0  0  0  0  0  0
  -23.7687  -30.5738   19.3960 H   0  0  0  0  0  0
  -22.7641  -29.2317   19.8520 H   0  0  0  0  0  0
  -25.1303  -36.1884   25.0819 H   0  0  0  0  0  0
  -21.0000  -28.3256   24.1389 H   0  0  0  0  0  0
  -20.5654  -26.2305   23.3620 H   0  0  0  0  0  0
  -21.6642  -26.7420   22.1214 H   0  0  0  0  0  0
  -19.6902  -25.6292   21.1247 H   0  0  0  0  0  0
  -19.6690  -27.3195   20.6751 H   0  0  0  0  0  0
  -17.4208  -26.6706   21.4011 H   0  0  0  0  0  0
  -18.0301  -26.0096   22.9015 H   0  0  0  0  0  0
  -19.7951  -30.7291   24.2235 H   0  0  0  0  0  0
  -17.5028  -31.6272   24.5175 H   0  0  0  0  0  0
  -15.5360  -30.2986   23.7681 H   0  0  0  0  0  0
  -15.8679  -28.0834   22.7057 H   0  0  0  0  0  0
  -24.5921  -30.7058   25.7774 H   0  0  0  0  0  0
  -24.8887  -32.2926   26.4774 H   0  0  0  0  0  0
  -25.8050  -30.9004   27.0232 H   0  0  0  0  0  0
  -26.2912  -29.6747   24.1198 H   0  0  0  0  0  0
  -27.4034  -29.7263   25.4676 H   0  0  0  0  0  0
  -27.8779  -30.4288   23.9396 H   0  0  0  0  0  0
  -27.2631  -33.3659   26.1996 H   0  0  0  0  0  0
  -28.3877  -32.6853   25.0322 H   0  0  0  0  0  0
  -28.0658  -31.8493   26.5443 H   0  0  0  0  0  0
  -28.2584  -38.0095   24.7508 H   0  0  0  0  0  0
  -28.1077  -36.2620   24.6287 H   0  0  0  0  0  0
  -27.2300  -37.1423   25.8874 H   0  0  0  0  0  0
  -20.9368  -29.8761   21.6877 H   0  0  0  0  0  0
  -26.0144  -38.2828   24.1431 H   0  0  0  0  0  0
  -32.1597  -17.1073   21.3284 H   0  0  0  0  0  0
  -28.1543  -18.0920   20.0669 H   0  0  0  0  0  0
  -33.7719  -19.0714   21.1783 H   0  0  0  0  0  0
  -33.0724  -19.5979   22.7120 H   0  0  0  0  0  0
  -33.1524  -20.7136   21.3453 H   0  0  0  0  0  0
  -26.6909  -19.8121   19.9934 H   0  0  0  0  0  0
  -26.3881  -21.5169   20.2255 H   0  0  0  0  0  0
  -26.9631  -20.5379   21.5729 H   0  0  0  0  0  0
  -29.1066  -23.8606   19.0797 H   0  0  0  0  0  0
  -27.4536  -23.4820   19.4348 H   0  0  0  0  0  0
  -29.0732  -25.0610   21.4788 H   0  0  0  0  0  0
  -27.3572  -24.9964   21.3492 H   0  0  0  0  0  0
  -28.5689  -21.0693   19.0241 H   0  0  0  0  0  0
  -28.8243  -15.6371   20.7034 H   0  0  0  0  0  0
  -28.6335  -22.4227   21.5958 H   0  0  0  0  0  0
  -29.9137  -22.3844   20.6270 H   0  0  0  0  0  0
  1 25  1  0  0  0
  1 30  2  0  0  0
  1 82  1  0  0  0
  2  3  1  0  0  0
  2 25  1  0  0  0
  2 84  1  0  0  0
  2 85  1  0  0  0
  3  4  1  0  0  0
  3 86  1  0  0  0
  3 87  1  0  0  0
  4  5  1  0  0  0
  4 88  1  0  0  0
  4 89  1  0  0  0
  5  6  1  0  0  0
  5 26  1  0  0  0
  5 90  1  0  0  0
  6 25  1  0  0  0
  6 91  1  0  0  0
  6 92  1  0  0  0
  7  8  2  0  0  0
  7 26  1  0  0  0
  7 29  1  0  0  0
  8  9  1  0  0  0
  8 22  1  0  0  0
  9 10  1  0  0  0
  9 27  2  0  0  0
 10 11  2  0  0  0
 10 15  1  0  0  0
 11 12  1  0  0  0
 11 93  1  0  0  0
 12 13  2  0  0  0
 12 94  1  0  0  0
 13 14  1  0  0  0
 13 31  1  0  0  0
 14 15  2  0  0  0
 14 95  1  0  0  0
 15 96  1  0  0  0
 16 17  2  0  0  0
 16 21  1  0  0  0
 16 31  1  0  0  0
 17 18  1  0  0  0
 17 97  1  0  0  0
 18 19  2  0  0  0
 18 98  1  0  0  0
 19 20  1  0  0  0
 19 24  1  0  0  0
 20 21  2  0  0  0
 20 99  1  0  0  0
 21 23  1  0  0  0
 22 28  1  0  0  0
 22 32  2  0  0  0
 26 27  1  0  0  0
 28100  1  0  0  0
 28101  1  0  0  0
 29102  1  0  0  0
 29103  1  0  0  0
 33 34  1  0  0  0
 33 66  1  0  0  0
 33 70  2  0  0  0
 34 36  1  0  0  0
 34 59  1  0  0  0
 34104  1  0  0  0
 35 44  2  0  0  0
 35 45  1  0  0  0
 35 68  1  0  0  0
 36 56  1  0  0  0
 36105  1  0  0  0
 37 39  1  0  0  0
 37 47  1  0  0  0
 37 66  1  0  0  0
 37106  1  0  0  0
 38 43  2  0  0  0
 38 46  1  0  0  0
 38 47  1  0  0  0
 39 64  1  0  0  0
 39 67  2  0  0  0
 40 52  1  0  0  0
 40 53  2  0  0  0
 40 58  1  0  0  0
 41107  1  0  0  0
 41108  1  0  0  0
 41109  1  0  0  0
 41 48  1  0  0  0
 42 43  1  0  0  0
 42 66  1  0  0  0
 42110  1  0  0  0
 42111  1  0  0  0
 43 44  1  0  0  0
 44112  1  0  0  0
 45 46  2  0  0  0
 45113  1  0  0  0
 46114  1  0  0  0
 47115  1  0  0  0
 47116  1  0  0  0
 48 56  1  0  0  0
 48 65  1  0  0  0
 48117  1  0  0  0
 49 50  1  0  0  0
 49 53  1  0  0  0
 49 64  1  0  0  0
 49118  1  0  0  0
 50 51  1  0  0  0
 50119  1  0  0  0
 50120  1  0  0  0
 51 52  1  0  0  0
 51121  1  0  0  0
 51122  1  0  0  0
 52123  1  0  0  0
 52124  1  0  0  0
 53 54  1  0  0  0
 54 55  2  0  0  0
 54125  1  0  0  0
 55 57  1  0  0  0
 55126  1  0  0  0
 56 69  2  0  0  0
 57 58  2  0  0  0
 57127  1  0  0  0
 58128  1  0  0  0
 59 60  1  0  0  0
 59 61  1  0  0  0
 59 62  1  0  0  0
 60129  1  0  0  0
 60130  1  0  0  0
 60131  1  0  0  0
 61132  1  0  0  0
 61133  1  0  0  0
 61134  1  0  0  0
 62135  1  0  0  0
 62136  1  0  0  0
 62137  1  0  0  0
 63 65  1  0  0  0
 63138  1  0  0  0
 63139  1  0  0  0
 63140  1  0  0  0
 64141  1  0  0  0
 65142  1  0  0  0
 68 79  1  0  0  0
 71 73  2  0  0  0
 71 74  1  0  0  0
 71143  1  0  0  0
 72 73  1  0  0  0
 72 75  2  0  0  0
 72144  1  0  0  0
 73 82  1  0  0  0
 74 76  1  0  0  0
 74 81  2  0  0  0
 75 80  1  0  0  0
 75 81  1  0  0  0
 76145  1  0  0  0
 76146  1  0  0  0
 76147  1  0  0  0
 77148  1  0  0  0
 77149  1  0  0  0
 77150  1  0  0  0
 77 80  1  0  0  0
 78 79  1  0  0  0
 78 83  1  0  0  0
 78151  1  0  0  0
 78152  1  0  0  0
 79153  1  0  0  0
 79154  1  0  0  0
 80 83  1  0  0  0
 80155  1  0  0  0
 82156  1  0  0  0
 83157  1  0  0  0
 83158  1  0  0  0
M  CHG  1  83   1
M  ISO  4   1 100  68 101  79 101  82 100
M  END
> <chiral flag>
0

> <version>
0

> <s_m_source_file>
/data/baiqing/PycharmProjects/Reinvent-master-3.2/result/LINK_invent/BTK/process_docking_weight1_custom_sum_contain_oxygen_bond_distance_aromatic_linkinvent_7_9_3/rearranged_h_0125.sdf

> <i_m_source_file_index>
45

> <r_mmod_Potential_Energy-OPLS-2005>
-216.396057128906

> <r_mmod_Stretch_Energy-OPLS-2005>
116.14852142334

> <r_mmod_Bend_Energy-OPLS-2005>
158.691192626953

> <r_mmod_Torsional_Energy-OPLS-2005>
243.658432006836

> <r_mmod_Improper_Torsional_Energy-OPLS-2005>
5.74652147293091

> <r_mmod_Van_der_Waal_Energy-OPLS-2005>
136.667343139648

> <r_mmod_Electrostatic_Energy-OPLS-2005>
-506.541015625

> <r_mmod_Solvation_Energy-OPLS-2005>
-448.049987792969

> <b_mmod_Minimization_Converged-OPLS-2005>
0

> <r_mmod_RMS_Derivative-OPLS-2005>
1.5346702337265

$$$$
45
                    3D
 Structure written by MMmdl.
149157  0  0  1  0            999 V2000
  -30.4317  -15.1976   20.3832 C   0  0  0  0  0  0
  -30.4510  -12.7572   19.5224 C   0  0  0  0  0  0
  -29.5371  -12.5639   18.2846 C   0  0  0  0  0  0
  -28.0815  -12.2983   18.7097 C   0  0  0  0  0  0
  -27.6199  -13.2640   19.8293 C   0  0  2  0  0  0
  -28.6567  -13.3895   20.9667 C   0  0  0  0  0  0
  -25.2426  -13.8236   20.5725 C   0  0  0  0  0  0
  -24.1766  -13.0442   20.9260 C   0  0  0  0  0  0
  -24.6405  -11.6932   20.8766 C   0  0  0  0  0  0
  -23.9091  -10.4294   21.0408 C   0  0  0  0  0  0
  -24.3632   -9.4203   21.9186 C   0  0  0  0  0  0
  -23.6297   -8.2244   22.0752 C   0  0  0  0  0  0
  -22.4282   -8.0286   21.3540 C   0  0  0  0  0  0
  -21.9924   -9.0265   20.4644 C   0  0  0  0  0  0
  -22.7262  -10.2138   20.3057 C   0  0  0  0  0  0
  -21.6853   -6.0738   22.5281 C   0  0  0  0  0  0
  -21.4013   -6.5637   23.8212 C   0  0  0  0  0  0
  -21.3657   -5.6790   24.9174 C   0  0  0  0  0  0
  -21.6046   -4.3053   24.7223 C   0  0  0  0  0  0
  -21.8821   -3.8147   23.4343 C   0  0  0  0  0  0
  -21.9190   -4.6965   22.3400 C   0  0  0  0  0  0
  -22.7780  -13.5201   21.1901 C   0  0  0  0  0  0
  -22.1661   -4.2152   21.0978 F   0  0  0  0  0  0
  -21.5625   -3.4537   25.7734 F   0  0  0  0  0  0
  -29.9015  -13.8823   20.3566 N   0  0  0  0  0  0
  -26.2850  -12.9489   20.3220 N   0  0  0  0  0  0
  -25.9336  -11.6606   20.5731 N   0  0  0  0  0  0
  -22.0427  -12.8182   22.0442 N   0  0  0  0  0  0
  -25.4060  -15.1966   20.4112 N   0  0  0  0  0  0
  -31.6458  -15.2484   20.1290 O   0  0  0  0  0  0
  -21.6640   -6.8883   21.4243 O   0  0  0  0  0  0
  -22.3466  -14.5501   20.6734 O   0  0  0  0  0  0
  -24.6580  -31.8263   23.1724 C   0  0  0  0  0  0
  -25.9292  -32.4587   23.8166 C   0  0  1  0  0  0
  -27.2159  -26.9671   20.1874 C   0  0  0  0  0  0
  -25.5982  -33.8399   24.2077 N   0  0  0  0  0  0
  -23.4690  -30.4378   21.5212 C   0  0  2  0  0  0
  -24.9225  -28.8303   20.1110 C   0  0  0  0  0  0
  -22.7638  -29.4441   22.4795 C   0  0  0  0  0  0
  -18.0317  -28.1380   22.8445 C   0  0  0  0  0  0
  -24.1502  -36.7211   23.2647 C   0  0  0  0  0  0
  -26.0351  -30.6457   21.3964 C   0  0  0  0  0  0
  -26.1038  -29.2402   20.7414 C   0  0  0  0  0  0
  -27.2462  -28.3287   20.7547 C   0  0  0  0  0  0
  -26.0067  -26.6959   19.5092 C   0  0  0  0  0  0
  -24.8957  -27.5774   19.4758 C   0  0  0  0  0  0
  -23.7064  -29.7537   20.1463 C   0  0  0  0  0  0
  -25.4141  -36.2958   24.0299 C   0  0  1  0  0  0
  -20.5937  -28.3718   23.1192 C   0  0  2  0  0  0
  -20.6791  -26.9404   22.5393 C   0  0  0  0  0  0
  -19.5770  -26.6362   21.5193 C   0  0  0  0  0  0
  -18.1951  -26.7912   22.1600 C   0  0  0  0  0  0
  -19.1581  -28.8873   23.2796 C   0  0  0  0  0  0
  -18.9501  -30.1464   23.8827 C   0  0  0  0  0  0
  -17.6502  -30.6573   24.0540 C   0  0  0  0  0  0
  -25.9100  -34.9342   23.5008 C   0  0  0  0  0  0
  -16.5387  -29.9059   23.6342 C   0  0  0  0  0  0
  -16.7305  -28.6483   23.0349 C   0  0  0  0  0  0
  -26.4564  -31.6522   25.0681 C   0  0  0  0  0  0
  -25.3704  -31.3770   26.1347 C   0  0  0  0  0  0
  -27.0473  -30.2896   24.6392 C   0  0  0  0  0  0
  -27.6042  -32.4356   25.7484 C   0  0  0  0  0  0
  -27.5567  -37.1761   24.8467 C   0  0  0  0  0  0
  -21.4315  -29.3020   22.3552 N   0  0  0  0  0  0
  -26.4282  -37.3691   23.9408 N   0  0  0  0  0  0
  -24.7417  -30.9961   22.0837 N   0  0  0  0  0  0
  -23.4216  -28.8004   23.3008 O   0  0  0  0  0  0
  -28.2340  -25.8944   20.2787 O   0  0  0  0  0  0
  -26.5697  -34.8871   22.4590 O   0  0  0  0  0  0
  -23.5667  -32.1225   23.6842 O   0  0  0  0  0  0
  -28.3057  -18.7146   20.7949 C   0  0  0  0  0  0
  -30.2492  -20.3612   20.0420 C   0  0  0  0  0  0
  -28.0863  -20.1814   20.7864 C   0  0  0  0  0  0
  -29.0747  -21.1644   20.3856 C   0  0  0  0  0  0
  -29.5195  -17.9877   20.4490 C   0  0  0  0  0  0
  -26.7446  -20.6965   21.2712 C   0  0  0  0  0  0
  -29.0668  -22.9046   20.5235 C   0  0  0  0  0  0
  -28.0158  -24.2812   20.1213 C   0  0  0  0  0  0
  -30.4548  -18.9488   20.0672 N   0  0  0  0  0  0
  -29.5779  -16.3853   20.5339 N   0  0  0  0  0  0
  -31.4693  -12.9662   19.1916 H   0  0  0  0  0  0
  -30.5152  -11.8380   20.1070 H   0  0  0  0  0  0
  -29.9033  -11.7431   17.6659 H   0  0  0  0  0  0
  -29.5757  -13.4591   17.6624 H   0  0  0  0  0  0
  -28.0274  -11.2707   19.0710 H   0  0  0  0  0  0
  -27.4129  -12.3566   17.8501 H   0  0  0  0  0  0
  -27.5504  -14.2410   19.3494 H   0  0  0  0  0  0
  -28.8060  -12.4359   21.4754 H   0  0  0  0  0  0
  -28.3097  -14.0921   21.7256 H   0  0  0  0  0  0
  -25.2777   -9.5673   22.4764 H   0  0  0  0  0  0
  -24.0002   -7.4632   22.7474 H   0  0  0  0  0  0
  -21.0852   -8.8791   19.8949 H   0  0  0  0  0  0
  -22.3727  -10.9678   19.6167 H   0  0  0  0  0  0
  -21.2010   -7.6146   23.9718 H   0  0  0  0  0  0
  -21.1474   -6.0517   25.9075 H   0  0  0  0  0  0
  -22.0600   -2.7611   23.2845 H   0  0  0  0  0  0
  -22.4046  -11.9849   22.4833 H   0  0  0  0  0  0
  -21.1040  -13.1200   22.2637 H   0  0  0  0  0  0
  -24.6245  -15.8362   20.5044 H   0  0  0  0  0  0
  -26.2182  -15.6279   19.9917 H   0  0  0  0  0  0
  -26.7343  -32.5135   23.0858 H   0  0  0  0  0  0
  -25.0117  -33.9499   25.0219 H   0  0  0  0  0  0
  -22.7775  -31.2659   21.3504 H   0  0  0  0  0  0
  -23.3764  -35.9539   23.3292 H   0  0  0  0  0  0
  -24.3569  -36.8870   22.2058 H   0  0  0  0  0  0
  -23.7270  -37.6400   23.6718 H   0  0  0  0  0  0
  -26.2128  -31.3892   20.6188 H   0  0  0  0  0  0
  -26.8966  -30.6976   22.0500 H   0  0  0  0  0  0
  -28.1400  -28.6385   21.2775 H   0  0  0  0  0  0
  -25.8860  -25.7360   19.0281 H   0  0  0  0  0  0
  -23.9958  -27.2570   18.9688 H   0  0  0  0  0  0
  -23.8553  -30.5215   19.3858 H   0  0  0  0  0  0
  -22.8177  -29.2036   19.8310 H   0  0  0  0  0  0
  -25.1331  -36.1751   25.0789 H   0  0  0  0  0  0
  -21.0016  -28.3315   24.1319 H   0  0  0  0  0  0
  -20.5665  -26.2327   23.3618 H   0  0  0  0  0  0
  -21.6654  -26.7369   22.1203 H   0  0  0  0  0  0
  -19.6944  -25.6269   21.1234 H   0  0  0  0  0  0
  -19.6731  -27.3150   20.6703 H   0  0  0  0  0  0
  -17.4224  -26.6652   21.4002 H   0  0  0  0  0  0
  -18.0350  -26.0053   22.8995 H   0  0  0  0  0  0
  -19.7989  -30.7276   24.2167 H   0  0  0  0  0  0
  -17.5063  -31.6251   24.5143 H   0  0  0  0  0  0
  -15.5385  -30.2935   23.7714 H   0  0  0  0  0  0
  -15.8698  -28.0781   22.7103 H   0  0  0  0  0  0
  -24.5884  -30.7122   25.7663 H   0  0  0  0  0  0
  -24.8907  -32.2977   26.4674 H   0  0  0  0  0  0
  -25.7943  -30.8999   27.0192 H   0  0  0  0  0  0
  -26.3144  -29.6561   24.1381 H   0  0  0  0  0  0
  -27.4008  -29.7254   25.5034 H   0  0  0  0  0  0
  -27.9065  -30.4086   23.9790 H   0  0  0  0  0  0
  -27.2580  -33.3693   26.1924 H   0  0  0  0  0  0
  -28.3908  -32.6872   25.0360 H   0  0  0  0  0  0
  -28.0641  -31.8592   26.5517 H   0  0  0  0  0  0
  -28.2559  -38.0075   24.7479 H   0  0  0  0  0  0
  -28.1089  -36.2595   24.6337 H   0  0  0  0  0  0
  -27.2277  -37.1429   25.8867 H   0  0  0  0  0  0
  -20.9567  -29.8740   21.6707 H   0  0  0  0  0  0
  -26.0131  -38.2750   24.1422 H   0  0  0  0  0  0
  -27.4720  -18.1054   21.1172 H   0  0  0  0  0  0
  -31.1398  -20.9028   19.7582 H   0  0  0  0  0  0
  -26.1662  -19.9125   21.7609 H   0  0  0  0  0  0
  -26.1581  -21.0787   20.4355 H   0  0  0  0  0  0
  -26.8807  -21.5007   21.9943 H   0  0  0  0  0  0
  -30.0163  -23.1766   20.0629 H   0  0  0  0  0  0
  -29.2554  -23.0401   21.5885 H   0  0  0  0  0  0
  -27.0777  -24.0841   20.6406 H   0  0  0  0  0  0
  -27.7722  -24.1522   19.0669 H   0  0  0  0  0  0
  -28.6621  -16.0372   20.7641 H   0  0  0  0  0  0
  1 25  1  0  0  0
  1 30  2  0  0  0
  1 80  1  0  0  0
  2  3  1  0  0  0
  2 25  1  0  0  0
  2 81  1  0  0  0
  2 82  1  0  0  0
  3  4  1  0  0  0
  3 83  1  0  0  0
  3 84  1  0  0  0
  4  5  1  0  0  0
  4 85  1  0  0  0
  4 86  1  0  0  0
  5  6  1  0  0  0
  5 26  1  0  0  0
  5 87  1  0  0  0
  6 25  1  0  0  0
  6 88  1  0  0  0
  6 89  1  0  0  0
  7  8  2  0  0  0
  7 26  1  0  0  0
  7 29  1  0  0  0
  8  9  1  0  0  0
  8 22  1  0  0  0
  9 10  1  0  0  0
  9 27  2  0  0  0
 10 11  2  0  0  0
 10 15  1  0  0  0
 11 12  1  0  0  0
 11 90  1  0  0  0
 12 13  2  0  0  0
 12 91  1  0  0  0
 13 14  1  0  0  0
 13 31  1  0  0  0
 14 15  2  0  0  0
 14 92  1  0  0  0
 15 93  1  0  0  0
 16 17  2  0  0  0
 16 21  1  0  0  0
 16 31  1  0  0  0
 17 18  1  0  0  0
 17 94  1  0  0  0
 18 19  2  0  0  0
 18 95  1  0  0  0
 19 20  1  0  0  0
 19 24  1  0  0  0
 20 21  2  0  0  0
 20 96  1  0  0  0
 21 23  1  0  0  0
 22 28  1  0  0  0
 22 32  2  0  0  0
 26 27  1  0  0  0
 28 97  1  0  0  0
 28 98  1  0  0  0
 29 99  1  0  0  0
 29100  1  0  0  0
 33 34  1  0  0  0
 33 66  1  0  0  0
 33 70  2  0  0  0
 34 36  1  0  0  0
 34 59  1  0  0  0
 34101  1  0  0  0
 35 44  2  0  0  0
 35 45  1  0  0  0
 35 68  1  0  0  0
 36 56  1  0  0  0
 36102  1  0  0  0
 37 39  1  0  0  0
 37 47  1  0  0  0
 37 66  1  0  0  0
 37103  1  0  0  0
 38 43  2  0  0  0
 38 46  1  0  0  0
 38 47  1  0  0  0
 39 64  1  0  0  0
 39 67  2  0  0  0
 40 52  1  0  0  0
 40 53  2  0  0  0
 40 58  1  0  0  0
 41104  1  0  0  0
 41105  1  0  0  0
 41106  1  0  0  0
 41 48  1  0  0  0
 42 43  1  0  0  0
 42 66  1  0  0  0
 42107  1  0  0  0
 42108  1  0  0  0
 43 44  1  0  0  0
 44109  1  0  0  0
 45 46  2  0  0  0
 45110  1  0  0  0
 46111  1  0  0  0
 47112  1  0  0  0
 47113  1  0  0  0
 48 56  1  0  0  0
 48 65  1  0  0  0
 48114  1  0  0  0
 49 50  1  0  0  0
 49 53  1  0  0  0
 49 64  1  0  0  0
 49115  1  0  0  0
 50 51  1  0  0  0
 50116  1  0  0  0
 50117  1  0  0  0
 51 52  1  0  0  0
 51118  1  0  0  0
 51119  1  0  0  0
 52120  1  0  0  0
 52121  1  0  0  0
 53 54  1  0  0  0
 54 55  2  0  0  0
 54122  1  0  0  0
 55 57  1  0  0  0
 55123  1  0  0  0
 56 69  2  0  0  0
 57 58  2  0  0  0
 57124  1  0  0  0
 58125  1  0  0  0
 59 60  1  0  0  0
 59 61  1  0  0  0
 59 62  1  0  0  0
 60126  1  0  0  0
 60127  1  0  0  0
 60128  1  0  0  0
 61129  1  0  0  0
 61130  1  0  0  0
 61131  1  0  0  0
 62132  1  0  0  0
 62133  1  0  0  0
 62134  1  0  0  0
 63 65  1  0  0  0
 63135  1  0  0  0
 63136  1  0  0  0
 63137  1  0  0  0
 64138  1  0  0  0
 65139  1  0  0  0
 68 78  1  0  0  0
 71 73  2  0  0  0
 71 75  1  0  0  0
 71140  1  0  0  0
 72 74  2  0  0  0
 72 79  1  0  0  0
 72141  1  0  0  0
 73 74  1  0  0  0
 73 76  1  0  0  0
 74 77  1  0  0  0
 75 79  2  0  0  0
 75 80  1  0  0  0
 76142  1  0  0  0
 76143  1  0  0  0
 76144  1  0  0  0
 77 78  1  0  0  0
 77145  1  0  0  0
 77146  1  0  0  0
 78147  1  0  0  0
 78148  1  0  0  0
 80149  1  0  0  0
M  ISO  4   1 100  68 101  78 101  80 100
M  END
> <chiral flag>
0

> <version>
0

> <s_m_source_file>
/data/baiqing/PycharmProjects/Reinvent-master-3.2/result/LINK_invent/BTK/process_docking_weight1_custom_sum_contain_oxygen_bond_distance_aromatic_linkinvent_7_9_3/rearranged_h_0125.sdf

> <i_m_source_file_index>
46

> <r_mmod_Potential_Energy-OPLS-2005>
888.912780761719

> <r_mmod_Stretch_Energy-OPLS-2005>
463.614379882812

> <r_mmod_Bend_Energy-OPLS-2005>
417.274169921875

> <r_mmod_Torsional_Energy-OPLS-2005>
205.229888916016

> <r_mmod_Improper_Torsional_Energy-OPLS-2005>
5.22025871276855

> <r_mmod_Van_der_Waal_Energy-OPLS-2005>
127.984146118164

> <r_mmod_Electrostatic_Energy-OPLS-2005>
-486.985046386719

> <r_mmod_Solvation_Energy-OPLS-2005>
-238.651275634766

> <b_mmod_Minimization_Converged-OPLS-2005>
0

> <r_mmod_RMS_Derivative-OPLS-2005>
1.42732465267181

$$$$
47
                    3D
 Structure written by MMmdl.
163172  0  0  1  0            999 V2000
  -30.5779  -14.6273   20.4457 C   0  0  0  0  0  0
  -30.4259  -12.3713   19.4077 C   0  0  0  0  0  0
  -29.4566  -12.4305   18.1995 C   0  0  0  0  0  0
  -27.9724  -12.3547   18.6188 C   0  0  0  0  0  0
  -27.6370  -13.2375   19.8452 C   0  0  2  0  0  0
  -28.7051  -13.0726   20.9523 C   0  0  0  0  0  0
  -25.2451  -13.8294   20.5617 C   0  0  0  0  0  0
  -24.1773  -13.0473   20.9144 C   0  0  0  0  0  0
  -24.6396  -11.6935   20.8789 C   0  0  0  0  0  0
  -23.9032  -10.4301   21.0470 C   0  0  0  0  0  0
  -24.3571   -9.4208   21.9267 C   0  0  0  0  0  0
  -23.6275   -8.2218   22.0843 C   0  0  0  0  0  0
  -22.4251   -8.0272   21.3580 C   0  0  0  0  0  0
  -21.9812   -9.0266   20.4672 C   0  0  0  0  0  0
  -22.7182  -10.2175   20.3060 C   0  0  0  0  0  0
  -21.6891   -6.0713   22.5215 C   0  0  0  0  0  0
  -21.4038   -6.5631   23.8117 C   0  0  0  0  0  0
  -21.3584   -5.6835   24.9099 C   0  0  0  0  0  0
  -21.6028   -4.3083   24.7210 C   0  0  0  0  0  0
  -21.8864   -3.8119   23.4344 C   0  0  0  0  0  0
  -21.9144   -4.6931   22.3338 C   0  0  0  0  0  0
  -22.7703  -13.5046   21.1893 C   0  0  0  0  0  0
  -22.1643   -4.2070   21.0936 F   0  0  0  0  0  0
  -21.5537   -3.4531   25.7730 F   0  0  0  0  0  0
  -29.9998  -13.3906   20.3735 N   0  0  0  0  0  0
  -26.2927  -12.9541   20.3259 N   0  0  0  0  0  0
  -25.9390  -11.6666   20.5926 N   0  0  0  0  0  0
  -22.0563  -12.7966   22.0531 N   0  0  0  0  0  0
  -25.3881  -15.2170   20.4235 N   0  0  0  0  0  0
  -31.7405  -14.8367   20.0971 O   0  0  0  0  0  0
  -21.6623   -6.8922   21.4249 O   0  0  0  0  0  0
  -22.3173  -14.5349   20.6831 O   0  0  0  0  0  0
  -24.6307  -31.8659   23.2086 C   0  0  0  0  0  0
  -25.9120  -32.4830   23.8384 C   0  0  1  0  0  0
  -27.1657  -27.2860   20.0991 C   0  0  0  0  0  0
  -25.5943  -33.8629   24.2328 N   0  0  0  0  0  0
  -23.4245  -30.4923   21.5588 C   0  0  2  0  0  0
  -24.8542  -28.9799   20.1049 C   0  0  0  0  0  0
  -22.7514  -29.4599   22.4976 C   0  0  0  0  0  0
  -18.0276  -28.1410   22.8477 C   0  0  0  0  0  0
  -24.1487  -36.7298   23.2636 C   0  0  0  0  0  0
  -25.9729  -30.7797   21.3947 C   0  0  0  0  0  0
  -26.0284  -29.4083   20.7373 C   0  0  0  0  0  0
  -27.1937  -28.5696   20.7358 C   0  0  0  0  0  0
  -25.9995  -27.0003   19.3475 C   0  0  0  0  0  0
  -24.8454  -27.7853   19.3921 C   0  0  0  0  0  0
  -23.6278  -29.8613   20.1628 C   0  0  0  0  0  0
  -25.4116  -36.3133   24.0323 C   0  0  1  0  0  0
  -20.5885  -28.3698   23.1309 C   0  0  2  0  0  0
  -20.6783  -26.9437   22.5427 C   0  0  0  0  0  0
  -19.5727  -26.6404   21.5245 C   0  0  0  0  0  0
  -18.1908  -26.7959   22.1641 C   0  0  0  0  0  0
  -19.1532  -28.8864   23.2889 C   0  0  0  0  0  0
  -18.9458  -30.1470   23.8868 C   0  0  0  0  0  0
  -17.6439  -30.6616   24.0562 C   0  0  0  0  0  0
  -25.9058  -34.9499   23.5125 C   0  0  0  0  0  0
  -16.5335  -29.9113   23.6355 C   0  0  0  0  0  0
  -16.7246  -28.6561   23.0364 C   0  0  0  0  0  0
  -26.4485  -31.6645   25.0760 C   0  0  0  0  0  0
  -25.3713  -31.3749   26.1479 C   0  0  0  0  0  0
  -27.0343  -30.3090   24.6210 C   0  0  0  0  0  0
  -27.6053  -32.4362   25.7552 C   0  0  0  0  0  0
  -27.5556  -37.1840   24.8484 C   0  0  0  0  0  0
  -21.4242  -29.3057   22.3738 N   0  0  0  0  0  0
  -26.4304  -37.3794   23.9395 N   0  0  0  0  0  0
  -24.6952  -31.0626   22.1091 N   0  0  0  0  0  0
  -23.4301  -28.8117   23.3050 O   0  0  0  0  0  0
  -28.1820  -26.3061   20.2481 O   0  0  0  0  0  0
  -26.5588  -34.8933   22.4692 O   0  0  0  0  0  0
  -23.5444  -32.1451   23.7401 O   0  0  0  0  0  0
  -26.9273  -22.7290   20.7387 C   0  0  0  0  0  0
  -29.3066  -22.7971   20.4034 C   0  0  0  0  0  0
  -26.9588  -21.3138   20.8030 C   0  0  0  0  0  0
  -29.3437  -21.3650   20.4828 C   0  0  0  0  0  0
  -28.0792  -23.5229   20.4418 C   0  0  0  0  0  0
  -28.1529  -20.5924   20.5744 C   0  0  0  0  0  0
  -29.3337  -18.0319   23.1124 C   0  0  0  0  0  0
  -27.9984  -17.8367   22.3785 C   0  0  0  0  0  0
  -30.4168  -17.4291   22.2247 C   0  0  0  0  0  0
  -28.3705  -17.7859   20.8979 C   0  0  2  0  0  0
  -29.7917  -17.1079   20.8508 C   0  0  2  0  0  0
  -28.4648  -18.9817   18.6108 C   0  0  0  0  0  0
  -27.8370  -24.9368   19.7695 C   0  0  0  0  0  0
  -28.0395  -19.1063   20.0716 C   0  0  2  0  0  0
  -29.6850  -15.6239   20.7281 N   0  0  0  0  0  0
  -31.4654  -12.4981   19.0872 H   0  0  0  0  0  0
  -30.3624  -11.3926   19.8765 H   0  0  0  0  0  0
  -29.6513  -11.6088   17.5059 H   0  0  0  0  0  0
  -29.6559  -13.3304   17.6387 H   0  0  0  0  0  0
  -27.7399  -11.3113   18.8300 H   0  0  0  0  0  0
  -27.3374  -12.6432   17.7777 H   0  0  0  0  0  0
  -27.6421  -14.2654   19.4687 H   0  0  0  0  0  0
  -28.7293  -12.0407   21.3103 H   0  0  0  0  0  0
  -28.4796  -13.7407   21.7883 H   0  0  0  0  0  0
  -25.2847   -9.5562   22.4719 H   0  0  0  0  0  0
  -23.9954   -7.4586   22.7550 H   0  0  0  0  0  0
  -21.0674   -8.8759   19.9035 H   0  0  0  0  0  0
  -22.3748  -10.9632   19.5950 H   0  0  0  0  0  0
  -21.2215   -7.6166   23.9539 H   0  0  0  0  0  0
  -21.1304   -6.0611   25.8954 H   0  0  0  0  0  0
  -22.0760   -2.7550   23.2865 H   0  0  0  0  0  0
  -22.4381  -11.9666   22.4829 H   0  0  0  0  0  0
  -21.1163  -13.0898   22.2902 H   0  0  0  0  0  0
  -24.6090  -15.8437   20.5969 H   0  0  0  0  0  0
  -26.2254  -15.6911   20.1224 H   0  0  0  0  0  0
  -26.7186  -32.5489   23.1118 H   0  0  0  0  0  0
  -25.0128  -33.9772   25.0497 H   0  0  0  0  0  0
  -22.7181  -31.3156   21.4351 H   0  0  0  0  0  0
  -23.3746  -35.9636   23.3363 H   0  0  0  0  0  0
  -24.3524  -36.8851   22.2029 H   0  0  0  0  0  0
  -23.7246  -37.6524   23.6608 H   0  0  0  0  0  0
  -26.1073  -31.5381   20.6209 H   0  0  0  0  0  0
  -26.8593  -30.8259   22.0127 H   0  0  0  0  0  0
  -28.0865  -28.8592   21.2710 H   0  0  0  0  0  0
  -25.8983  -26.1444   18.6993 H   0  0  0  0  0  0
  -23.9740  -27.4796   18.8353 H   0  0  0  0  0  0
  -23.7402  -30.6495   19.4170 H   0  0  0  0  0  0
  -22.7484  -29.2908   19.8636 H   0  0  0  0  0  0
  -25.1319  -36.1988   25.0804 H   0  0  0  0  0  0
  -20.9916  -28.3258   24.1447 H   0  0  0  0  0  0
  -20.5792  -26.2265   23.3612 H   0  0  0  0  0  0
  -21.6646  -26.7545   22.1148 H   0  0  0  0  0  0
  -19.6915  -25.6327   21.1259 H   0  0  0  0  0  0
  -19.6683  -27.3224   20.6792 H   0  0  0  0  0  0
  -17.4216  -26.6709   21.4037 H   0  0  0  0  0  0
  -18.0284  -26.0118   22.9034 H   0  0  0  0  0  0
  -19.7915  -30.7314   24.2269 H   0  0  0  0  0  0
  -17.4992  -31.6283   24.5175 H   0  0  0  0  0  0
  -15.5343  -30.3014   23.7681 H   0  0  0  0  0  0
  -15.8647  -28.0860   22.7099 H   0  0  0  0  0  0
  -24.5847  -30.7165   25.7754 H   0  0  0  0  0  0
  -24.8927  -32.2913   26.4978 H   0  0  0  0  0  0
  -25.7976  -30.8830   27.0244 H   0  0  0  0  0  0
  -26.2907  -29.6853   24.1225 H   0  0  0  0  0  0
  -27.4067  -29.7316   25.4692 H   0  0  0  0  0  0
  -27.8776  -30.4424   23.9416 H   0  0  0  0  0  0
  -27.2680  -33.3652   26.2174 H   0  0  0  0  0  0
  -28.3845  -32.6972   25.0373 H   0  0  0  0  0  0
  -28.0772  -31.8475   26.5447 H   0  0  0  0  0  0
  -28.2689  -38.0037   24.7451 H   0  0  0  0  0  0
  -28.0957  -36.2574   24.6464 H   0  0  0  0  0  0
  -27.2243  -37.1678   25.8885 H   0  0  0  0  0  0
  -20.9431  -29.8724   21.6858 H   0  0  0  0  0  0
  -26.0201  -38.2882   24.1355 H   0  0  0  0  0  0
  -25.9366  -23.1674   20.7308 H   0  0  0  0  0  0
  -30.2217  -23.3194   20.1724 H   0  0  0  0  0  0
  -26.0146  -20.7870   20.8628 H   0  0  0  0  0  0
  -30.2777  -20.8494   20.3164 H   0  0  0  0  0  0
  -29.3364  -17.5816   24.1052 H   0  0  0  0  0  0
  -29.5499  -19.0867   23.2732 H   0  0  0  0  0  0
  -27.2650  -18.6058   22.5999 H   0  0  0  0  0  0
  -27.5540  -16.8712   22.6480 H   0  0  0  0  0  0
  -30.7789  -16.5243   22.7327 H   0  0  0  0  0  0
  -31.2735  -18.0983   22.1002 H   0  0  0  0  0  0
  -27.6707  -17.0772   20.4524 H   0  0  0  0  0  0
  -30.3681  -17.5303   20.0296 H   0  0  0  0  0  0
  -27.9965  -19.7623   18.0194 H   0  0  0  0  0  0
  -28.1592  -18.0185   18.2000 H   0  0  0  0  0  0
  -29.5355  -19.0924   18.4748 H   0  0  0  0  0  0
  -26.7689  -24.8713   19.8955 H   0  0  0  0  0  0
  -28.0034  -24.8760   18.6878 H   0  0  0  0  0  0
  -26.9565  -19.0062   19.9770 H   0  0  0  0  0  0
  -28.7604  -15.2577   20.8921 H   0  0  0  0  0  0
  1 25  1  0  0  0
  1 30  2  0  0  0
  1 85  1  0  0  0
  2  3  1  0  0  0
  2 25  1  0  0  0
  2 86  1  0  0  0
  2 87  1  0  0  0
  3  4  1  0  0  0
  3 88  1  0  0  0
  3 89  1  0  0  0
  4  5  1  0  0  0
  4 90  1  0  0  0
  4 91  1  0  0  0
  5  6  1  0  0  0
  5 26  1  0  0  0
  5 92  1  0  0  0
  6 25  1  0  0  0
  6 93  1  0  0  0
  6 94  1  0  0  0
  7  8  2  0  0  0
  7 26  1  0  0  0
  7 29  1  0  0  0
  8  9  1  0  0  0
  8 22  1  0  0  0
  9 10  1  0  0  0
  9 27  2  0  0  0
 10 11  2  0  0  0
 10 15  1  0  0  0
 11 12  1  0  0  0
 11 95  1  0  0  0
 12 13  2  0  0  0
 12 96  1  0  0  0
 13 14  1  0  0  0
 13 31  1  0  0  0
 14 15  2  0  0  0
 14 97  1  0  0  0
 15 98  1  0  0  0
 16 17  2  0  0  0
 16 21  1  0  0  0
 16 31  1  0  0  0
 17 18  1  0  0  0
 17 99  1  0  0  0
 18 19  2  0  0  0
 18100  1  0  0  0
 19 20  1  0  0  0
 19 24  1  0  0  0
 20 21  2  0  0  0
 20101  1  0  0  0
 21 23  1  0  0  0
 22 28  1  0  0  0
 22 32  2  0  0  0
 26 27  1  0  0  0
 28102  1  0  0  0
 28103  1  0  0  0
 29104  1  0  0  0
 29105  1  0  0  0
 33 34  1  0  0  0
 33 66  1  0  0  0
 33 70  2  0  0  0
 34 36  1  0  0  0
 34 59  1  0  0  0
 34106  1  0  0  0
 35 44  2  0  0  0
 35 45  1  0  0  0
 35 68  1  0  0  0
 36 56  1  0  0  0
 36107  1  0  0  0
 37 39  1  0  0  0
 37 47  1  0  0  0
 37 66  1  0  0  0
 37108  1  0  0  0
 38 43  2  0  0  0
 38 46  1  0  0  0
 38 47  1  0  0  0
 39 64  1  0  0  0
 39 67  2  0  0  0
 40 52  1  0  0  0
 40 53  2  0  0  0
 40 58  1  0  0  0
 41109  1  0  0  0
 41110  1  0  0  0
 41111  1  0  0  0
 41 48  1  0  0  0
 42 43  1  0  0  0
 42 66  1  0  0  0
 42112  1  0  0  0
 42113  1  0  0  0
 43 44  1  0  0  0
 44114  1  0  0  0
 45 46  2  0  0  0
 45115  1  0  0  0
 46116  1  0  0  0
 47117  1  0  0  0
 47118  1  0  0  0
 48 56  1  0  0  0
 48 65  1  0  0  0
 48119  1  0  0  0
 49 50  1  0  0  0
 49 53  1  0  0  0
 49 64  1  0  0  0
 49120  1  0  0  0
 50 51  1  0  0  0
 50121  1  0  0  0
 50122  1  0  0  0
 51 52  1  0  0  0
 51123  1  0  0  0
 51124  1  0  0  0
 52125  1  0  0  0
 52126  1  0  0  0
 53 54  1  0  0  0
 54 55  2  0  0  0
 54127  1  0  0  0
 55 57  1  0  0  0
 55128  1  0  0  0
 56 69  2  0  0  0
 57 58  2  0  0  0
 57129  1  0  0  0
 58130  1  0  0  0
 59 60  1  0  0  0
 59 61  1  0  0  0
 59 62  1  0  0  0
 60131  1  0  0  0
 60132  1  0  0  0
 60133  1  0  0  0
 61134  1  0  0  0
 61135  1  0  0  0
 61136  1  0  0  0
 62137  1  0  0  0
 62138  1  0  0  0
 62139  1  0  0  0
 63 65  1  0  0  0
 63140  1  0  0  0
 63141  1  0  0  0
 63142  1  0  0  0
 64143  1  0  0  0
 65144  1  0  0  0
 68 83  1  0  0  0
 71 73  2  0  0  0
 71 75  1  0  0  0
 71145  1  0  0  0
 72 74  1  0  0  0
 72 75  2  0  0  0
 72146  1  0  0  0
 73 76  1  0  0  0
 73147  1  0  0  0
 74 76  2  0  0  0
 74148  1  0  0  0
 75 83  1  0  0  0
 76 84  1  0  0  0
 77 78  1  0  0  0
 77 79  1  0  0  0
 77149  1  0  0  0
 77150  1  0  0  0
 78151  1  0  0  0
 78152  1  0  0  0
 78 80  1  0  0  0
 79 81  1  0  0  0
 79153  1  0  0  0
 79154  1  0  0  0
 80 81  1  0  0  0
 80 84  1  0  0  0
 80155  1  0  0  0
 81 85  1  0  0  0
 81156  1  0  0  0
 82157  1  0  0  0
 82158  1  0  0  0
 82159  1  0  0  0
 82 84  1  0  0  0
 83160  1  0  0  0
 83161  1  0  0  0
 84162  1  0  0  0
 85163  1  0  0  0
M  ISO  4   1 100  68 101  83 101  85 100
M  END
> <chiral flag>
0

> <version>
0

> <s_m_source_file>
/data/baiqing/PycharmProjects/Reinvent-master-3.2/result/LINK_invent/BTK/process_docking_weight1_custom_sum_contain_oxygen_bond_distance_aromatic_linkinvent_7_9_3/rearranged_h_0125.sdf

> <i_m_source_file_index>
47

> <r_mmod_Potential_Energy-OPLS-2005>
343.114288330078

> <r_mmod_Stretch_Energy-OPLS-2005>
83.2328033447266

> <r_mmod_Bend_Energy-OPLS-2005>
227.121490478516

> <r_mmod_Torsional_Energy-OPLS-2005>
326.701263427734

> <r_mmod_Improper_Torsional_Energy-OPLS-2005>
12.961669921875

> <r_mmod_Van_der_Waal_Energy-OPLS-2005>
170.106338500977

> <r_mmod_Electrostatic_Energy-OPLS-2005>
-359.739898681641

> <r_mmod_Solvation_Energy-OPLS-2005>
-199.826446533203

> <b_mmod_Minimization_Converged-OPLS-2005>
0

> <r_mmod_RMS_Derivative-OPLS-2005>
15.6971664428711

$$$$
48
                    3D
 Structure written by MMmdl.
160168  0  0  1  0            999 V2000
  -30.4506  -15.2067   20.3753 C   0  0  0  0  0  0
  -30.4396  -12.7618   19.5339 C   0  0  0  0  0  0
  -29.5361  -12.5682   18.2906 C   0  0  0  0  0  0
  -28.0806  -12.3036   18.7140 C   0  0  0  0  0  0
  -27.6170  -13.2708   19.8322 C   0  0  2  0  0  0
  -28.6504  -13.4130   20.9712 C   0  0  0  0  0  0
  -25.2400  -13.8243   20.5744 C   0  0  0  0  0  0
  -24.1746  -13.0440   20.9253 C   0  0  0  0  0  0
  -24.6395  -11.6935   20.8767 C   0  0  0  0  0  0
  -23.9091  -10.4296   21.0414 C   0  0  0  0  0  0
  -24.3637   -9.4206   21.9189 C   0  0  0  0  0  0
  -23.6304   -8.2242   22.0754 C   0  0  0  0  0  0
  -22.4283   -8.0286   21.3546 C   0  0  0  0  0  0
  -21.9931   -9.0260   20.4645 C   0  0  0  0  0  0
  -22.7266  -10.2138   20.3055 C   0  0  0  0  0  0
  -21.6857   -6.0741   22.5279 C   0  0  0  0  0  0
  -21.4016   -6.5641   23.8213 C   0  0  0  0  0  0
  -21.3657   -5.6793   24.9174 C   0  0  0  0  0  0
  -21.6045   -4.3056   24.7227 C   0  0  0  0  0  0
  -21.8816   -3.8148   23.4345 C   0  0  0  0  0  0
  -21.9192   -4.6965   22.3404 C   0  0  0  0  0  0
  -22.7763  -13.5193   21.1902 C   0  0  0  0  0  0
  -22.1661   -4.2150   21.0983 F   0  0  0  0  0  0
  -21.5629   -3.4539   25.7740 F   0  0  0  0  0  0
  -29.8945  -13.9009   20.3575 N   0  0  0  0  0  0
  -26.2834  -12.9516   20.3243 N   0  0  0  0  0  0
  -25.9335  -11.6622   20.5740 N   0  0  0  0  0  0
  -22.0418  -12.8172   22.0456 N   0  0  0  0  0  0
  -25.4046  -15.1985   20.4187 N   0  0  0  0  0  0
  -31.6581  -15.2297   20.0994 O   0  0  0  0  0  0
  -21.6641   -6.8886   21.4242 O   0  0  0  0  0  0
  -22.3442  -14.5494   20.6743 O   0  0  0  0  0  0
  -24.6598  -31.8265   23.1728 C   0  0  0  0  0  0
  -25.9293  -32.4601   23.8182 C   0  0  1  0  0  0
  -27.2154  -26.9579   20.1840 C   0  0  0  0  0  0
  -25.5977  -33.8416   24.2089 N   0  0  0  0  0  0
  -23.4728  -30.4397   21.5204 C   0  0  2  0  0  0
  -24.9257  -28.8323   20.1098 C   0  0  0  0  0  0
  -22.7644  -29.4466   22.4782 C   0  0  0  0  0  0
  -18.0327  -28.1407   22.8463 C   0  0  0  0  0  0
  -24.1495  -36.7218   23.2647 C   0  0  0  0  0  0
  -26.0396  -30.6429   21.3989 C   0  0  0  0  0  0
  -26.1073  -29.2361   20.7432 C   0  0  0  0  0  0
  -27.2470  -28.3191   20.7569 C   0  0  0  0  0  0
  -26.0084  -26.7014   19.4955 C   0  0  0  0  0  0
  -24.9000  -27.5849   19.4661 C   0  0  0  0  0  0
  -23.7107  -29.7566   20.1455 C   0  0  0  0  0  0
  -25.4133  -36.2976   24.0298 C   0  0  1  0  0  0
  -20.5947  -28.3758   23.1192 C   0  0  2  0  0  0
  -20.6806  -26.9442   22.5399 C   0  0  0  0  0  0
  -19.5786  -26.6385   21.5205 C   0  0  0  0  0  0
  -18.1966  -26.7944   22.1611 C   0  0  0  0  0  0
  -19.1585  -28.8900   23.2819 C   0  0  0  0  0  0
  -18.9496  -30.1488   23.8859 C   0  0  0  0  0  0
  -17.6489  -30.6592   24.0563 C   0  0  0  0  0  0
  -25.9097  -34.9357   23.5013 C   0  0  0  0  0  0
  -16.5379  -29.9079   23.6347 C   0  0  0  0  0  0
  -16.7306  -28.6505   23.0357 C   0  0  0  0  0  0
  -26.4555  -31.6537   25.0701 C   0  0  0  0  0  0
  -25.3695  -31.3777   26.1368 C   0  0  0  0  0  0
  -27.0453  -30.2907   24.6417 C   0  0  0  0  0  0
  -27.6047  -32.4347   25.7507 C   0  0  0  0  0  0
  -27.5570  -37.1765   24.8464 C   0  0  0  0  0  0
  -21.4319  -29.3058   22.3539 N   0  0  0  0  0  0
  -26.4280  -37.3708   23.9405 N   0  0  0  0  0  0
  -24.7450  -30.9961   22.0846 N   0  0  0  0  0  0
  -23.4208  -28.8025   23.3006 O   0  0  0  0  0  0
  -28.2198  -25.8683   20.2857 O   0  0  0  0  0  0
  -26.5702  -34.8883   22.4606 O   0  0  0  0  0  0
  -23.5678  -32.1220   23.6843 O   0  0  0  0  0  0
  -29.5385  -20.0652   21.9881 C   0  0  0  0  0  0
  -28.6395  -21.2154   22.5530 C   0  0  0  0  0  0
  -29.0617  -19.5742   20.6083 C   0  0  1  0  0  0
  -28.8292  -21.1248   19.7939 C   0  0  2  0  0  0
  -28.8388  -22.7498   20.4956 C   0  0  2  0  0  0
  -27.5028  -19.8152   17.9776 C   0  0  0  0  0  0
  -29.8696  -18.0573   20.0942 C   0  0  0  0  0  0
  -27.9847  -24.2636   20.0408 C   0  0  0  0  0  0
  -27.5835  -21.0569   18.8771 C   0  0  1  0  0  0
  -29.6765  -16.4570   20.4961 N   0  0  0  0  0  0
  -28.8564  -22.5825   21.9781 N   0  3  0  0  0  0
  -26.4218  -21.1201   19.6837 O   0  0  0  0  0  0
  -31.4648  -12.9500   19.2117 H   0  0  0  0  0  0
  -30.4869  -11.8456   20.1243 H   0  0  0  0  0  0
  -29.9050  -11.7477   17.6731 H   0  0  0  0  0  0
  -29.5785  -13.4639   17.6694 H   0  0  0  0  0  0
  -28.0268  -11.2756   19.0751 H   0  0  0  0  0  0
  -27.4136  -12.3613   17.8533 H   0  0  0  0  0  0
  -27.5440  -14.2460   19.3488 H   0  0  0  0  0  0
  -28.8004  -12.4679   21.4953 H   0  0  0  0  0  0
  -28.3018  -14.1294   21.7165 H   0  0  0  0  0  0
  -25.2780   -9.5678   22.4770 H   0  0  0  0  0  0
  -24.0007   -7.4633   22.7476 H   0  0  0  0  0  0
  -21.0859   -8.8783   19.8952 H   0  0  0  0  0  0
  -22.3724  -10.9677   19.6161 H   0  0  0  0  0  0
  -21.2009   -7.6148   23.9719 H   0  0  0  0  0  0
  -21.1484   -6.0523   25.9079 H   0  0  0  0  0  0
  -22.0597   -2.7609   23.2846 H   0  0  0  0  0  0
  -22.4046  -11.9838   22.4840 H   0  0  0  0  0  0
  -21.1026  -13.1182   22.2654 H   0  0  0  0  0  0
  -24.6338  -15.8478   20.5296 H   0  0  0  0  0  0
  -26.2432  -15.6408   20.0667 H   0  0  0  0  0  0
  -26.7360  -32.5145   23.0896 H   0  0  0  0  0  0
  -25.0074  -33.9498   25.0205 H   0  0  0  0  0  0
  -22.7852  -31.2710   21.3509 H   0  0  0  0  0  0
  -23.3765  -35.9543   23.3280 H   0  0  0  0  0  0
  -24.3574  -36.8893   22.2068 H   0  0  0  0  0  0
  -23.7244  -37.6394   23.6720 H   0  0  0  0  0  0
  -26.2166  -31.3857   20.6202 H   0  0  0  0  0  0
  -26.9015  -30.6998   22.0516 H   0  0  0  0  0  0
  -28.1399  -28.6237   21.2840 H   0  0  0  0  0  0
  -25.8827  -25.7496   19.0009 H   0  0  0  0  0  0
  -24.0007  -27.2710   18.9537 H   0  0  0  0  0  0
  -23.8647  -30.5254   19.3873 H   0  0  0  0  0  0
  -22.8211  -29.2085   19.8291 H   0  0  0  0  0  0
  -25.1332  -36.1777   25.0789 H   0  0  0  0  0  0
  -21.0042  -28.3365   24.1313 H   0  0  0  0  0  0
  -20.5682  -26.2373   23.3631 H   0  0  0  0  0  0
  -21.6669  -26.7425   22.1205 H   0  0  0  0  0  0
  -19.6943  -25.6286   21.1255 H   0  0  0  0  0  0
  -19.6723  -27.3174   20.6718 H   0  0  0  0  0  0
  -17.4237  -26.6697   21.4012 H   0  0  0  0  0  0
  -18.0360  -26.0087   22.9009 H   0  0  0  0  0  0
  -19.7973  -30.7315   24.2212 H   0  0  0  0  0  0
  -17.5042  -31.6263   24.5184 H   0  0  0  0  0  0
  -15.5377  -30.2969   23.7697 H   0  0  0  0  0  0
  -15.8708  -28.0811   22.7087 H   0  0  0  0  0  0
  -24.5889  -30.7112   25.7679 H   0  0  0  0  0  0
  -24.8876  -32.2979   26.4682 H   0  0  0  0  0  0
  -25.7946  -30.9018   27.0214 H   0  0  0  0  0  0
  -26.3114  -29.6582   24.1411 H   0  0  0  0  0  0
  -27.3976  -29.7271   25.5065 H   0  0  0  0  0  0
  -27.9058  -30.4089   23.9832 H   0  0  0  0  0  0
  -27.2604  -33.3681   26.1969 H   0  0  0  0  0  0
  -28.3920  -32.6854   25.0387 H   0  0  0  0  0  0
  -28.0646  -31.8554   26.5521 H   0  0  0  0  0  0
  -28.2568  -38.0079   24.7511 H   0  0  0  0  0  0
  -28.1087  -36.2604   24.6296 H   0  0  0  0  0  0
  -27.2286  -37.1411   25.8867 H   0  0  0  0  0  0
  -20.9560  -29.8761   21.6689 H   0  0  0  0  0  0
  -26.0133  -38.2768   24.1412 H   0  0  0  0  0  0
  -29.5132  -19.2238   22.6820 H   0  0  0  0  0  0
  -30.5798  -20.3861   21.9405 H   0  0  0  0  0  0
  -28.8116  -21.2960   23.6268 H   0  0  0  0  0  0
  -27.5870  -20.9485   22.4457 H   0  0  0  0  0  0
  -28.0425  -19.2296   20.7844 H   0  0  0  0  0  0
  -29.6739  -21.1582   19.1039 H   0  0  0  0  0  0
  -29.8692  -23.0437   20.2962 H   0  0  0  0  0  0
  -28.4045  -19.7119   17.3728 H   0  0  0  0  0  0
  -26.6595  -19.8867   17.2899 H   0  0  0  0  0  0
  -27.3763  -18.8939   18.5459 H   0  0  0  0  0  0
  -29.7405  -18.0378   19.0118 H   0  0  0  0  0  0
  -30.9391  -18.2389   20.2141 H   0  0  0  0  0  0
  -26.9576  -24.0984   20.3667 H   0  0  0  0  0  0
  -27.9224  -24.2098   18.9541 H   0  0  0  0  0  0
  -27.5862  -21.9311   18.2243 H   0  0  0  0  0  0
  -28.7245  -16.2521   20.7630 H   0  0  0  0  0  0
  -29.7366  -22.9348   22.3206 H   0  0  0  0  0  0
  -28.1480  -23.1826   22.3716 H   0  0  0  0  0  0
  -25.6610  -21.1375   19.1101 H   0  0  0  0  0  0
  1 25  1  0  0  0
  1 30  2  0  0  0
  1 80  1  0  0  0
  2  3  1  0  0  0
  2 25  1  0  0  0
  2 83  1  0  0  0
  2 84  1  0  0  0
  3  4  1  0  0  0
  3 85  1  0  0  0
  3 86  1  0  0  0
  4  5  1  0  0  0
  4 87  1  0  0  0
  4 88  1  0  0  0
  5  6  1  0  0  0
  5 26  1  0  0  0
  5 89  1  0  0  0
  6 25  1  0  0  0
  6 90  1  0  0  0
  6 91  1  0  0  0
  7  8  2  0  0  0
  7 26  1  0  0  0
  7 29  1  0  0  0
  8  9  1  0  0  0
  8 22  1  0  0  0
  9 10  1  0  0  0
  9 27  2  0  0  0
 10 11  2  0  0  0
 10 15  1  0  0  0
 11 12  1  0  0  0
 11 92  1  0  0  0
 12 13  2  0  0  0
 12 93  1  0  0  0
 13 14  1  0  0  0
 13 31  1  0  0  0
 14 15  2  0  0  0
 14 94  1  0  0  0
 15 95  1  0  0  0
 16 17  2  0  0  0
 16 21  1  0  0  0
 16 31  1  0  0  0
 17 18  1  0  0  0
 17 96  1  0  0  0
 18 19  2  0  0  0
 18 97  1  0  0  0
 19 20  1  0  0  0
 19 24  1  0  0  0
 20 21  2  0  0  0
 20 98  1  0  0  0
 21 23  1  0  0  0
 22 28  1  0  0  0
 22 32  2  0  0  0
 26 27  1  0  0  0
 28 99  1  0  0  0
 28100  1  0  0  0
 29101  1  0  0  0
 29102  1  0  0  0
 33 34  1  0  0  0
 33 66  1  0  0  0
 33 70  2  0  0  0
 34 36  1  0  0  0
 34 59  1  0  0  0
 34103  1  0  0  0
 35 44  2  0  0  0
 35 45  1  0  0  0
 35 68  1  0  0  0
 36 56  1  0  0  0
 36104  1  0  0  0
 37 39  1  0  0  0
 37 47  1  0  0  0
 37 66  1  0  0  0
 37105  1  0  0  0
 38 43  2  0  0  0
 38 46  1  0  0  0
 38 47  1  0  0  0
 39 64  1  0  0  0
 39 67  2  0  0  0
 40 52  1  0  0  0
 40 53  2  0  0  0
 40 58  1  0  0  0
 41106  1  0  0  0
 41107  1  0  0  0
 41108  1  0  0  0
 41 48  1  0  0  0
 42 43  1  0  0  0
 42 66  1  0  0  0
 42109  1  0  0  0
 42110  1  0  0  0
 43 44  1  0  0  0
 44111  1  0  0  0
 45 46  2  0  0  0
 45112  1  0  0  0
 46113  1  0  0  0
 47114  1  0  0  0
 47115  1  0  0  0
 48 56  1  0  0  0
 48 65  1  0  0  0
 48116  1  0  0  0
 49 50  1  0  0  0
 49 53  1  0  0  0
 49 64  1  0  0  0
 49117  1  0  0  0
 50 51  1  0  0  0
 50118  1  0  0  0
 50119  1  0  0  0
 51 52  1  0  0  0
 51120  1  0  0  0
 51121  1  0  0  0
 52122  1  0  0  0
 52123  1  0  0  0
 53 54  1  0  0  0
 54 55  2  0  0  0
 54124  1  0  0  0
 55 57  1  0  0  0
 55125  1  0  0  0
 56 69  2  0  0  0
 57 58  2  0  0  0
 57126  1  0  0  0
 58127  1  0  0  0
 59 60  1  0  0  0
 59 61  1  0  0  0
 59 62  1  0  0  0
 60128  1  0  0  0
 60129  1  0  0  0
 60130  1  0  0  0
 61131  1  0  0  0
 61132  1  0  0  0
 61133  1  0  0  0
 62134  1  0  0  0
 62135  1  0  0  0
 62136  1  0  0  0
 63 65  1  0  0  0
 63137  1  0  0  0
 63138  1  0  0  0
 63139  1  0  0  0
 64140  1  0  0  0
 65141  1  0  0  0
 68 78  1  0  0  0
 71 72  1  0  0  0
 71 73  1  0  0  0
 71142  1  0  0  0
 71143  1  0  0  0
 72 81  1  0  0  0
 72144  1  0  0  0
 72145  1  0  0  0
 73 74  1  0  0  0
 73 77  1  0  0  0
 73146  1  0  0  0
 74 75  1  0  0  0
 74 79  1  0  0  0
 74147  1  0  0  0
 75 78  1  0  0  0
 75 81  1  0  0  0
 75148  1  0  0  0
 76149  1  0  0  0
 76150  1  0  0  0
 76151  1  0  0  0
 76 79  1  0  0  0
 77 80  1  0  0  0
 77152  1  0  0  0
 77153  1  0  0  0
 78154  1  0  0  0
 78155  1  0  0  0
 79 82  1  0  0  0
 79156  1  0  0  0
 80157  1  0  0  0
 81158  1  0  0  0
 81159  1  0  0  0
 82160  1  0  0  0
M  CHG  1  81   1
M  ISO  4   1 100  68 101  78 101  80 100
M  END
> <chiral flag>
0

> <version>
0

> <s_m_source_file>
/data/baiqing/PycharmProjects/Reinvent-master-3.2/result/LINK_invent/BTK/process_docking_weight1_custom_sum_contain_oxygen_bond_distance_aromatic_linkinvent_7_9_3/rearranged_h_0125.sdf

> <i_m_source_file_index>
48

> <r_mmod_Potential_Energy-OPLS-2005>
1048.77905273438

> <r_mmod_Stretch_Energy-OPLS-2005>
568.490051269531

> <r_mmod_Bend_Energy-OPLS-2005>
425.631866455078

> <r_mmod_Torsional_Energy-OPLS-2005>
307.095153808594

> <r_mmod_Improper_Torsional_Energy-OPLS-2005>
4.50589084625244

> <r_mmod_Van_der_Waal_Energy-OPLS-2005>
109.010520935059

> <r_mmod_Electrostatic_Energy-OPLS-2005>
-315.518768310547

> <r_mmod_Solvation_Energy-OPLS-2005>
-457.028015136719

> <b_mmod_Minimization_Converged-OPLS-2005>
0

> <r_mmod_RMS_Derivative-OPLS-2005>
1.05091547966003

$$$$
49
                    3D
 Structure written by MMmdl.
165173  0  0  1  0            999 V2000
  -30.7996  -14.3347   20.7114 C   0  0  0  0  0  0
  -30.4136  -12.2934   19.3855 C   0  0  0  0  0  0
  -29.4784  -12.5284   18.1870 C   0  0  0  0  0  0
  -28.0065  -12.3763   18.6103 C   0  0  0  0  0  0
  -27.6656  -13.2030   19.8772 C   0  0  2  0  0  0
  -28.7044  -12.9576   20.9942 C   0  0  0  0  0  0
  -25.2606  -13.8157   20.5672 C   0  0  0  0  0  0
  -24.1852  -13.0438   20.9168 C   0  0  0  0  0  0
  -24.6401  -11.6904   20.8728 C   0  0  0  0  0  0
  -23.9062  -10.4296   21.0400 C   0  0  0  0  0  0
  -24.3618   -9.4212   21.9179 C   0  0  0  0  0  0
  -23.6293   -8.2249   22.0755 C   0  0  0  0  0  0
  -22.4275   -8.0285   21.3544 C   0  0  0  0  0  0
  -21.9906   -9.0260   20.4647 C   0  0  0  0  0  0
  -22.7235  -10.2139   20.3052 C   0  0  0  0  0  0
  -21.6853   -6.0735   22.5279 C   0  0  0  0  0  0
  -21.4022   -6.5639   23.8215 C   0  0  0  0  0  0
  -21.3659   -5.6788   24.9174 C   0  0  0  0  0  0
  -21.6042   -4.3052   24.7222 C   0  0  0  0  0  0
  -21.8821   -3.8146   23.4343 C   0  0  0  0  0  0
  -21.9199   -4.6963   22.3401 C   0  0  0  0  0  0
  -22.7877  -13.5242   21.1828 C   0  0  0  0  0  0
  -22.1662   -4.2150   21.0976 F   0  0  0  0  0  0
  -21.5626   -3.4537   25.7735 F   0  0  0  0  0  0
  -30.0497  -13.2337   20.4555 N   0  0  0  0  0  0
  -26.3046  -12.9324   20.3372 N   0  0  0  0  0  0
  -25.9326  -11.6483   20.5755 N   0  0  0  0  0  0
  -22.0521  -12.8237   22.0394 N   0  0  0  0  0  0
  -25.4328  -15.1874   20.4076 N   0  0  0  0  0  0
  -31.7848  -14.6594   20.0427 O   0  0  0  0  0  0
  -21.6639   -6.8880   21.4241 O   0  0  0  0  0  0
  -22.3562  -14.5548   20.6683 O   0  0  0  0  0  0
  -24.6099  -31.8708   23.2121 C   0  0  0  0  0  0
  -25.9010  -32.4831   23.8409 C   0  0  1  0  0  0
  -27.2406  -27.4703   20.0905 C   0  0  0  0  0  0
  -25.5885  -33.8627   24.2338 N   0  0  0  0  0  0
  -23.3972  -30.4916   21.5517 C   0  0  2  0  0  0
  -24.8470  -28.9573   20.1178 C   0  0  0  0  0  0
  -22.7387  -29.4665   22.5014 C   0  0  0  0  0  0
  -18.0269  -28.1369   22.8503 C   0  0  0  0  0  0
  -24.1490  -36.7335   23.2637 C   0  0  0  0  0  0
  -25.9210  -30.8435   21.3624 C   0  0  0  0  0  0
  -26.0013  -29.4775   20.7171 C   0  0  0  0  0  0
  -27.2016  -28.7371   20.7104 C   0  0  0  0  0  0
  -26.0783  -26.9558   19.4845 C   0  0  0  0  0  0
  -24.8769  -27.6914   19.5032 C   0  0  0  0  0  0
  -23.6052  -29.8180   20.1677 C   0  0  0  0  0  0
  -25.4108  -36.3119   24.0336 C   0  0  1  0  0  0
  -20.5856  -28.3657   23.1337 C   0  0  2  0  0  0
  -20.6765  -26.9398   22.5429 C   0  0  0  0  0  0
  -19.5743  -26.6386   21.5222 C   0  0  0  0  0  0
  -18.1920  -26.7919   22.1633 C   0  0  0  0  0  0
  -19.1517  -28.8829   23.2921 C   0  0  0  0  0  0
  -18.9447  -30.1439   23.8924 C   0  0  0  0  0  0
  -17.6453  -30.6586   24.0562 C   0  0  0  0  0  0
  -25.9029  -34.9480   23.5138 C   0  0  0  0  0  0
  -16.5344  -29.9091   23.6319 C   0  0  0  0  0  0
  -16.7259  -28.6502   23.0350 C   0  0  0  0  0  0
  -26.4457  -31.6594   25.0718 C   0  0  0  0  0  0
  -25.3729  -31.3673   26.1468 C   0  0  0  0  0  0
  -27.0300  -30.3049   24.6061 C   0  0  0  0  0  0
  -27.6048  -32.4303   25.7470 C   0  0  0  0  0  0
  -27.5587  -37.1817   24.8460 C   0  0  0  0  0  0
  -21.4122  -29.3026   22.3744 N   0  0  0  0  0  0
  -26.4303  -37.3793   23.9395 N   0  0  0  0  0  0
  -24.6605  -31.0829   22.1011 N   0  0  0  0  0  0
  -23.4171  -28.8212   23.3054 O   0  0  0  0  0  0
  -28.3982  -26.7369   20.0460 O   0  0  0  0  0  0
  -26.5600  -34.8928   22.4703 O   0  0  0  0  0  0
  -23.5302  -32.1446   23.7533 O   0  0  0  0  0  0
  -29.1861  -22.3663   20.5097 C   0  0  0  0  0  0
  -28.2645  -22.6351   22.8378 C   0  0  0  0  0  0
  -29.4437  -23.8834   20.4343 C   0  0  0  0  0  0
  -28.5466  -24.1455   22.7846 C   0  0  0  0  0  0
  -29.2626  -21.8535   21.9630 C   0  0  1  0  0  0
  -28.4895  -24.6871   21.3435 C   0  0  1  0  0  0
  -29.0487  -20.3274   22.0808 C   0  0  0  0  0  0
  -28.8003  -26.1974   21.3026 C   0  0  0  0  0  0
  -31.3719  -15.9409   22.5071 C   0  0  0  0  0  0
  -30.2577  -19.5014   21.5949 C   0  0  0  0  0  0
  -31.4307  -17.3359   21.8527 C   0  0  0  0  0  0
  -30.4794  -14.9976   21.8303 N   0  0  0  0  0  0
  -30.1559  -18.0747   21.9761 N   0  3  0  0  0  0
  -31.4554  -12.3954   19.0748 H   0  0  0  0  0  0
  -30.3163  -11.2694   19.7507 H   0  0  0  0  0  0
  -29.7117  -11.8267   17.3853 H   0  0  0  0  0  0
  -29.6439  -13.5265   17.7788 H   0  0  0  0  0  0
  -27.8198  -11.3179   18.7953 H   0  0  0  0  0  0
  -27.3487  -12.6611   17.7887 H   0  0  0  0  0  0
  -27.7208  -14.2556   19.5989 H   0  0  0  0  0  0
  -28.6633  -11.9201   21.3299 H   0  0  0  0  0  0
  -28.4503  -13.5568   21.8688 H   0  0  0  0  0  0
  -25.2769   -9.5686   22.4748 H   0  0  0  0  0  0
  -24.0008   -7.4639   22.7472 H   0  0  0  0  0  0
  -21.0840   -8.8774   19.8950 H   0  0  0  0  0  0
  -22.3692  -10.9676   19.6158 H   0  0  0  0  0  0
  -21.2019   -7.6151   23.9717 H   0  0  0  0  0  0
  -21.1475   -6.0518   25.9075 H   0  0  0  0  0  0
  -22.0604   -2.7612   23.2842 H   0  0  0  0  0  0
  -22.4138  -11.9900   22.4783 H   0  0  0  0  0  0
  -21.1140  -13.1265   22.2596 H   0  0  0  0  0  0
  -24.6669  -15.8442   20.5126 H   0  0  0  0  0  0
  -26.2883  -15.6245   20.0883 H   0  0  0  0  0  0
  -26.7082  -32.5560   23.1185 H   0  0  0  0  0  0
  -25.0007  -33.9785   25.0463 H   0  0  0  0  0  0
  -22.6845  -31.3070   21.4109 H   0  0  0  0  0  0
  -23.3739  -35.9686   23.3303 H   0  0  0  0  0  0
  -24.3583  -36.8950   22.2052 H   0  0  0  0  0  0
  -23.7264  -37.6549   23.6655 H   0  0  0  0  0  0
  -26.0258  -31.6052   20.5889 H   0  0  0  0  0  0
  -26.8112  -30.9042   21.9762 H   0  0  0  0  0  0
  -28.0957  -29.1351   21.1707 H   0  0  0  0  0  0
  -26.1036  -25.9868   19.0058 H   0  0  0  0  0  0
  -23.9879  -27.2844   19.0413 H   0  0  0  0  0  0
  -23.7060  -30.5885   19.4023 H   0  0  0  0  0  0
  -22.7313  -29.2310   19.8796 H   0  0  0  0  0  0
  -25.1284  -36.2001   25.0829 H   0  0  0  0  0  0
  -20.9950  -28.3229   24.1458 H   0  0  0  0  0  0
  -20.5693  -26.2259   23.3610 H   0  0  0  0  0  0
  -21.6634  -26.7465   22.1208 H   0  0  0  0  0  0
  -19.6900  -25.6302   21.1245 H   0  0  0  0  0  0
  -19.6680  -27.3205   20.6759 H   0  0  0  0  0  0
  -17.4197  -26.6686   21.4027 H   0  0  0  0  0  0
  -18.0302  -26.0053   22.9015 H   0  0  0  0  0  0
  -19.7924  -30.7246   24.2311 H   0  0  0  0  0  0
  -17.5012  -31.6267   24.5162 H   0  0  0  0  0  0
  -15.5348  -30.3005   23.7621 H   0  0  0  0  0  0
  -15.8658  -28.0831   22.7052 H   0  0  0  0  0  0
  -24.5907  -30.7021   25.7787 H   0  0  0  0  0  0
  -24.8907  -32.2814   26.4941 H   0  0  0  0  0  0
  -25.8085  -30.8820   27.0210 H   0  0  0  0  0  0
  -26.2839  -29.6794   24.1148 H   0  0  0  0  0  0
  -27.4125  -29.7292   25.4500 H   0  0  0  0  0  0
  -27.8641  -30.4381   23.9167 H   0  0  0  0  0  0
  -27.2689  -33.3595   26.2085 H   0  0  0  0  0  0
  -28.3833  -32.6872   25.0273 H   0  0  0  0  0  0
  -28.0747  -31.8403   26.5347 H   0  0  0  0  0  0
  -28.2605  -38.0115   24.7519 H   0  0  0  0  0  0
  -28.1087  -36.2650   24.6283 H   0  0  0  0  0  0
  -27.2305  -37.1467   25.8863 H   0  0  0  0  0  0
  -20.9282  -29.8746   21.6965 H   0  0  0  0  0  0
  -26.0203  -38.2878   24.1384 H   0  0  0  0  0  0
  -29.9172  -21.8522   19.8847 H   0  0  0  0  0  0
  -28.2077  -22.1398   20.0829 H   0  0  0  0  0  0
  -27.2420  -22.4375   22.5120 H   0  0  0  0  0  0
  -28.3259  -22.2976   23.8732 H   0  0  0  0  0  0
  -29.3435  -24.2205   19.4018 H   0  0  0  0  0  0
  -30.4774  -24.0837   20.7199 H   0  0  0  0  0  0
  -29.5274  -24.3486   23.2177 H   0  0  0  0  0  0
  -27.8229  -24.6721   23.4090 H   0  0  0  0  0  0
  -30.2596  -22.0765   22.3478 H   0  0  0  0  0  0
  -27.4696  -24.5433   20.9828 H   0  0  0  0  0  0
  -28.1424  -20.0285   21.5514 H   0  0  0  0  0  0
  -28.8757  -20.0894   23.1312 H   0  0  0  0  0  0
  -29.8677  -26.3732   21.4397 H   0  0  0  0  0  0
  -28.3051  -26.7013   22.1352 H   0  0  0  0  0  0
  -31.0633  -16.0287   23.5497 H   0  0  0  0  0  0
  -32.3791  -15.5197   22.5364 H   0  0  0  0  0  0
  -31.1638  -19.9189   22.0369 H   0  0  0  0  0  0
  -30.3750  -19.5819   20.5132 H   0  0  0  0  0  0
  -31.7196  -17.2692   20.8028 H   0  0  0  0  0  0
  -32.2187  -17.9048   22.3490 H   0  0  0  0  0  0
  -29.6858  -14.6470   22.3476 H   0  0  0  0  0  0
  -29.4487  -17.6212   21.4206 H   0  0  0  0  0  0
  -29.8697  -18.0270   22.9399 H   0  0  0  0  0  0
  1 25  1  0  0  0
  1 30  2  0  0  0
  1 82  1  0  0  0
  2  3  1  0  0  0
  2 25  1  0  0  0
  2 84  1  0  0  0
  2 85  1  0  0  0
  3  4  1  0  0  0
  3 86  1  0  0  0
  3 87  1  0  0  0
  4  5  1  0  0  0
  4 88  1  0  0  0
  4 89  1  0  0  0
  5  6  1  0  0  0
  5 26  1  0  0  0
  5 90  1  0  0  0
  6 25  1  0  0  0
  6 91  1  0  0  0
  6 92  1  0  0  0
  7  8  2  0  0  0
  7 26  1  0  0  0
  7 29  1  0  0  0
  8  9  1  0  0  0
  8 22  1  0  0  0
  9 10  1  0  0  0
  9 27  2  0  0  0
 10 11  2  0  0  0
 10 15  1  0  0  0
 11 12  1  0  0  0
 11 93  1  0  0  0
 12 13  2  0  0  0
 12 94  1  0  0  0
 13 14  1  0  0  0
 13 31  1  0  0  0
 14 15  2  0  0  0
 14 95  1  0  0  0
 15 96  1  0  0  0
 16 17  2  0  0  0
 16 21  1  0  0  0
 16 31  1  0  0  0
 17 18  1  0  0  0
 17 97  1  0  0  0
 18 19  2  0  0  0
 18 98  1  0  0  0
 19 20  1  0  0  0
 19 24  1  0  0  0
 20 21  2  0  0  0
 20 99  1  0  0  0
 21 23  1  0  0  0
 22 28  1  0  0  0
 22 32  2  0  0  0
 26 27  1  0  0  0
 28100  1  0  0  0
 28101  1  0  0  0
 29102  1  0  0  0
 29103  1  0  0  0
 33 34  1  0  0  0
 33 66  1  0  0  0
 33 70  2  0  0  0
 34 36  1  0  0  0
 34 59  1  0  0  0
 34104  1  0  0  0
 35 44  2  0  0  0
 35 45  1  0  0  0
 35 68  1  0  0  0
 36 56  1  0  0  0
 36105  1  0  0  0
 37 39  1  0  0  0
 37 47  1  0  0  0
 37 66  1  0  0  0
 37106  1  0  0  0
 38 43  2  0  0  0
 38 46  1  0  0  0
 38 47  1  0  0  0
 39 64  1  0  0  0
 39 67  2  0  0  0
 40 52  1  0  0  0
 40 53  2  0  0  0
 40 58  1  0  0  0
 41107  1  0  0  0
 41108  1  0  0  0
 41109  1  0  0  0
 41 48  1  0  0  0
 42 43  1  0  0  0
 42 66  1  0  0  0
 42110  1  0  0  0
 42111  1  0  0  0
 43 44  1  0  0  0
 44112  1  0  0  0
 45 46  2  0  0  0
 45113  1  0  0  0
 46114  1  0  0  0
 47115  1  0  0  0
 47116  1  0  0  0
 48 56  1  0  0  0
 48 65  1  0  0  0
 48117  1  0  0  0
 49 50  1  0  0  0
 49 53  1  0  0  0
 49 64  1  0  0  0
 49118  1  0  0  0
 50 51  1  0  0  0
 50119  1  0  0  0
 50120  1  0  0  0
 51 52  1  0  0  0
 51121  1  0  0  0
 51122  1  0  0  0
 52123  1  0  0  0
 52124  1  0  0  0
 53 54  1  0  0  0
 54 55  2  0  0  0
 54125  1  0  0  0
 55 57  1  0  0  0
 55126  1  0  0  0
 56 69  2  0  0  0
 57 58  2  0  0  0
 57127  1  0  0  0
 58128  1  0  0  0
 59 60  1  0  0  0
 59 61  1  0  0  0
 59 62  1  0  0  0
 60129  1  0  0  0
 60130  1  0  0  0
 60131  1  0  0  0
 61132  1  0  0  0
 61133  1  0  0  0
 61134  1  0  0  0
 62135  1  0  0  0
 62136  1  0  0  0
 62137  1  0  0  0
 63 65  1  0  0  0
 63138  1  0  0  0
 63139  1  0  0  0
 63140  1  0  0  0
 64141  1  0  0  0
 65142  1  0  0  0
 68 78  1  0  0  0
 71 73  1  0  0  0
 71 75  1  0  0  0
 71143  1  0  0  0
 71144  1  0  0  0
 72 74  1  0  0  0
 72 75  1  0  0  0
 72145  1  0  0  0
 72146  1  0  0  0
 73 76  1  0  0  0
 73147  1  0  0  0
 73148  1  0  0  0
 74 76  1  0  0  0
 74149  1  0  0  0
 74150  1  0  0  0
 75 77  1  0  0  0
 75151  1  0  0  0
 76 78  1  0  0  0
 76152  1  0  0  0
 77 80  1  0  0  0
 77153  1  0  0  0
 77154  1  0  0  0
 78155  1  0  0  0
 78156  1  0  0  0
 79 81  1  0  0  0
 79 82  1  0  0  0
 79157  1  0  0  0
 79158  1  0  0  0
 80 83  1  0  0  0
 80159  1  0  0  0
 80160  1  0  0  0
 81 83  1  0  0  0
 81161  1  0  0  0
 81162  1  0  0  0
 82163  1  0  0  0
 83164  1  0  0  0
 83165  1  0  0  0
M  CHG  1  83   1
M  ISO  4   1 100  68 101  78 101  82 100
M  END
> <chiral flag>
0

> <version>
0

> <s_m_source_file>
/data/baiqing/PycharmProjects/Reinvent-master-3.2/result/LINK_invent/BTK/process_docking_weight1_custom_sum_contain_oxygen_bond_distance_aromatic_linkinvent_7_9_3/rearranged_h_0125.sdf

> <i_m_source_file_index>
49

> <r_mmod_Potential_Energy-OPLS-2005>
-227.054580688477

> <r_mmod_Stretch_Energy-OPLS-2005>
30.8407497406006

> <r_mmod_Bend_Energy-OPLS-2005>
87.2786331176758

> <r_mmod_Torsional_Energy-OPLS-2005>
276.517486572266

> <r_mmod_Improper_Torsional_Energy-OPLS-2005>
3.13842916488647

> <r_mmod_Van_der_Waal_Energy-OPLS-2005>
135.455184936523

> <r_mmod_Electrostatic_Energy-OPLS-2005>
-306.952026367188

> <r_mmod_Solvation_Energy-OPLS-2005>
-459.786285400391

> <b_mmod_Minimization_Converged-OPLS-2005>
0

> <r_mmod_RMS_Derivative-OPLS-2005>
1.07663559913635

$$$$
50
                    3D
 Structure written by MMmdl.
179188  0  0  1  0            999 V2000
  -30.6672  -14.5575   20.4934 C   0  0  0  0  0  0
  -30.4241  -12.3392   19.4431 C   0  0  0  0  0  0
  -29.4984  -12.4996   18.2177 C   0  0  0  0  0  0
  -28.0214  -12.3506   18.6315 C   0  0  0  0  0  0
  -27.6558  -13.2144   19.8675 C   0  0  2  0  0  0
  -28.7004  -13.0534   20.9965 C   0  0  0  0  0  0
  -25.2565  -13.8168   20.5675 C   0  0  0  0  0  0
  -24.1833  -13.0434   20.9191 C   0  0  0  0  0  0
  -24.6401  -11.6908   20.8758 C   0  0  0  0  0  0
  -23.9074  -10.4287   21.0422 C   0  0  0  0  0  0
  -24.3624   -9.4194   21.9194 C   0  0  0  0  0  0
  -23.6291   -8.2238   22.0764 C   0  0  0  0  0  0
  -22.4277   -8.0278   21.3550 C   0  0  0  0  0  0
  -21.9912   -9.0256   20.4658 C   0  0  0  0  0  0
  -22.7250  -10.2129   20.3065 C   0  0  0  0  0  0
  -21.6849   -6.0729   22.5275 C   0  0  0  0  0  0
  -21.4015   -6.5637   23.8206 C   0  0  0  0  0  0
  -21.3657   -5.6794   24.9172 C   0  0  0  0  0  0
  -21.6044   -4.3054   24.7227 C   0  0  0  0  0  0
  -21.8820   -3.8142   23.4349 C   0  0  0  0  0  0
  -21.9193   -4.6957   22.3402 C   0  0  0  0  0  0
  -22.7856  -13.5227   21.1834 C   0  0  0  0  0  0
  -22.1662   -4.2143   21.0981 F   0  0  0  0  0  0
  -21.5626   -3.4539   25.7740 F   0  0  0  0  0  0
  -30.0229  -13.3572   20.4304 N   0  0  0  0  0  0
  -26.3007  -12.9353   20.3349 N   0  0  0  0  0  0
  -25.9332  -11.6507   20.5789 N   0  0  0  0  0  0
  -22.0493  -12.8234   22.0397 N   0  0  0  0  0  0
  -25.4260  -15.1885   20.4032 N   0  0  0  0  0  0
  -31.8298  -14.7021   20.1103 O   0  0  0  0  0  0
  -21.6635   -6.8877   21.4241 O   0  0  0  0  0  0
  -22.3550  -14.5530   20.6672 O   0  0  0  0  0  0
  -24.6218  -31.8649   23.2089 C   0  0  0  0  0  0
  -25.9093  -32.4795   23.8400 C   0  0  1  0  0  0
  -27.2199  -27.3695   20.0879 C   0  0  0  0  0  0
  -25.5923  -33.8597   24.2312 N   0  0  0  0  0  0
  -23.4109  -30.4901   21.5531 C   0  0  2  0  0  0
  -24.8523  -28.9583   20.1099 C   0  0  0  0  0  0
  -22.7441  -29.4631   22.4978 C   0  0  0  0  0  0
  -18.0279  -28.1365   22.8481 C   0  0  0  0  0  0
  -24.1491  -36.7302   23.2630 C   0  0  0  0  0  0
  -25.9484  -30.8072   21.3754 C   0  0  0  0  0  0
  -26.0180  -29.4396   20.7161 C   0  0  0  0  0  0
  -27.2015  -28.6525   20.7052 C   0  0  0  0  0  0
  -26.0317  -26.9365   19.4516 C   0  0  0  0  0  0
  -24.8581  -27.7099   19.4739 C   0  0  0  0  0  0
  -23.6192  -29.8330   20.1647 C   0  0  0  0  0  0
  -25.4111  -36.3085   24.0325 C   0  0  1  0  0  0
  -20.5877  -28.3655   23.1302 C   0  0  2  0  0  0
  -20.6775  -26.9384   22.5407 C   0  0  0  0  0  0
  -19.5744  -26.6379   21.5202 C   0  0  0  0  0  0
  -18.1925  -26.7915   22.1609 C   0  0  0  0  0  0
  -19.1533  -28.8830   23.2882 C   0  0  0  0  0  0
  -18.9452  -30.1439   23.8883 C   0  0  0  0  0  0
  -17.6454  -30.6564   24.0569 C   0  0  0  0  0  0
  -25.9041  -34.9453   23.5113 C   0  0  0  0  0  0
  -16.5347  -29.9061   23.6323 C   0  0  0  0  0  0
  -16.7271  -28.6487   23.0325 C   0  0  0  0  0  0
  -26.4486  -31.6576   25.0746 C   0  0  0  0  0  0
  -25.3725  -31.3694   26.1469 C   0  0  0  0  0  0
  -27.0324  -30.3007   24.6171 C   0  0  0  0  0  0
  -27.6073  -32.4291   25.7489 C   0  0  0  0  0  0
  -27.5573  -37.1794   24.8456 C   0  0  0  0  0  0
  -21.4167  -29.3026   22.3707 N   0  0  0  0  0  0
  -26.4289  -37.3775   23.9398 N   0  0  0  0  0  0
  -24.6793  -31.0697   22.1035 N   0  0  0  0  0  0
  -23.4184  -28.8148   23.3028 O   0  0  0  0  0  0
  -28.3742  -26.5878   20.1380 O   0  0  0  0  0  0
  -26.5601  -34.8901   22.4671 O   0  0  0  0  0  0
  -23.5392  -32.1445   23.7429 O   0  0  0  0  0  0
  -28.7791  -21.5910   17.7941 C   0  0  0  0  0  0
  -32.6025  -23.6271   20.2476 C   0  0  0  0  0  0
  -27.5649  -20.8487   17.2064 C   0  0  0  0  0  0
  -26.9973  -19.9496   19.3677 C   0  0  0  0  0  0
  -34.0660  -23.3737   20.5989 C   0  0  0  0  0  0
  -32.9510  -21.3254   20.9811 C   0  0  0  0  0  0
  -28.5974  -21.8675   19.3013 C   0  0  1  0  0  0
  -31.9875  -22.2170   20.1646 C   0  0  1  0  0  0
  -28.2833  -20.4980   20.0338 C   0  0  2  0  0  0
  -29.1567  -24.1932   20.5394 C   0  0  0  0  0  0
  -30.2444  -17.0463   20.3989 C   0  0  0  0  0  0
  -29.0672  -18.0794   20.4953 C   0  0  0  0  0  0
  -28.3844  -25.2124   19.6417 C   0  0  0  0  0  0
  -29.6722  -22.8779   19.8368 C   0  0  1  0  0  0
  -27.2862  -19.6293   17.9654 N   0  0  0  0  0  0
  -29.8938  -15.6408   20.7552 N   0  0  0  0  0  0
  -30.6232  -22.1767   20.7037 N   0  0  0  0  0  0
  -34.0198  -22.2035   21.4828 N   0  3  0  0  0  0
  -29.3665  -19.4572   19.9549 N   0  3  0  0  0  0
  -31.4697  -12.4364   19.1445 H   0  0  0  0  0  0
  -30.3267  -11.3401   19.8709 H   0  0  0  0  0  0
  -29.7492  -11.7617   17.4545 H   0  0  0  0  0  0
  -29.6555  -13.4783   17.7597 H   0  0  0  0  0  0
  -27.8478  -11.2971   18.8536 H   0  0  0  0  0  0
  -27.3674  -12.5957   17.7940 H   0  0  0  0  0  0
  -27.6797  -14.2525   19.5353 H   0  0  0  0  0  0
  -28.6897  -12.0353   21.3870 H   0  0  0  0  0  0
  -28.4668  -13.7015   21.8427 H   0  0  0  0  0  0
  -25.2767   -9.5657   22.4772 H   0  0  0  0  0  0
  -23.9986   -7.4627   22.7488 H   0  0  0  0  0  0
  -21.0837   -8.8789   19.8968 H   0  0  0  0  0  0
  -22.3720  -10.9674   19.6175 H   0  0  0  0  0  0
  -21.2012   -7.6145   23.9710 H   0  0  0  0  0  0
  -21.1478   -6.0524   25.9074 H   0  0  0  0  0  0
  -22.0604   -2.7605   23.2852 H   0  0  0  0  0  0
  -22.4105  -11.9886   22.4775 H   0  0  0  0  0  0
  -21.1122  -13.1282   22.2612 H   0  0  0  0  0  0
  -24.6461  -15.8325   20.4782 H   0  0  0  0  0  0
  -26.2553  -15.6154   20.0138 H   0  0  0  0  0  0
  -26.7151  -32.5482   23.1147 H   0  0  0  0  0  0
  -25.0108  -33.9771   25.0478 H   0  0  0  0  0  0
  -22.7031  -31.3106   21.4176 H   0  0  0  0  0  0
  -23.3746  -35.9640   23.3293 H   0  0  0  0  0  0
  -24.3599  -36.8932   22.2047 H   0  0  0  0  0  0
  -23.7259  -37.6510   23.6663 H   0  0  0  0  0  0
  -26.0760  -31.5732   20.6092 H   0  0  0  0  0  0
  -26.8310  -30.8515   22.0020 H   0  0  0  0  0  0
  -28.0993  -29.0188   21.1838 H   0  0  0  0  0  0
  -25.9585  -26.0077   18.9126 H   0  0  0  0  0  0
  -23.9688  -27.3426   18.9810 H   0  0  0  0  0  0
  -23.7304  -30.6180   19.4138 H   0  0  0  0  0  0
  -22.7394  -29.2617   19.8626 H   0  0  0  0  0  0
  -25.1280  -36.1947   25.0819 H   0  0  0  0  0  0
  -20.9967  -28.3231   24.1419 H   0  0  0  0  0  0
  -20.5696  -26.2250   23.3596 H   0  0  0  0  0  0
  -21.6641  -26.7437   22.1181 H   0  0  0  0  0  0
  -19.6917  -25.6294   21.1221 H   0  0  0  0  0  0
  -19.6697  -27.3198   20.6744 H   0  0  0  0  0  0
  -17.4204  -26.6662   21.4010 H   0  0  0  0  0  0
  -18.0325  -26.0044   22.8992 H   0  0  0  0  0  0
  -19.7929  -30.7270   24.2229 H   0  0  0  0  0  0
  -17.5002  -31.6242   24.5165 H   0  0  0  0  0  0
  -15.5340  -30.2956   23.7657 H   0  0  0  0  0  0
  -15.8673  -28.0830   22.7001 H   0  0  0  0  0  0
  -24.5931  -30.6994   25.7799 H   0  0  0  0  0  0
  -24.8861  -32.2843   26.4864 H   0  0  0  0  0  0
  -25.8050  -30.8909   27.0261 H   0  0  0  0  0  0
  -26.2894  -29.6760   24.1201 H   0  0  0  0  0  0
  -27.4035  -29.7244   25.4656 H   0  0  0  0  0  0
  -27.8750  -30.4289   23.9376 H   0  0  0  0  0  0
  -27.2726  -33.3611   26.2054 H   0  0  0  0  0  0
  -28.3879  -32.6829   25.0296 H   0  0  0  0  0  0
  -28.0745  -31.8429   26.5402 H   0  0  0  0  0  0
  -28.2566  -38.0111   24.7524 H   0  0  0  0  0  0
  -28.1096  -36.2647   24.6263 H   0  0  0  0  0  0
  -27.2306  -37.1416   25.8862 H   0  0  0  0  0  0
  -20.9328  -29.8771   21.6947 H   0  0  0  0  0  0
  -26.0173  -38.2842   24.1428 H   0  0  0  0  0  0
  -28.9040  -22.5306   17.2534 H   0  0  0  0  0  0
  -29.6931  -21.0227   17.6146 H   0  0  0  0  0  0
  -32.4821  -24.2051   19.3312 H   0  0  0  0  0  0
  -32.1606  -24.2027   21.0606 H   0  0  0  0  0  0
  -27.7573  -20.5925   16.1624 H   0  0  0  0  0  0
  -26.6860  -21.4977   17.2110 H   0  0  0  0  0  0
  -26.1912  -20.6834   19.4275 H   0  0  0  0  0  0
  -26.6195  -19.0694   19.8880 H   0  0  0  0  0  0
  -34.5504  -24.2318   21.0667 H   0  0  0  0  0  0
  -34.6314  -23.1159   19.7019 H   0  0  0  0  0  0
  -33.3867  -20.5635   20.3341 H   0  0  0  0  0  0
  -32.4669  -20.8076   21.8100 H   0  0  0  0  0  0
  -27.6677  -22.4332   19.3641 H   0  0  0  0  0  0
  -31.9971  -21.8688   19.1284 H   0  0  0  0  0  0
  -28.0792  -20.7038   21.0861 H   0  0  0  0  0  0
  -28.5442  -23.9402   21.4055 H   0  0  0  0  0  0
  -30.0129  -24.7299   20.9420 H   0  0  0  0  0  0
  -31.0678  -17.3734   21.0358 H   0  0  0  0  0  0
  -30.6256  -17.0464   19.3760 H   0  0  0  0  0  0
  -28.7404  -18.1706   21.5323 H   0  0  0  0  0  0
  -28.2319  -17.6545   19.9402 H   0  0  0  0  0  0
  -27.3994  -24.7731   19.5220 H   0  0  0  0  0  0
  -28.8368  -25.2364   18.6500 H   0  0  0  0  0  0
  -30.2125  -23.2434   18.9599 H   0  0  0  0  0  0
  -26.4603  -19.1923   17.5576 H   0  0  0  0  0  0
  -28.9526  -15.4551   21.0693 H   0  0  0  0  0  0
  -30.6076  -22.6001   21.6284 H   0  0  0  0  0  0
  -33.7753  -22.5097   22.4098 H   0  0  0  0  0  0
  -34.9062  -21.7274   21.5228 H   0  0  0  0  0  0
  -30.1798  -19.8573   20.3955 H   0  0  0  0  0  0
  -29.5396  -19.3559   18.9662 H   0  0  0  0  0  0
  1 25  1  0  0  0
  1 30  2  0  0  0
  1 86  1  0  0  0
  2  3  1  0  0  0
  2 25  1  0  0  0
  2 90  1  0  0  0
  2 91  1  0  0  0
  3  4  1  0  0  0
  3 92  1  0  0  0
  3 93  1  0  0  0
  4  5  1  0  0  0
  4 94  1  0  0  0
  4 95  1  0  0  0
  5  6  1  0  0  0
  5 26  1  0  0  0
  5 96  1  0  0  0
  6 25  1  0  0  0
  6 97  1  0  0  0
  6 98  1  0  0  0
  7  8  2  0  0  0
  7 26  1  0  0  0
  7 29  1  0  0  0
  8  9  1  0  0  0
  8 22  1  0  0  0
  9 10  1  0  0  0
  9 27  2  0  0  0
 10 11  2  0  0  0
 10 15  1  0  0  0
 11 12  1  0  0  0
 11 99  1  0  0  0
 12 13  2  0  0  0
 12100  1  0  0  0
 13 14  1  0  0  0
 13 31  1  0  0  0
 14 15  2  0  0  0
 14101  1  0  0  0
 15102  1  0  0  0
 16 17  2  0  0  0
 16 21  1  0  0  0
 16 31  1  0  0  0
 17 18  1  0  0  0
 17103  1  0  0  0
 18 19  2  0  0  0
 18104  1  0  0  0
 19 20  1  0  0  0
 19 24  1  0  0  0
 20 21  2  0  0  0
 20105  1  0  0  0
 21 23  1  0  0  0
 22 28  1  0  0  0
 22 32  2  0  0  0
 26 27  1  0  0  0
 28106  1  0  0  0
 28107  1  0  0  0
 29108  1  0  0  0
 29109  1  0  0  0
 33 34  1  0  0  0
 33 66  1  0  0  0
 33 70  2  0  0  0
 34 36  1  0  0  0
 34 59  1  0  0  0
 34110  1  0  0  0
 35 44  2  0  0  0
 35 45  1  0  0  0
 35 68  1  0  0  0
 36 56  1  0  0  0
 36111  1  0  0  0
 37 39  1  0  0  0
 37 47  1  0  0  0
 37 66  1  0  0  0
 37112  1  0  0  0
 38 43  2  0  0  0
 38 46  1  0  0  0
 38 47  1  0  0  0
 39 64  1  0  0  0
 39 67  2  0  0  0
 40 52  1  0  0  0
 40 53  2  0  0  0
 40 58  1  0  0  0
 41113  1  0  0  0
 41114  1  0  0  0
 41115  1  0  0  0
 41 48  1  0  0  0
 42 43  1  0  0  0
 42 66  1  0  0  0
 42116  1  0  0  0
 42117  1  0  0  0
 43 44  1  0  0  0
 44118  1  0  0  0
 45 46  2  0  0  0
 45119  1  0  0  0
 46120  1  0  0  0
 47121  1  0  0  0
 47122  1  0  0  0
 48 56  1  0  0  0
 48 65  1  0  0  0
 48123  1  0  0  0
 49 50  1  0  0  0
 49 53  1  0  0  0
 49 64  1  0  0  0
 49124  1  0  0  0
 50 51  1  0  0  0
 50125  1  0  0  0
 50126  1  0  0  0
 51 52  1  0  0  0
 51127  1  0  0  0
 51128  1  0  0  0
 52129  1  0  0  0
 52130  1  0  0  0
 53 54  1  0  0  0
 54 55  2  0  0  0
 54131  1  0  0  0
 55 57  1  0  0  0
 55132  1  0  0  0
 56 69  2  0  0  0
 57 58  2  0  0  0
 57133  1  0  0  0
 58134  1  0  0  0
 59 60  1  0  0  0
 59 61  1  0  0  0
 59 62  1  0  0  0
 60135  1  0  0  0
 60136  1  0  0  0
 60137  1  0  0  0
 61138  1  0  0  0
 61139  1  0  0  0
 61140  1  0  0  0
 62141  1  0  0  0
 62142  1  0  0  0
 62143  1  0  0  0
 63 65  1  0  0  0
 63144  1  0  0  0
 63145  1  0  0  0
 63146  1  0  0  0
 64147  1  0  0  0
 65148  1  0  0  0
 68 83  1  0  0  0
 71 73  1  0  0  0
 71149  1  0  0  0
 71150  1  0  0  0
 71 77  1  0  0  0
 72 75  1  0  0  0
 72 78  1  0  0  0
 72151  1  0  0  0
 72152  1  0  0  0
 73 85  1  0  0  0
 73153  1  0  0  0
 73154  1  0  0  0
 74 79  1  0  0  0
 74 85  1  0  0  0
 74155  1  0  0  0
 74156  1  0  0  0
 75 88  1  0  0  0
 75157  1  0  0  0
 75158  1  0  0  0
 76 78  1  0  0  0
 76 88  1  0  0  0
 76159  1  0  0  0
 76160  1  0  0  0
 77 79  1  0  0  0
 77 84  1  0  0  0
 77161  1  0  0  0
 78 87  1  0  0  0
 78162  1  0  0  0
 79 89  1  0  0  0
 79163  1  0  0  0
 80 83  1  0  0  0
 80164  1  0  0  0
 80165  1  0  0  0
 80 84  1  0  0  0
 81 82  1  0  0  0
 81 86  1  0  0  0
 81166  1  0  0  0
 81167  1  0  0  0
 82 89  1  0  0  0
 82168  1  0  0  0
 82169  1  0  0  0
 83170  1  0  0  0
 83171  1  0  0  0
 84 87  1  0  0  0
 84172  1  0  0  0
 85173  1  0  0  0
 86174  1  0  0  0
 87175  1  0  0  0
 88176  1  0  0  0
 88177  1  0  0  0
 89178  1  0  0  0
 89179  1  0  0  0
M  CHG  2  88   1  89   1
M  ISO  4   1 100  68 101  83 101  86 100
M  END
> <chiral flag>
0

> <version>
0

> <s_m_source_file>
/data/baiqing/PycharmProjects/Reinvent-master-3.2/result/LINK_invent/BTK/process_docking_weight1_custom_sum_contain_oxygen_bond_distance_aromatic_linkinvent_7_9_3/rearranged_h_0125.sdf

> <i_m_source_file_index>
50

> <r_mmod_Potential_Energy-OPLS-2005>
-237.205093383789

> <r_mmod_Stretch_Energy-OPLS-2005>
58.9675216674805

> <r_mmod_Bend_Energy-OPLS-2005>
163.339370727539

> <r_mmod_Torsional_Energy-OPLS-2005>
338.574096679688

> <r_mmod_Improper_Torsional_Energy-OPLS-2005>
6.48786401748657

> <r_mmod_Van_der_Waal_Energy-OPLS-2005>
144.524353027344

> <r_mmod_Electrostatic_Energy-OPLS-2005>
-40.202465057373

> <r_mmod_Solvation_Energy-OPLS-2005>
-937.665649414062

> <b_mmod_Minimization_Converged-OPLS-2005>
0

> <r_mmod_RMS_Derivative-OPLS-2005>
1.99580478668213

$$$$
51
                    3D
 Structure written by MMmdl.
162170  0  0  1  0            999 V2000
  -30.5439  -14.9476   20.4153 C   0  0  0  0  0  0
  -30.4369  -12.5880   19.4978 C   0  0  0  0  0  0
  -29.5176  -12.5249   18.2567 C   0  0  0  0  0  0
  -28.0525  -12.3091   18.6788 C   0  0  0  0  0  0
  -27.6271  -13.2471   19.8382 C   0  0  2  0  0  0
  -28.6703  -13.2833   20.9750 C   0  0  0  0  0  0
  -25.2451  -13.8212   20.5717 C   0  0  0  0  0  0
  -24.1767  -13.0437   20.9237 C   0  0  0  0  0  0
  -24.6381  -11.6921   20.8761 C   0  0  0  0  0  0
  -23.9063  -10.4291   21.0410 C   0  0  0  0  0  0
  -24.3614   -9.4206   21.9184 C   0  0  0  0  0  0
  -23.6291   -8.2236   22.0752 C   0  0  0  0  0  0
  -22.4274   -8.0270   21.3537 C   0  0  0  0  0  0
  -21.9909   -9.0245   20.4641 C   0  0  0  0  0  0
  -22.7235  -10.2128   20.3055 C   0  0  0  0  0  0
  -21.6855   -6.0729   22.5270 C   0  0  0  0  0  0
  -21.4015   -6.5634   23.8202 C   0  0  0  0  0  0
  -21.3657   -5.6789   24.9167 C   0  0  0  0  0  0
  -21.6046   -4.3052   24.7221 C   0  0  0  0  0  0
  -21.8818   -3.8142   23.4341 C   0  0  0  0  0  0
  -21.9194   -4.6958   22.3398 C   0  0  0  0  0  0
  -22.7785  -13.5205   21.1888 C   0  0  0  0  0  0
  -22.1662   -4.2142   21.0977 F   0  0  0  0  0  0
  -21.5630   -3.4539   25.7737 F   0  0  0  0  0  0
  -29.9443  -13.6914   20.3711 N   0  0  0  0  0  0
  -26.2868  -12.9441   20.3255 N   0  0  0  0  0  0
  -25.9315  -11.6567   20.5755 N   0  0  0  0  0  0
  -22.0444  -12.8189   22.0445 N   0  0  0  0  0  0
  -25.4129  -15.1940   20.4119 N   0  0  0  0  0  0
  -31.7497  -15.0019   20.1537 O   0  0  0  0  0  0
  -21.6639   -6.8869   21.4228 O   0  0  0  0  0  0
  -22.3469  -14.5513   20.6738 O   0  0  0  0  0  0
  -24.6447  -31.8428   23.1848 C   0  0  0  0  0  0
  -25.9216  -32.4690   23.8244 C   0  0  1  0  0  0
  -27.2227  -27.1311   20.1387 C   0  0  0  0  0  0
  -25.5961  -33.8495   24.2173 N   0  0  0  0  0  0
  -23.4476  -30.4610   21.5309 C   0  0  2  0  0  0
  -24.8925  -28.8796   20.1112 C   0  0  0  0  0  0
  -22.7569  -29.4538   22.4852 C   0  0  0  0  0  0
  -18.0309  -28.1414   22.8479 C   0  0  0  0  0  0
  -24.1482  -36.7232   23.2646 C   0  0  0  0  0  0
  -26.0023  -30.7157   21.3784 C   0  0  0  0  0  0
  -26.0719  -29.3258   20.7191 C   0  0  0  0  0  0
  -27.2340  -28.4685   20.7099 C   0  0  0  0  0  0
  -26.0001  -26.7652   19.5359 C   0  0  0  0  0  0
  -24.8681  -27.6114   19.5082 C   0  0  0  0  0  0
  -23.6732  -29.7879   20.1509 C   0  0  0  0  0  0
  -25.4118  -36.3020   24.0321 C   0  0  1  0  0  0
  -20.5918  -28.3732   23.1241 C   0  0  2  0  0  0
  -20.6792  -26.9441   22.5401 C   0  0  0  0  0  0
  -19.5762  -26.6394   21.5216 C   0  0  0  0  0  0
  -18.1942  -26.7954   22.1624 C   0  0  0  0  0  0
  -19.1564  -28.8890   23.2855 C   0  0  0  0  0  0
  -18.9486  -30.1489   23.8884 C   0  0  0  0  0  0
  -17.6486  -30.6611   24.0570 C   0  0  0  0  0  0
  -25.9074  -34.9403   23.5051 C   0  0  0  0  0  0
  -16.5373  -29.9104   23.6349 C   0  0  0  0  0  0
  -16.7290  -28.6526   23.0364 C   0  0  0  0  0  0
  -26.4532  -31.6572   25.0695 C   0  0  0  0  0  0
  -25.3711  -31.3769   26.1391 C   0  0  0  0  0  0
  -27.0412  -30.2982   24.6267 C   0  0  0  0  0  0
  -27.6071  -32.4339   25.7474 C   0  0  0  0  0  0
  -27.5565  -37.1768   24.8478 C   0  0  0  0  0  0
  -21.4257  -29.3054   22.3608 N   0  0  0  0  0  0
  -26.4268  -37.3741   23.9425 N   0  0  0  0  0  0
  -24.7190  -31.0275   22.0878 N   0  0  0  0  0  0
  -23.4208  -28.8096   23.3015 O   0  0  0  0  0  0
  -28.3253  -26.2036   20.2157 O   0  0  0  0  0  0
  -26.5656  -34.8911   22.4628 O   0  0  0  0  0  0
  -23.5568  -32.1301   23.7068 O   0  0  0  0  0  0
  -27.6720  -23.0579   17.8896 C   0  0  0  0  0  0
  -28.1352  -24.4896   18.2274 C   0  0  0  0  0  0
  -28.6504  -23.2701   20.5668 C   0  0  0  0  0  0
  -28.6489  -21.9396   18.3412 C   0  0  1  0  0  0
  -28.5618  -21.7253   19.8826 C   0  0  1  0  0  0
  -28.4627  -24.7230   19.7228 C   0  0  2  0  0  0
  -28.3750  -20.6707   17.5127 C   0  0  0  0  0  0
  -31.0139  -17.9695   21.7653 C   0  0  0  0  0  0
  -29.0426  -18.9559   20.3456 C   0  0  0  0  0  0
  -30.1535  -17.6852   20.5212 C   0  0  2  0  0  0
  -29.7746  -16.1414   20.5493 N   0  0  0  0  0  0
  -29.4568  -20.4976   20.3756 N   0  3  0  0  0  0
  -31.4707  -12.7429   19.1858 H   0  0  0  0  0  0
  -30.4292  -11.6394   20.0374 H   0  0  0  0  0  0
  -29.8374  -11.7248   17.5879 H   0  0  0  0  0  0
  -29.6025  -13.4527   17.6892 H   0  0  0  0  0  0
  -27.9540  -11.2699   18.9951 H   0  0  0  0  0  0
  -27.3862  -12.4313   17.8239 H   0  0  0  0  0  0
  -27.5882  -14.2466   19.4039 H   0  0  0  0  0  0
  -28.7584  -12.3113   21.4632 H   0  0  0  0  0  0
  -28.3720  -13.9933   21.7482 H   0  0  0  0  0  0
  -25.2755   -9.5685   22.4763 H   0  0  0  0  0  0
  -24.0001   -7.4628   22.7472 H   0  0  0  0  0  0
  -21.0841   -8.8754   19.8946 H   0  0  0  0  0  0
  -22.3683  -10.9663   19.6166 H   0  0  0  0  0  0
  -21.2005   -7.6144   23.9701 H   0  0  0  0  0  0
  -21.1483   -6.0525   25.9070 H   0  0  0  0  0  0
  -22.0603   -2.7604   23.2846 H   0  0  0  0  0  0
  -22.4076  -11.9849   22.4819 H   0  0  0  0  0  0
  -21.1058  -13.1188   22.2662 H   0  0  0  0  0  0
  -24.6398  -15.8435   20.5070 H   0  0  0  0  0  0
  -26.2485  -15.6260   20.0414 H   0  0  0  0  0  0
  -26.7283  -32.5292   23.0970 H   0  0  0  0  0  0
  -25.0140  -33.9613   25.0344 H   0  0  0  0  0  0
  -22.7514  -31.2879   21.3751 H   0  0  0  0  0  0
  -23.3760  -35.9550   23.3299 H   0  0  0  0  0  0
  -24.3564  -36.8862   22.2060 H   0  0  0  0  0  0
  -23.7211  -37.6415   23.6688 H   0  0  0  0  0  0
  -26.1552  -31.4685   20.6042 H   0  0  0  0  0  0
  -26.8744  -30.7665   22.0192 H   0  0  0  0  0  0
  -28.1378  -28.8099   21.1950 H   0  0  0  0  0  0
  -25.8709  -25.7763   19.1277 H   0  0  0  0  0  0
  -23.9568  -27.2531   19.0493 H   0  0  0  0  0  0
  -23.8179  -30.5628   19.3966 H   0  0  0  0  0  0
  -22.7862  -29.2359   19.8367 H   0  0  0  0  0  0
  -25.1294  -36.1841   25.0809 H   0  0  0  0  0  0
  -21.0018  -28.3323   24.1361 H   0  0  0  0  0  0
  -20.5707  -26.2344   23.3617 H   0  0  0  0  0  0
  -21.6655  -26.7452   22.1188 H   0  0  0  0  0  0
  -19.6925  -25.6299   21.1264 H   0  0  0  0  0  0
  -19.6710  -27.3196   20.6741 H   0  0  0  0  0  0
  -17.4213  -26.6719   21.4024 H   0  0  0  0  0  0
  -18.0333  -26.0097   22.9021 H   0  0  0  0  0  0
  -19.7965  -30.7311   24.2243 H   0  0  0  0  0  0
  -17.5043  -31.6294   24.5171 H   0  0  0  0  0  0
  -15.5380  -30.3011   23.7686 H   0  0  0  0  0  0
  -15.8685  -28.0849   22.7083 H   0  0  0  0  0  0
  -24.5930  -30.7066   25.7717 H   0  0  0  0  0  0
  -24.8851  -32.2950   26.4710 H   0  0  0  0  0  0
  -25.7986  -30.9030   27.0234 H   0  0  0  0  0  0
  -26.3033  -29.6693   24.1273 H   0  0  0  0  0  0
  -27.4057  -29.7290   25.4826 H   0  0  0  0  0  0
  -27.8915  -30.4250   23.9563 H   0  0  0  0  0  0
  -27.2693  -33.3691   26.1953 H   0  0  0  0  0  0
  -28.3925  -32.6807   25.0320 H   0  0  0  0  0  0
  -28.0691  -31.8521   26.5460 H   0  0  0  0  0  0
  -28.2574  -38.0069   24.7518 H   0  0  0  0  0  0
  -28.1055  -36.2592   24.6303 H   0  0  0  0  0  0
  -27.2285  -37.1414   25.8882 H   0  0  0  0  0  0
  -20.9479  -29.8754   21.6769 H   0  0  0  0  0  0
  -26.0129  -38.2800   24.1453 H   0  0  0  0  0  0
  -27.5376  -23.0138   16.8080 H   0  0  0  0  0  0
  -26.6818  -22.8786   18.3124 H   0  0  0  0  0  0
  -27.3995  -25.1962   17.8552 H   0  0  0  0  0  0
  -29.0213  -24.7079   17.6274 H   0  0  0  0  0  0
  -29.6102  -23.3294   21.0805 H   0  0  0  0  0  0
  -27.9251  -23.2877   21.3797 H   0  0  0  0  0  0
  -29.6613  -22.2639   18.0938 H   0  0  0  0  0  0
  -27.5426  -21.3945   20.0911 H   0  0  0  0  0  0
  -29.5381  -24.8612   19.6036 H   0  0  0  0  0  0
  -27.4139  -20.2202   17.7647 H   0  0  0  0  0  0
  -29.1564  -19.9234   17.6433 H   0  0  0  0  0  0
  -28.3580  -20.8961   16.4458 H   0  0  0  0  0  0
  -31.4636  -18.9616   21.7249 H   0  0  0  0  0  0
  -31.8361  -17.2594   21.8562 H   0  0  0  0  0  0
  -30.4230  -17.9105   22.6798 H   0  0  0  0  0  0
  -28.2924  -18.8446   21.1286 H   0  0  0  0  0  0
  -28.4938  -18.7687   19.4257 H   0  0  0  0  0  0
  -30.8163  -17.7718   19.6583 H   0  0  0  0  0  0
  -28.7918  -15.9621   20.6944 H   0  0  0  0  0  0
  -29.6699  -20.6835   21.3419 H   0  0  0  0  0  0
  -30.3329  -20.5750   19.8857 H   0  0  0  0  0  0
  1 25  1  0  0  0
  1 30  2  0  0  0
  1 81  1  0  0  0
  2  3  1  0  0  0
  2 25  1  0  0  0
  2 83  1  0  0  0
  2 84  1  0  0  0
  3  4  1  0  0  0
  3 85  1  0  0  0
  3 86  1  0  0  0
  4  5  1  0  0  0
  4 87  1  0  0  0
  4 88  1  0  0  0
  5  6  1  0  0  0
  5 26  1  0  0  0
  5 89  1  0  0  0
  6 25  1  0  0  0
  6 90  1  0  0  0
  6 91  1  0  0  0
  7  8  2  0  0  0
  7 26  1  0  0  0
  7 29  1  0  0  0
  8  9  1  0  0  0
  8 22  1  0  0  0
  9 10  1  0  0  0
  9 27  2  0  0  0
 10 11  2  0  0  0
 10 15  1  0  0  0
 11 12  1  0  0  0
 11 92  1  0  0  0
 12 13  2  0  0  0
 12 93  1  0  0  0
 13 14  1  0  0  0
 13 31  1  0  0  0
 14 15  2  0  0  0
 14 94  1  0  0  0
 15 95  1  0  0  0
 16 17  2  0  0  0
 16 21  1  0  0  0
 16 31  1  0  0  0
 17 18  1  0  0  0
 17 96  1  0  0  0
 18 19  2  0  0  0
 18 97  1  0  0  0
 19 20  1  0  0  0
 19 24  1  0  0  0
 20 21  2  0  0  0
 20 98  1  0  0  0
 21 23  1  0  0  0
 22 28  1  0  0  0
 22 32  2  0  0  0
 26 27  1  0  0  0
 28 99  1  0  0  0
 28100  1  0  0  0
 29101  1  0  0  0
 29102  1  0  0  0
 33 34  1  0  0  0
 33 66  1  0  0  0
 33 70  2  0  0  0
 34 36  1  0  0  0
 34 59  1  0  0  0
 34103  1  0  0  0
 35 44  2  0  0  0
 35 45  1  0  0  0
 35 68  1  0  0  0
 36 56  1  0  0  0
 36104  1  0  0  0
 37 39  1  0  0  0
 37 47  1  0  0  0
 37 66  1  0  0  0
 37105  1  0  0  0
 38 43  2  0  0  0
 38 46  1  0  0  0
 38 47  1  0  0  0
 39 64  1  0  0  0
 39 67  2  0  0  0
 40 52  1  0  0  0
 40 53  2  0  0  0
 40 58  1  0  0  0
 41106  1  0  0  0
 41107  1  0  0  0
 41108  1  0  0  0
 41 48  1  0  0  0
 42 43  1  0  0  0
 42 66  1  0  0  0
 42109  1  0  0  0
 42110  1  0  0  0
 43 44  1  0  0  0
 44111  1  0  0  0
 45 46  2  0  0  0
 45112  1  0  0  0
 46113  1  0  0  0
 47114  1  0  0  0
 47115  1  0  0  0
 48 56  1  0  0  0
 48 65  1  0  0  0
 48116  1  0  0  0
 49 50  1  0  0  0
 49 53  1  0  0  0
 49 64  1  0  0  0
 49117  1  0  0  0
 50 51  1  0  0  0
 50118  1  0  0  0
 50119  1  0  0  0
 51 52  1  0  0  0
 51120  1  0  0  0
 51121  1  0  0  0
 52122  1  0  0  0
 52123  1  0  0  0
 53 54  1  0  0  0
 54 55  2  0  0  0
 54124  1  0  0  0
 55 57  1  0  0  0
 55125  1  0  0  0
 56 69  2  0  0  0
 57 58  2  0  0  0
 57126  1  0  0  0
 58127  1  0  0  0
 59 60  1  0  0  0
 59 61  1  0  0  0
 59 62  1  0  0  0
 60128  1  0  0  0
 60129  1  0  0  0
 60130  1  0  0  0
 61131  1  0  0  0
 61132  1  0  0  0
 61133  1  0  0  0
 62134  1  0  0  0
 62135  1  0  0  0
 62136  1  0  0  0
 63 65  1  0  0  0
 63137  1  0  0  0
 63138  1  0  0  0
 63139  1  0  0  0
 64140  1  0  0  0
 65141  1  0  0  0
 68 76  1  0  0  0
 71 72  1  0  0  0
 71 74  1  0  0  0
 71142  1  0  0  0
 71143  1  0  0  0
 72 76  1  0  0  0
 72144  1  0  0  0
 72145  1  0  0  0
 73 75  1  0  0  0
 73 76  1  0  0  0
 73146  1  0  0  0
 73147  1  0  0  0
 74 75  1  0  0  0
 74 77  1  0  0  0
 74148  1  0  0  0
 75 82  1  0  0  0
 75149  1  0  0  0
 76150  1  0  0  0
 77151  1  0  0  0
 77152  1  0  0  0
 77153  1  0  0  0
 78154  1  0  0  0
 78155  1  0  0  0
 78156  1  0  0  0
 78 80  1  0  0  0
 79 80  1  0  0  0
 79 82  1  0  0  0
 79157  1  0  0  0
 79158  1  0  0  0
 80 81  1  0  0  0
 80159  1  0  0  0
 81160  1  0  0  0
 82161  1  0  0  0
 82162  1  0  0  0
M  CHG  1  82   1
M  ISO  4   1 100  68 101  76 101  81 100
M  END
> <chiral flag>
0

> <version>
0

> <s_m_source_file>
/data/baiqing/PycharmProjects/Reinvent-master-3.2/result/LINK_invent/BTK/process_docking_weight1_custom_sum_contain_oxygen_bond_distance_aromatic_linkinvent_7_9_3/rearranged_h_0125.sdf

> <i_m_source_file_index>
51

> <r_mmod_Potential_Energy-OPLS-2005>
423.251220703125

> <r_mmod_Stretch_Energy-OPLS-2005>
281.292633056641

> <r_mmod_Bend_Energy-OPLS-2005>
333.818939208984

> <r_mmod_Torsional_Energy-OPLS-2005>
265.445495605469

> <r_mmod_Improper_Torsional_Energy-OPLS-2005>
4.39590930938721

> <r_mmod_Van_der_Waal_Energy-OPLS-2005>
119.077003479004

> <r_mmod_Electrostatic_Energy-OPLS-2005>
-290.322998046875

> <r_mmod_Solvation_Energy-OPLS-2005>
-478.994384765625

> <b_mmod_Minimization_Converged-OPLS-2005>
0

> <r_mmod_RMS_Derivative-OPLS-2005>
1.20827865600586

$$$$
52
                    3D
 Structure written by MMmdl.
164172  0  0  1  0            999 V2000
  -30.6539  -14.7195   20.4606 C   0  0  0  0  0  0
  -30.4211  -12.4244   19.5031 C   0  0  0  0  0  0
  -29.5159  -12.5213   18.2536 C   0  0  0  0  0  0
  -28.0353  -12.3679   18.6459 C   0  0  0  0  0  0
  -27.6455  -13.2411   19.8681 C   0  0  2  0  0  0
  -28.6921  -13.1768   21.0082 C   0  0  0  0  0  0
  -25.2503  -13.8235   20.5695 C   0  0  0  0  0  0
  -24.1789  -13.0457   20.9180 C   0  0  0  0  0  0
  -24.6394  -11.6940   20.8747 C   0  0  0  0  0  0
  -23.9077  -10.4310   21.0401 C   0  0  0  0  0  0
  -24.3643   -9.4261   21.9211 C   0  0  0  0  0  0
  -23.6319   -8.2279   22.0779 C   0  0  0  0  0  0
  -22.4287   -8.0323   21.3549 C   0  0  0  0  0  0
  -21.9900   -9.0302   20.4648 C   0  0  0  0  0  0
  -22.7241  -10.2180   20.3061 C   0  0  0  0  0  0
  -21.6887   -6.0728   22.5247 C   0  0  0  0  0  0
  -21.4050   -6.5623   23.8181 C   0  0  0  0  0  0
  -21.3679   -5.6765   24.9142 C   0  0  0  0  0  0
  -21.6058   -4.3023   24.7186 C   0  0  0  0  0  0
  -21.8827   -3.8128   23.4292 C   0  0  0  0  0  0
  -21.9205   -4.6957   22.3358 C   0  0  0  0  0  0
  -22.7814  -13.5262   21.1842 C   0  0  0  0  0  0
  -22.1680   -4.2135   21.0946 F   0  0  0  0  0  0
  -21.5653   -3.4523   25.7709 F   0  0  0  0  0  0
  -30.0094  -13.4980   20.4422 N   0  0  0  0  0  0
  -26.2957  -12.9453   20.3374 N   0  0  0  0  0  0
  -25.9355  -11.6564   20.5787 N   0  0  0  0  0  0
  -22.0461  -12.8238   22.0409 N   0  0  0  0  0  0
  -25.4147  -15.1947   20.4064 N   0  0  0  0  0  0
  -31.7985  -14.8135   20.0084 O   0  0  0  0  0  0
  -21.6677   -6.8896   21.4219 O   0  0  0  0  0  0
  -22.3460  -14.5541   20.6708 O   0  0  0  0  0  0
  -24.6217  -31.8593   23.2008 C   0  0  0  0  0  0
  -25.9061  -32.4756   23.8312 C   0  0  1  0  0  0
  -27.2251  -27.3230   20.0877 C   0  0  0  0  0  0
  -25.5878  -33.8564   24.2232 N   0  0  0  0  0  0
  -23.4133  -30.4859   21.5449 C   0  0  2  0  0  0
  -24.8595  -28.9434   20.1098 C   0  0  0  0  0  0
  -22.7424  -29.4618   22.4920 C   0  0  0  0  0  0
  -18.0309  -28.1356   22.8544 C   0  0  0  0  0  0
  -24.1511  -36.7318   23.2629 C   0  0  0  0  0  0
  -25.9559  -30.7855   21.3758 C   0  0  0  0  0  0
  -26.0286  -29.4132   20.7206 C   0  0  0  0  0  0
  -27.2090  -28.6100   20.7115 C   0  0  0  0  0  0
  -26.0278  -26.9086   19.4551 C   0  0  0  0  0  0
  -24.8587  -27.6916   19.4775 C   0  0  0  0  0  0
  -23.6310  -29.8282   20.1578 C   0  0  0  0  0  0
  -25.4115  -36.3054   24.0314 C   0  0  1  0  0  0
  -20.5905  -28.3641   23.1307 C   0  0  2  0  0  0
  -20.6805  -26.9372   22.5435 C   0  0  0  0  0  0
  -19.5751  -26.6370   21.5251 C   0  0  0  0  0  0
  -18.1916  -26.7912   22.1661 C   0  0  0  0  0  0
  -19.1559  -28.8814   23.2944 C   0  0  0  0  0  0
  -18.9471  -30.1423   23.8943 C   0  0  0  0  0  0
  -17.6455  -30.6572   24.0555 C   0  0  0  0  0  0
  -25.9045  -34.9429   23.5067 C   0  0  0  0  0  0
  -16.5355  -29.9060   23.6315 C   0  0  0  0  0  0
  -16.7298  -28.6483   23.0362 C   0  0  0  0  0  0
  -26.4434  -31.6559   25.0690 C   0  0  0  0  0  0
  -25.3686  -31.3732   26.1436 C   0  0  0  0  0  0
  -27.0195  -30.2955   24.6116 C   0  0  0  0  0  0
  -27.5957  -32.4290   25.7506 C   0  0  0  0  0  0
  -27.5570  -37.1812   24.8443 C   0  0  0  0  0  0
  -21.4137  -29.3029   22.3694 N   0  0  0  0  0  0
  -26.4269  -37.3759   23.9405 N   0  0  0  0  0  0
  -24.6828  -31.0602   22.0978 N   0  0  0  0  0  0
  -23.4191  -28.8151   23.2974 O   0  0  0  0  0  0
  -28.3559  -26.4852   20.1081 O   0  0  0  0  0  0
  -26.5612  -34.8907   22.4642 O   0  0  0  0  0  0
  -23.5373  -32.1393   23.7337 O   0  0  0  0  0  0
  -29.4717  -19.8440   20.2374 C   0  0  0  0  0  0
  -29.8515  -21.2001   20.5515 C   0  0  0  0  0  0
  -30.2399  -18.6604   20.5857 C   0  0  0  0  0  0
  -31.0455  -21.3150   21.3098 C   0  0  0  0  0  0
  -31.4243  -18.9784   21.3120 C   0  0  0  0  0  0
  -31.6765  -22.6247   21.7659 C   0  0  0  0  0  0
  -33.8731  -18.4224   21.0742 C   0  0  0  0  0  0
  -28.4908  -17.2025   19.3500 C   0  0  0  0  0  0
  -28.9457  -22.4157   20.0652 C   0  0  0  0  0  0
  -32.5202  -17.9875   21.6678 C   0  0  0  0  0  0
  -29.2999  -23.9759   20.2310 C   0  0  0  0  0  0
  -28.1696  -25.0374   19.8340 C   0  0  0  0  0  0
  -29.8860  -17.1895   20.0148 C   0  0  2  0  0  0
  -31.7533  -20.2364   21.6897 N   0  0  0  0  0  0
  -29.9446  -15.8627   20.7876 N   0  0  0  0  0  0
  -31.4712  -12.5018   19.2207 H   0  0  0  0  0  0
  -30.3134  -11.4478   19.9787 H   0  0  0  0  0  0
  -29.7882  -11.7576   17.5249 H   0  0  0  0  0  0
  -29.6729  -13.4881   17.7662 H   0  0  0  0  0  0
  -27.8406  -11.3113   18.8481 H   0  0  0  0  0  0
  -27.4008  -12.6292   17.7954 H   0  0  0  0  0  0
  -27.6349  -14.2659   19.5057 H   0  0  0  0  0  0
  -28.7109  -12.1826   21.4518 H   0  0  0  0  0  0
  -28.4275  -13.8575   21.8166 H   0  0  0  0  0  0
  -25.2805   -9.5748   22.4765 H   0  0  0  0  0  0
  -24.0059   -7.4648   22.7479 H   0  0  0  0  0  0
  -21.0842   -8.8771   19.8905 H   0  0  0  0  0  0
  -22.3697  -10.9720   19.6149 H   0  0  0  0  0  0
  -21.2042   -7.6134   23.9665 H   0  0  0  0  0  0
  -21.1528   -6.0513   25.9046 H   0  0  0  0  0  0
  -22.0585   -2.7583   23.2773 H   0  0  0  0  0  0
  -22.4074  -11.9902   22.4806 H   0  0  0  0  0  0
  -21.1086  -13.1232   22.2601 H   0  0  0  0  0  0
  -24.6442  -15.8449   20.5164 H   0  0  0  0  0  0
  -26.2610  -15.6381   20.0698 H   0  0  0  0  0  0
  -26.7133  -32.5430   23.1052 H   0  0  0  0  0  0
  -25.0014  -33.9705   25.0361 H   0  0  0  0  0  0
  -22.7048  -31.3049   21.4036 H   0  0  0  0  0  0
  -23.3737  -35.9682   23.3238 H   0  0  0  0  0  0
  -24.3657  -36.8990   22.2059 H   0  0  0  0  0  0
  -23.7291  -37.6518   23.6700 H   0  0  0  0  0  0
  -26.0750  -31.5418   20.5990 H   0  0  0  0  0  0
  -26.8417  -30.8424   21.9966 H   0  0  0  0  0  0
  -28.1002  -28.9557   21.2177 H   0  0  0  0  0  0
  -25.9631  -25.9618   18.9384 H   0  0  0  0  0  0
  -23.9666  -27.3248   18.9881 H   0  0  0  0  0  0
  -23.7520  -30.6088   19.4067 H   0  0  0  0  0  0
  -22.7509  -29.2653   19.8467 H   0  0  0  0  0  0
  -25.1304  -36.1877   25.0801 H   0  0  0  0  0  0
  -21.0057  -28.3239   24.1397 H   0  0  0  0  0  0
  -20.5761  -26.2236   23.3633 H   0  0  0  0  0  0
  -21.6655  -26.7431   22.1140 H   0  0  0  0  0  0
  -19.6879  -25.6287   21.1239 H   0  0  0  0  0  0
  -19.6658  -27.3237   20.6820 H   0  0  0  0  0  0
  -17.4201  -26.6735   21.4035 H   0  0  0  0  0  0
  -18.0267  -26.0043   22.9035 H   0  0  0  0  0  0
  -19.7943  -30.7254   24.2334 H   0  0  0  0  0  0
  -17.5005  -31.6282   24.5092 H   0  0  0  0  0  0
  -15.5345  -30.2955   23.7610 H   0  0  0  0  0  0
  -15.8723  -28.0794   22.7023 H   0  0  0  0  0  0
  -24.5923  -30.6960   25.7865 H   0  0  0  0  0  0
  -24.8815  -32.2916   26.4737 H   0  0  0  0  0  0
  -25.8065  -30.9084   27.0281 H   0  0  0  0  0  0
  -26.2726  -29.6806   24.1090 H   0  0  0  0  0  0
  -27.3795  -29.7107   25.4584 H   0  0  0  0  0  0
  -27.8656  -30.4186   23.9353 H   0  0  0  0  0  0
  -27.2489  -33.3583   26.2045 H   0  0  0  0  0  0
  -28.3819  -32.6851   25.0395 H   0  0  0  0  0  0
  -28.0547  -31.8439   26.5483 H   0  0  0  0  0  0
  -28.2514  -38.0166   24.7484 H   0  0  0  0  0  0
  -28.1117  -36.2679   24.6245 H   0  0  0  0  0  0
  -27.2306  -37.1445   25.8848 H   0  0  0  0  0  0
  -20.9258  -29.8771   21.6948 H   0  0  0  0  0  0
  -26.0119  -38.2812   24.1439 H   0  0  0  0  0  0
  -28.5581  -19.7391   19.6755 H   0  0  0  0  0  0
  -31.9505  -23.2677   20.9275 H   0  0  0  0  0  0
  -32.5978  -22.4405   22.3202 H   0  0  0  0  0  0
  -31.0327  -23.1625   22.4570 H   0  0  0  0  0  0
  -34.6291  -17.6439   21.1641 H   0  0  0  0  0  0
  -34.2511  -19.3039   21.5958 H   0  0  0  0  0  0
  -33.7793  -18.6887   20.0213 H   0  0  0  0  0  0
  -28.4181  -17.9383   18.5492 H   0  0  0  0  0  0
  -27.7010  -17.4129   20.0708 H   0  0  0  0  0  0
  -28.2597  -16.2558   18.8700 H   0  0  0  0  0  0
  -27.9726  -22.2577   20.5284 H   0  0  0  0  0  0
  -28.7669  -22.2405   19.0022 H   0  0  0  0  0  0
  -32.2809  -16.9831   21.3422 H   0  0  0  0  0  0
  -32.6048  -17.9384   22.7522 H   0  0  0  0  0  0
  -30.1898  -24.1966   19.6414 H   0  0  0  0  0  0
  -29.5441  -24.1823   21.2703 H   0  0  0  0  0  0
  -27.2675  -24.7159   20.3518 H   0  0  0  0  0  0
  -27.9499  -24.9122   18.7736 H   0  0  0  0  0  0
  -30.5902  -17.0677   19.1892 H   0  0  0  0  0  0
  -29.0969  -15.6628   21.2974 H   0  0  0  0  0  0
  1 25  1  0  0  0
  1 30  2  0  0  0
  1 85  1  0  0  0
  2  3  1  0  0  0
  2 25  1  0  0  0
  2 86  1  0  0  0
  2 87  1  0  0  0
  3  4  1  0  0  0
  3 88  1  0  0  0
  3 89  1  0  0  0
  4  5  1  0  0  0
  4 90  1  0  0  0
  4 91  1  0  0  0
  5  6  1  0  0  0
  5 26  1  0  0  0
  5 92  1  0  0  0
  6 25  1  0  0  0
  6 93  1  0  0  0
  6 94  1  0  0  0
  7  8  2  0  0  0
  7 26  1  0  0  0
  7 29  1  0  0  0
  8  9  1  0  0  0
  8 22  1  0  0  0
  9 10  1  0  0  0
  9 27  2  0  0  0
 10 11  2  0  0  0
 10 15  1  0  0  0
 11 12  1  0  0  0
 11 95  1  0  0  0
 12 13  2  0  0  0
 12 96  1  0  0  0
 13 14  1  0  0  0
 13 31  1  0  0  0
 14 15  2  0  0  0
 14 97  1  0  0  0
 15 98  1  0  0  0
 16 17  2  0  0  0
 16 21  1  0  0  0
 16 31  1  0  0  0
 17 18  1  0  0  0
 17 99  1  0  0  0
 18 19  2  0  0  0
 18100  1  0  0  0
 19 20  1  0  0  0
 19 24  1  0  0  0
 20 21  2  0  0  0
 20101  1  0  0  0
 21 23  1  0  0  0
 22 28  1  0  0  0
 22 32  2  0  0  0
 26 27  1  0  0  0
 28102  1  0  0  0
 28103  1  0  0  0
 29104  1  0  0  0
 29105  1  0  0  0
 33 34  1  0  0  0
 33 66  1  0  0  0
 33 70  2  0  0  0
 34 36  1  0  0  0
 34 59  1  0  0  0
 34106  1  0  0  0
 35 44  2  0  0  0
 35 45  1  0  0  0
 35 68  1  0  0  0
 36 56  1  0  0  0
 36107  1  0  0  0
 37 39  1  0  0  0
 37 47  1  0  0  0
 37 66  1  0  0  0
 37108  1  0  0  0
 38 43  2  0  0  0
 38 46  1  0  0  0
 38 47  1  0  0  0
 39 64  1  0  0  0
 39 67  2  0  0  0
 40 52  1  0  0  0
 40 53  2  0  0  0
 40 58  1  0  0  0
 41109  1  0  0  0
 41110  1  0  0  0
 41111  1  0  0  0
 41 48  1  0  0  0
 42 43  1  0  0  0
 42 66  1  0  0  0
 42112  1  0  0  0
 42113  1  0  0  0
 43 44  1  0  0  0
 44114  1  0  0  0
 45 46  2  0  0  0
 45115  1  0  0  0
 46116  1  0  0  0
 47117  1  0  0  0
 47118  1  0  0  0
 48 56  1  0  0  0
 48 65  1  0  0  0
 48119  1  0  0  0
 49 50  1  0  0  0
 49 53  1  0  0  0
 49 64  1  0  0  0
 49120  1  0  0  0
 50 51  1  0  0  0
 50121  1  0  0  0
 50122  1  0  0  0
 51 52  1  0  0  0
 51123  1  0  0  0
 51124  1  0  0  0
 52125  1  0  0  0
 52126  1  0  0  0
 53 54  1  0  0  0
 54 55  2  0  0  0
 54127  1  0  0  0
 55 57  1  0  0  0
 55128  1  0  0  0
 56 69  2  0  0  0
 57 58  2  0  0  0
 57129  1  0  0  0
 58130  1  0  0  0
 59 60  1  0  0  0
 59 61  1  0  0  0
 59 62  1  0  0  0
 60131  1  0  0  0
 60132  1  0  0  0
 60133  1  0  0  0
 61134  1  0  0  0
 61135  1  0  0  0
 61136  1  0  0  0
 62137  1  0  0  0
 62138  1  0  0  0
 62139  1  0  0  0
 63 65  1  0  0  0
 63140  1  0  0  0
 63141  1  0  0  0
 63142  1  0  0  0
 64143  1  0  0  0
 65144  1  0  0  0
 68 82  1  0  0  0
 71 72  2  0  0  0
 71 73  1  0  0  0
 71145  1  0  0  0
 72 74  1  0  0  0
 72 79  1  0  0  0
 73 75  2  0  0  0
 73 83  1  0  0  0
 74 76  1  0  0  0
 74 84  2  0  0  0
 75 80  1  0  0  0
 75 84  1  0  0  0
 76146  1  0  0  0
 76147  1  0  0  0
 76148  1  0  0  0
 77 80  1  0  0  0
 77149  1  0  0  0
 77150  1  0  0  0
 77151  1  0  0  0
 78152  1  0  0  0
 78153  1  0  0  0
 78154  1  0  0  0
 78 83  1  0  0  0
 79 81  1  0  0  0
 79155  1  0  0  0
 79156  1  0  0  0
 80157  1  0  0  0
 80158  1  0  0  0
 81 82  1  0  0  0
 81159  1  0  0  0
 81160  1  0  0  0
 82161  1  0  0  0
 82162  1  0  0  0
 83 85  1  0  0  0
 83163  1  0  0  0
 85164  1  0  0  0
M  ISO  4   1 100  68 101  82 101  85 100
M  END
> <chiral flag>
0

> <version>
0

> <s_m_source_file>
/data/baiqing/PycharmProjects/Reinvent-master-3.2/result/LINK_invent/BTK/process_docking_weight1_custom_sum_contain_oxygen_bond_distance_aromatic_linkinvent_7_9_3/rearranged_h_0125.sdf

> <i_m_source_file_index>
52

> <r_mmod_Potential_Energy-OPLS-2005>
15.0441493988037

> <r_mmod_Stretch_Energy-OPLS-2005>
113.71549987793

> <r_mmod_Bend_Energy-OPLS-2005>
190.339462280273

> <r_mmod_Torsional_Energy-OPLS-2005>
215.52165222168

> <r_mmod_Improper_Torsional_Energy-OPLS-2005>
7.88870573043823

> <r_mmod_Van_der_Waal_Energy-OPLS-2005>
151.608154296875

> <r_mmod_Electrostatic_Energy-OPLS-2005>
-506.783569335938

> <r_mmod_Solvation_Energy-OPLS-2005>
-220.159225463867

> <b_mmod_Minimization_Converged-OPLS-2005>
0

> <r_mmod_RMS_Derivative-OPLS-2005>
6.83421039581299

$$$$
53
                    3D
 Structure written by MMmdl.
168177  0  0  1  0            999 V2000
  -30.5760  -14.8772   20.4299 C   0  0  0  0  0  0
  -30.4383  -12.5458   19.4829 C   0  0  0  0  0  0
  -29.5134  -12.5093   18.2453 C   0  0  0  0  0  0
  -28.0467  -12.3080   18.6675 C   0  0  0  0  0  0
  -27.6315  -13.2415   19.8343 C   0  0  2  0  0  0
  -28.6743  -13.2517   20.9720 C   0  0  0  0  0  0
  -25.2475  -13.8207   20.5676 C   0  0  0  0  0  0
  -24.1788  -13.0434   20.9200 C   0  0  0  0  0  0
  -24.6397  -11.6916   20.8737 C   0  0  0  0  0  0
  -23.9080  -10.4293   21.0402 C   0  0  0  0  0  0
  -24.3630   -9.4202   21.9177 C   0  0  0  0  0  0
  -23.6300   -8.2237   22.0754 C   0  0  0  0  0  0
  -22.4279   -8.0280   21.3542 C   0  0  0  0  0  0
  -21.9921   -9.0252   20.4641 C   0  0  0  0  0  0
  -22.7254  -10.2130   20.3044 C   0  0  0  0  0  0
  -21.6863   -6.0731   22.5271 C   0  0  0  0  0  0
  -21.4017   -6.5636   23.8203 C   0  0  0  0  0  0
  -21.3650   -5.6789   24.9169 C   0  0  0  0  0  0
  -21.6043   -4.3052   24.7223 C   0  0  0  0  0  0
  -21.8822   -3.8143   23.4345 C   0  0  0  0  0  0
  -21.9200   -4.6959   22.3399 C   0  0  0  0  0  0
  -22.7810  -13.5203   21.1869 C   0  0  0  0  0  0
  -22.1668   -4.2146   21.0975 F   0  0  0  0  0  0
  -21.5627   -3.4537   25.7741 F   0  0  0  0  0  0
  -29.9593  -13.6361   20.3757 N   0  0  0  0  0  0
  -26.2895  -12.9427   20.3213 N   0  0  0  0  0  0
  -25.9327  -11.6565   20.5736 N   0  0  0  0  0  0
  -22.0476  -12.8179   22.0436 N   0  0  0  0  0  0
  -25.4136  -15.1937   20.4108 N   0  0  0  0  0  0
  -31.7783  -14.9391   20.1580 O   0  0  0  0  0  0
  -21.6639   -6.8875   21.4235 O   0  0  0  0  0  0
  -22.3479  -14.5502   20.6721 O   0  0  0  0  0  0
  -24.6395  -31.8464   23.1880 C   0  0  0  0  0  0
  -25.9191  -32.4698   23.8249 C   0  0  1  0  0  0
  -27.2284  -27.1712   20.1459 C   0  0  0  0  0  0
  -25.5959  -33.8496   24.2182 N   0  0  0  0  0  0
  -23.4411  -30.4623   21.5338 C   0  0  2  0  0  0
  -24.8897  -28.8810   20.1138 C   0  0  0  0  0  0
  -22.7541  -29.4549   22.4883 C   0  0  0  0  0  0
  -18.0298  -28.1409   22.8480 C   0  0  0  0  0  0
  -24.1460  -36.7199   23.2642 C   0  0  0  0  0  0
  -25.9911  -30.7274   21.3812 C   0  0  0  0  0  0
  -26.0611  -29.3382   20.7294 C   0  0  0  0  0  0
  -27.2281  -28.4954   20.7312 C   0  0  0  0  0  0
  -26.0307  -26.7947   19.5024 C   0  0  0  0  0  0
  -24.8827  -27.6211   19.4900 C   0  0  0  0  0  0
  -23.6653  -29.7827   20.1550 C   0  0  0  0  0  0
  -25.4110  -36.3012   24.0315 C   0  0  1  0  0  0
  -20.5904  -28.3716   23.1248 C   0  0  2  0  0  0
  -20.6767  -26.9422   22.5413 C   0  0  0  0  0  0
  -19.5748  -26.6398   21.5207 C   0  0  0  0  0  0
  -18.1933  -26.7953   22.1619 C   0  0  0  0  0  0
  -19.1559  -28.8886   23.2854 C   0  0  0  0  0  0
  -18.9483  -30.1477   23.8886 C   0  0  0  0  0  0
  -17.6480  -30.6602   24.0568 C   0  0  0  0  0  0
  -25.9076  -34.9398   23.5056 C   0  0  0  0  0  0
  -16.5367  -29.9092   23.6348 C   0  0  0  0  0  0
  -16.7286  -28.6510   23.0376 C   0  0  0  0  0  0
  -26.4549  -31.6556   25.0669 C   0  0  0  0  0  0
  -25.3756  -31.3742   26.1380 C   0  0  0  0  0  0
  -27.0406  -30.2958   24.6208 C   0  0  0  0  0  0
  -27.6085  -32.4306   25.7475 C   0  0  0  0  0  0
  -27.5558  -37.1752   24.8484 C   0  0  0  0  0  0
  -21.4249  -29.3026   22.3609 N   0  0  0  0  0  0
  -26.4260  -37.3741   23.9431 N   0  0  0  0  0  0
  -24.7098  -31.0337   22.0893 N   0  0  0  0  0  0
  -23.4201  -28.8136   23.3057 O   0  0  0  0  0  0
  -28.3483  -26.2813   20.1695 O   0  0  0  0  0  0
  -26.5648  -34.8904   22.4628 O   0  0  0  0  0  0
  -23.5524  -32.1327   23.7123 O   0  0  0  0  0  0
  -28.3911  -23.9843   19.0161 C   0  0  0  0  0  0
  -29.0257  -22.8266   21.3856 C   0  0  0  0  0  0
  -28.7633  -22.5819   19.0579 C   0  0  0  0  0  0
  -29.1102  -21.9092   20.2830 C   0  0  0  0  0  0
  -28.3698  -24.8206   20.1742 C   0  0  0  0  0  0
  -26.0688  -16.1839   16.5036 C   0  0  0  0  0  0
  -26.7798  -16.7455   15.2918 C   0  0  0  0  0  0
  -27.1662  -17.2049   16.6782 C   0  0  0  0  0  0
  -29.8517  -20.4387   20.4091 C   0  0  0  0  0  0
  -28.8371  -21.8124   17.7508 C   0  0  0  0  0  0
  -26.8318  -18.5988   17.1714 C   0  0  0  0  0  0
  -29.2395  -18.8870   20.4497 C   0  0  0  0  0  0
  -30.2556  -17.5582   20.4515 C   0  0  0  0  0  0
  -27.9896  -19.5973   16.9908 C   0  0  0  0  0  0
  -28.6996  -24.1761   21.3370 N   0  0  0  0  0  0
  -29.8169  -16.0593   20.5691 N   0  0  0  0  0  0
  -27.7231  -20.8555   17.7199 N   0  3  0  0  0  0
  -31.4701  -12.6999   19.1623 H   0  0  0  0  0  0
  -30.4295  -11.5898   20.0076 H   0  0  0  0  0  0
  -29.8203  -11.7084   17.5704 H   0  0  0  0  0  0
  -29.6091  -13.4397   17.6830 H   0  0  0  0  0  0
  -27.9371  -11.2671   18.9744 H   0  0  0  0  0  0
  -27.3819  -12.4437   17.8137 H   0  0  0  0  0  0
  -27.6016  -14.2454   19.4097 H   0  0  0  0  0  0
  -28.7440  -12.2758   21.4540 H   0  0  0  0  0  0
  -28.3846  -13.9623   21.7476 H   0  0  0  0  0  0
  -25.2780   -9.5674   22.4746 H   0  0  0  0  0  0
  -24.0012   -7.4627   22.7475 H   0  0  0  0  0  0
  -21.0852   -8.8767   19.8944 H   0  0  0  0  0  0
  -22.3715  -10.9663   19.6145 H   0  0  0  0  0  0
  -21.2004   -7.6143   23.9706 H   0  0  0  0  0  0
  -21.1468   -6.0519   25.9072 H   0  0  0  0  0  0
  -22.0614   -2.7607   23.2848 H   0  0  0  0  0  0
  -22.4131  -11.9847   22.4802 H   0  0  0  0  0  0
  -21.1084  -13.1165   22.2652 H   0  0  0  0  0  0
  -24.6371  -15.8385   20.5104 H   0  0  0  0  0  0
  -26.2547  -15.6378   20.0671 H   0  0  0  0  0  0
  -26.7250  -32.5341   23.0969 H   0  0  0  0  0  0
  -25.0120  -33.9598   25.0343 H   0  0  0  0  0  0
  -22.7398  -31.2852   21.3773 H   0  0  0  0  0  0
  -23.3749  -35.9504   23.3322 H   0  0  0  0  0  0
  -24.3529  -36.8809   22.2052 H   0  0  0  0  0  0
  -23.7177  -37.6380   23.6665 H   0  0  0  0  0  0
  -26.1364  -31.4790   20.6038 H   0  0  0  0  0  0
  -26.8653  -30.7833   22.0188 H   0  0  0  0  0  0
  -28.1279  -28.8399   21.2190 H   0  0  0  0  0  0
  -25.9680  -25.8286   19.0213 H   0  0  0  0  0  0
  -23.9827  -27.2679   19.0032 H   0  0  0  0  0  0
  -23.8040  -30.5517   19.3950 H   0  0  0  0  0  0
  -22.7796  -29.2255   19.8451 H   0  0  0  0  0  0
  -25.1290  -36.1826   25.0803 H   0  0  0  0  0  0
  -21.0000  -28.3314   24.1368 H   0  0  0  0  0  0
  -20.5657  -26.2327   23.3627 H   0  0  0  0  0  0
  -21.6635  -26.7424   22.1225 H   0  0  0  0  0  0
  -19.6898  -25.6316   21.1226 H   0  0  0  0  0  0
  -19.6687  -27.3219   20.6742 H   0  0  0  0  0  0
  -17.4202  -26.6708   21.4021 H   0  0  0  0  0  0
  -18.0322  -26.0107   22.9022 H   0  0  0  0  0  0
  -19.7967  -30.7293   24.2249 H   0  0  0  0  0  0
  -17.5043  -31.6284   24.5171 H   0  0  0  0  0  0
  -15.5373  -30.2989   23.7703 H   0  0  0  0  0  0
  -15.8675  -28.0815   22.7121 H   0  0  0  0  0  0
  -24.5962  -30.7041   25.7735 H   0  0  0  0  0  0
  -24.8929  -32.2925   26.4727 H   0  0  0  0  0  0
  -25.8088  -30.8998   27.0200 H   0  0  0  0  0  0
  -26.2999  -29.6676   24.1245 H   0  0  0  0  0  0
  -27.4072  -29.7245   25.4752 H   0  0  0  0  0  0
  -27.8878  -30.4190   23.9455 H   0  0  0  0  0  0
  -27.2679  -33.3623   26.1995 H   0  0  0  0  0  0
  -28.3949  -32.6837   25.0352 H   0  0  0  0  0  0
  -28.0681  -31.8461   26.5447 H   0  0  0  0  0  0
  -28.2598  -38.0031   24.7533 H   0  0  0  0  0  0
  -28.1021  -36.2560   24.6312 H   0  0  0  0  0  0
  -27.2265  -37.1417   25.8886 H   0  0  0  0  0  0
  -20.9469  -29.8661   21.6713 H   0  0  0  0  0  0
  -26.0113  -38.2783   24.1514 H   0  0  0  0  0  0
  -28.2034  -24.4488   18.0579 H   0  0  0  0  0  0
  -29.3290  -22.4842   22.3640 H   0  0  0  0  0  0
  -26.2926  -15.1596   16.7980 H   0  0  0  0  0  0
  -25.0464  -16.5086   16.6899 H   0  0  0  0  0  0
  -26.2329  -17.4447   14.6614 H   0  0  0  0  0  0
  -27.4677  -16.0859   14.7660 H   0  0  0  0  0  0
  -28.1014  -16.8127   17.0756 H   0  0  0  0  0  0
  -30.4493  -20.5204   21.3173 H   0  0  0  0  0  0
  -30.6116  -20.4345   19.6269 H   0  0  0  0  0  0
  -29.8025  -21.3102   17.6845 H   0  0  0  0  0  0
  -28.7809  -22.4795   16.8902 H   0  0  0  0  0  0
  -26.5645  -18.5163   18.2255 H   0  0  0  0  0  0
  -25.9445  -18.9644   16.6515 H   0  0  0  0  0  0
  -28.5683  -18.7627   19.6059 H   0  0  0  0  0  0
  -28.5939  -18.8131   21.3248 H   0  0  0  0  0  0
  -30.9822  -17.7132   21.2496 H   0  0  0  0  0  0
  -30.8455  -17.6170   19.5353 H   0  0  0  0  0  0
  -28.1592  -19.8002   15.9327 H   0  0  0  0  0  0
  -28.9117  -19.1521   17.3684 H   0  0  0  0  0  0
  -28.8346  -15.9031   20.7438 H   0  0  0  0  0  0
  -26.9098  -21.3209   17.3523 H   0  0  0  0  0  0
  -27.5356  -20.6413   18.6862 H   0  0  0  0  0  0
  1 25  1  0  0  0
  1 30  2  0  0  0
  1 86  1  0  0  0
  2  3  1  0  0  0
  2 25  1  0  0  0
  2 88  1  0  0  0
  2 89  1  0  0  0
  3  4  1  0  0  0
  3 90  1  0  0  0
  3 91  1  0  0  0
  4  5  1  0  0  0
  4 92  1  0  0  0
  4 93  1  0  0  0
  5  6  1  0  0  0
  5 26  1  0  0  0
  5 94  1  0  0  0
  6 25  1  0  0  0
  6 95  1  0  0  0
  6 96  1  0  0  0
  7  8  2  0  0  0
  7 26  1  0  0  0
  7 29  1  0  0  0
  8  9  1  0  0  0
  8 22  1  0  0  0
  9 10  1  0  0  0
  9 27  2  0  0  0
 10 11  2  0  0  0
 10 15  1  0  0  0
 11 12  1  0  0  0
 11 97  1  0  0  0
 12 13  2  0  0  0
 12 98  1  0  0  0
 13 14  1  0  0  0
 13 31  1  0  0  0
 14 15  2  0  0  0
 14 99  1  0  0  0
 15100  1  0  0  0
 16 17  2  0  0  0
 16 21  1  0  0  0
 16 31  1  0  0  0
 17 18  1  0  0  0
 17101  1  0  0  0
 18 19  2  0  0  0
 18102  1  0  0  0
 19 20  1  0  0  0
 19 24  1  0  0  0
 20 21  2  0  0  0
 20103  1  0  0  0
 21 23  1  0  0  0
 22 28  1  0  0  0
 22 32  2  0  0  0
 26 27  1  0  0  0
 28104  1  0  0  0
 28105  1  0  0  0
 29106  1  0  0  0
 29107  1  0  0  0
 33 34  1  0  0  0
 33 66  1  0  0  0
 33 70  2  0  0  0
 34 36  1  0  0  0
 34 59  1  0  0  0
 34108  1  0  0  0
 35 44  2  0  0  0
 35 45  1  0  0  0
 35 68  1  0  0  0
 36 56  1  0  0  0
 36109  1  0  0  0
 37 39  1  0  0  0
 37 47  1  0  0  0
 37 66  1  0  0  0
 37110  1  0  0  0
 38 43  2  0  0  0
 38 46  1  0  0  0
 38 47  1  0  0  0
 39 64  1  0  0  0
 39 67  2  0  0  0
 40 52  1  0  0  0
 40 53  2  0  0  0
 40 58  1  0  0  0
 41111  1  0  0  0
 41112  1  0  0  0
 41113  1  0  0  0
 41 48  1  0  0  0
 42 43  1  0  0  0
 42 66  1  0  0  0
 42114  1  0  0  0
 42115  1  0  0  0
 43 44  1  0  0  0
 44116  1  0  0  0
 45 46  2  0  0  0
 45117  1  0  0  0
 46118  1  0  0  0
 47119  1  0  0  0
 47120  1  0  0  0
 48 56  1  0  0  0
 48 65  1  0  0  0
 48121  1  0  0  0
 49 50  1  0  0  0
 49 53  1  0  0  0
 49 64  1  0  0  0
 49122  1  0  0  0
 50 51  1  0  0  0
 50123  1  0  0  0
 50124  1  0  0  0
 51 52  1  0  0  0
 51125  1  0  0  0
 51126  1  0  0  0
 52127  1  0  0  0
 52128  1  0  0  0
 53 54  1  0  0  0
 54 55  2  0  0  0
 54129  1  0  0  0
 55 57  1  0  0  0
 55130  1  0  0  0
 56 69  2  0  0  0
 57 58  2  0  0  0
 57131  1  0  0  0
 58132  1  0  0  0
 59 60  1  0  0  0
 59 61  1  0  0  0
 59 62  1  0  0  0
 60133  1  0  0  0
 60134  1  0  0  0
 60135  1  0  0  0
 61136  1  0  0  0
 61137  1  0  0  0
 61138  1  0  0  0
 62139  1  0  0  0
 62140  1  0  0  0
 62141  1  0  0  0
 63 65  1  0  0  0
 63142  1  0  0  0
 63143  1  0  0  0
 63144  1  0  0  0
 64145  1  0  0  0
 65146  1  0  0  0
 68 75  1  0  0  0
 71 73  2  0  0  0
 71 75  1  0  0  0
 71147  1  0  0  0
 72 74  2  0  0  0
 72 85  1  0  0  0
 72148  1  0  0  0
 73 74  1  0  0  0
 73 80  1  0  0  0
 74 79  1  0  0  0
 75 85  2  0  0  0
 76 77  1  0  0  0
 76 78  1  0  0  0
 76149  1  0  0  0
 76150  1  0  0  0
 77 78  1  0  0  0
 77151  1  0  0  0
 77152  1  0  0  0
 78 81  1  0  0  0
 78153  1  0  0  0
 79 82  1  0  0  0
 79154  1  0  0  0
 79155  1  0  0  0
 80 87  1  0  0  0
 80156  1  0  0  0
 80157  1  0  0  0
 81 84  1  0  0  0
 81158  1  0  0  0
 81159  1  0  0  0
 82 83  1  0  0  0
 82160  1  0  0  0
 82161  1  0  0  0
 83 86  1  0  0  0
 83162  1  0  0  0
 83163  1  0  0  0
 84 87  1  0  0  0
 84164  1  0  0  0
 84165  1  0  0  0
 86166  1  0  0  0
 87167  1  0  0  0
 87168  1  0  0  0
M  CHG  1  87   1
M  ISO  4   1 100  68 101  75 101  86 100
M  END
> <chiral flag>
0

> <version>
0

> <s_m_source_file>
/data/baiqing/PycharmProjects/Reinvent-master-3.2/result/LINK_invent/BTK/process_docking_weight1_custom_sum_contain_oxygen_bond_distance_aromatic_linkinvent_7_9_3/rearranged_h_0125.sdf

> <i_m_source_file_index>
53

> <r_mmod_Potential_Energy-OPLS-2005>
10.4314527511597

> <r_mmod_Stretch_Energy-OPLS-2005>
194.22248840332

> <r_mmod_Bend_Energy-OPLS-2005>
232.987564086914

> <r_mmod_Torsional_Energy-OPLS-2005>
263.021026611328

> <r_mmod_Improper_Torsional_Energy-OPLS-2005>
9.29325485229492

> <r_mmod_Van_der_Waal_Energy-OPLS-2005>
114.128524780273

> <r_mmod_Electrostatic_Energy-OPLS-2005>
-447.045135498047

> <r_mmod_Solvation_Energy-OPLS-2005>
-502.579498291016

> <b_mmod_Minimization_Converged-OPLS-2005>
0

> <r_mmod_RMS_Derivative-OPLS-2005>
2.39346957206726

$$$$
54
                    3D
 Structure written by MMmdl.
170178  0  0  1  0            999 V2000
  -30.6725  -14.4457   20.6001 C   0  0  0  0  0  0
  -30.4358  -12.3081   19.3787 C   0  0  0  0  0  0
  -29.4694  -12.4721   18.1807 C   0  0  0  0  0  0
  -27.9920  -12.3453   18.6034 C   0  0  0  0  0  0
  -27.6651  -13.1719   19.8757 C   0  0  2  0  0  0
  -28.7196  -12.8475   20.9578 C   0  0  0  0  0  0
  -25.2558  -13.8078   20.5663 C   0  0  0  0  0  0
  -24.1780  -13.0337   20.9261 C   0  0  0  0  0  0
  -24.6364  -11.6875   20.8842 C   0  0  0  0  0  0
  -23.9025  -10.4275   21.0476 C   0  0  0  0  0  0
  -24.3609   -9.4214   21.9198 C   0  0  0  0  0  0
  -23.6283   -8.2268   22.0812 C   0  0  0  0  0  0
  -22.4286   -8.0297   21.3575 C   0  0  0  0  0  0
  -21.9916   -9.0267   20.4673 C   0  0  0  0  0  0
  -22.7266  -10.2116   20.3065 C   0  0  0  0  0  0
  -21.6906   -6.0751   22.5266 C   0  0  0  0  0  0
  -21.4051   -6.5688   23.8165 C   0  0  0  0  0  0
  -21.3568   -5.6867   24.9093 C   0  0  0  0  0  0
  -21.5989   -4.3131   24.7230 C   0  0  0  0  0  0
  -21.8842   -3.8182   23.4380 C   0  0  0  0  0  0
  -21.9209   -4.6969   22.3383 C   0  0  0  0  0  0
  -22.7850  -13.5232   21.1831 C   0  0  0  0  0  0
  -22.1693   -4.2258   21.0945 F   0  0  0  0  0  0
  -21.5553   -3.4503   25.7669 F   0  0  0  0  0  0
  -30.0205  -13.2575   20.4312 N   0  0  0  0  0  0
  -26.3016  -12.9189   20.3461 N   0  0  0  0  0  0
  -25.9280  -11.6396   20.5833 N   0  0  0  0  0  0
  -22.0483  -12.8254   22.0420 N   0  0  0  0  0  0
  -25.4121  -15.1745   20.3966 N   0  0  0  0  0  0
  -31.7971  -14.6322   20.1388 O   0  0  0  0  0  0
  -21.6622   -6.8923   21.4287 O   0  0  0  0  0  0
  -22.3552  -14.5512   20.6586 O   0  0  0  0  0  0
  -24.6175  -31.8607   23.1976 C   0  0  0  0  0  0
  -25.8985  -32.4774   23.8327 C   0  0  1  0  0  0
  -27.2521  -27.4345   20.0671 C   0  0  0  0  0  0
  -25.5884  -33.8564   24.2275 N   0  0  0  0  0  0
  -23.4037  -30.4724   21.5453 C   0  0  2  0  0  0
  -24.8534  -28.9267   20.1277 C   0  0  0  0  0  0
  -22.7443  -29.4564   22.4976 C   0  0  0  0  0  0
  -18.0277  -28.1333   22.8439 C   0  0  0  0  0  0
  -24.1458  -36.7311   23.2628 C   0  0  0  0  0  0
  -25.9307  -30.8296   21.3486 C   0  0  0  0  0  0
  -26.0129  -29.4581   20.7071 C   0  0  0  0  0  0
  -27.2153  -28.7140   20.6741 C   0  0  0  0  0  0
  -26.0623  -26.9111   19.5096 C   0  0  0  0  0  0
  -24.8657  -27.6509   19.5404 C   0  0  0  0  0  0
  -23.6107  -29.7883   20.1671 C   0  0  0  0  0  0
  -25.4085  -36.3069   24.0345 C   0  0  1  0  0  0
  -20.5862  -28.3633   23.1247 C   0  0  2  0  0  0
  -20.6872  -26.9401   22.5409 C   0  0  0  0  0  0
  -19.6002  -26.6739   21.4946 C   0  0  0  0  0  0
  -18.2101  -26.7945   22.1351 C   0  0  0  0  0  0
  -19.1549  -28.8827   23.2759 C   0  0  0  0  0  0
  -18.9565  -30.1663   23.8279 C   0  0  0  0  0  0
  -17.6609  -30.6709   24.0172 C   0  0  0  0  0  0
  -25.9055  -34.9454   23.5122 C   0  0  0  0  0  0
  -16.5478  -29.9003   23.6478 C   0  0  0  0  0  0
  -16.7311  -28.6325   23.0595 C   0  0  0  0  0  0
  -26.4426  -31.6573   25.0660 C   0  0  0  0  0  0
  -25.3729  -31.3672   26.1448 C   0  0  0  0  0  0
  -27.0274  -30.3061   24.5965 C   0  0  0  0  0  0
  -27.5982  -32.4311   25.7515 C   0  0  0  0  0  0
  -27.5546  -37.1813   24.8472 C   0  0  0  0  0  0
  -21.4163  -29.2956   22.3666 N   0  0  0  0  0  0
  -26.4253  -37.3786   23.9393 N   0  0  0  0  0  0
  -24.6671  -31.0649   22.0905 N   0  0  0  0  0  0
  -23.4216  -28.8209   23.3149 O   0  0  0  0  0  0
  -28.4261  -26.7131   19.9847 O   0  0  0  0  0  0
  -26.5581  -34.8914   22.4634 O   0  0  0  0  0  0
  -23.5448  -32.1375   23.7433 O   0  0  0  0  0  0
  -27.5236  -17.2729   23.5117 C   0  0  0  0  0  0
  -26.6819  -19.2002   22.4081 C   0  0  2  0  0  0
  -28.8010  -17.2306   22.6010 C   0  0  1  0  0  0
  -28.0586  -19.6109   21.7711 C   0  0  2  0  0  0
  -24.3226  -20.2075   22.2564 C   0  0  0  0  0  0
  -25.7662  -20.4131   22.7227 C   0  0  0  0  0  0
  -27.9607  -20.3802   20.3929 C   0  0  0  0  0  0
  -28.8940  -15.8055   21.9041 C   0  0  0  0  0  0
  -28.9359  -21.6033   20.1922 C   0  0  0  0  0  0
  -28.9345  -24.1801   19.9568 C   0  0  0  0  0  0
  -28.3901  -25.4507   20.6919 C   0  0  0  0  0  0
  -26.9599  -18.6027   23.7104 N   0  0  0  0  0  0
  -29.9776  -15.5603   20.9462 N   0  0  0  0  0  0
  -29.0869  -18.5077   21.8395 N   0  3  0  0  0  0
  -28.4293  -22.9436   20.6545 N   0  3  0  0  0  0
  -31.4588  -12.4749   19.0354 H   0  0  0  0  0  0
  -30.4214  -11.2794   19.7468 H   0  0  0  0  0  0
  -29.6850  -11.7326   17.4058 H   0  0  0  0  0  0
  -29.6236  -13.4466   17.7219 H   0  0  0  0  0  0
  -27.7892  -11.2850   18.7906 H   0  0  0  0  0  0
  -27.3294  -12.6430   17.7903 H   0  0  0  0  0  0
  -27.7439  -14.2256   19.6106 H   0  0  0  0  0  0
  -28.7300  -11.7650   21.1027 H   0  0  0  0  0  0
  -28.4970  -13.2373   21.9436 H   0  0  0  0  0  0
  -25.2760   -9.5683   22.4753 H   0  0  0  0  0  0
  -23.9938   -7.4715   22.7603 H   0  0  0  0  0  0
  -21.0817   -8.8802   19.9072 H   0  0  0  0  0  0
  -22.3735  -10.9619   19.6146 H   0  0  0  0  0  0
  -21.2152   -7.6216   23.9660 H   0  0  0  0  0  0
  -21.1304   -6.0591   25.8980 H   0  0  0  0  0  0
  -22.0715   -2.7684   23.2789 H   0  0  0  0  0  0
  -22.4059  -11.9942   22.4890 H   0  0  0  0  0  0
  -21.1147  -13.1397   22.2545 H   0  0  0  0  0  0
  -24.5903  -15.7705   20.4687 H   0  0  0  0  0  0
  -26.1695  -15.6074   19.8832 H   0  0  0  0  0  0
  -26.7060  -32.5492   23.1133 H   0  0  0  0  0  0
  -25.0026  -33.9754   25.0423 H   0  0  0  0  0  0
  -22.6897  -31.2928   21.4070 H   0  0  0  0  0  0
  -23.3698  -35.9666   23.3319 H   0  0  0  0  0  0
  -24.3559  -36.8911   22.2037 H   0  0  0  0  0  0
  -23.7261  -37.6540   23.6651 H   0  0  0  0  0  0
  -26.0285  -31.5865   20.5664 H   0  0  0  0  0  0
  -26.8244  -30.8900   21.9615 H   0  0  0  0  0  0
  -28.1133  -29.1200   21.1072 H   0  0  0  0  0  0
  -26.0639  -25.9410   19.0401 H   0  0  0  0  0  0
  -23.9582  -27.2272   19.1205 H   0  0  0  0  0  0
  -23.7073  -30.5577   19.4027 H   0  0  0  0  0  0
  -22.7331  -29.2058   19.8909 H   0  0  0  0  0  0
  -25.1255  -36.1913   25.0868 H   0  0  0  0  0  0
  -20.9842  -28.3298   24.1435 H   0  0  0  0  0  0
  -21.6858  -26.7174   22.1597 H   0  0  0  0  0  0
  -20.5377  -26.2263   23.3565 H   0  0  0  0  0  0
  -19.7343  -25.6877   21.0441 H   0  0  0  0  0  0
  -19.6875  -27.4091   20.6880 H   0  0  0  0  0  0
  -18.0589  -25.9860   22.8521 H   0  0  0  0  0  0
  -17.4425  -26.6592   21.3722 H   0  0  0  0  0  0
  -19.8077  -30.7686   24.1112 H   0  0  0  0  0  0
  -17.5024  -31.6604   24.4254 H   0  0  0  0  0  0
  -15.5442  -30.2672   23.7882 H   0  0  0  0  0  0
  -15.8682  -28.0477   22.7576 H   0  0  0  0  0  0
  -24.5890  -30.7013   25.7816 H   0  0  0  0  0  0
  -24.8946  -32.2851   26.4939 H   0  0  0  0  0  0
  -25.8141  -30.8824   27.0184 H   0  0  0  0  0  0
  -26.2781  -29.6860   24.1040 H   0  0  0  0  0  0
  -27.4123  -29.7240   25.4348 H   0  0  0  0  0  0
  -27.8560  -30.4442   23.9006 H   0  0  0  0  0  0
  -27.2508  -33.3616   26.2084 H   0  0  0  0  0  0
  -28.3851  -32.6916   25.0387 H   0  0  0  0  0  0
  -28.0562  -31.8407   26.5509 H   0  0  0  0  0  0
  -28.2594  -38.0091   24.7450 H   0  0  0  0  0  0
  -28.1008  -36.2609   24.6346 H   0  0  0  0  0  0
  -27.2248  -37.1504   25.8883 H   0  0  0  0  0  0
  -20.9354  -29.8538   21.6666 H   0  0  0  0  0  0
  -26.0124  -38.2841   24.1424 H   0  0  0  0  0  0
  -27.7918  -16.8581   24.4898 H   0  0  0  0  0  0
  -26.7209  -16.6242   23.1593 H   0  0  0  0  0  0
  -26.1244  -18.4814   21.7960 H   0  0  0  0  0  0
  -29.6341  -17.1967   23.2976 H   0  0  0  0  0  0
  -28.4280  -20.3715   22.4555 H   0  0  0  0  0  0
  -23.8717  -19.3472   22.7541 H   0  0  0  0  0  0
  -24.2928  -20.0269   21.1813 H   0  0  0  0  0  0
  -23.7056  -21.0914   22.4545 H   0  0  0  0  0  0
  -26.1488  -21.3210   22.2649 H   0  0  0  0  0  0
  -25.7530  -20.6612   23.7881 H   0  0  0  0  0  0
  -26.9469  -20.7326   20.2044 H   0  0  0  0  0  0
  -28.1211  -19.6793   19.5719 H   0  0  0  0  0  0
  -29.0503  -15.1103   22.7287 H   0  0  0  0  0  0
  -27.9425  -15.5031   21.4812 H   0  0  0  0  0  0
  -29.2330  -21.6676   19.1424 H   0  0  0  0  0  0
  -29.8426  -21.3993   20.7558 H   0  0  0  0  0  0
  -28.6370  -24.1832   18.9026 H   0  0  0  0  0  0
  -30.0325  -24.2082   19.9484 H   0  0  0  0  0  0
  -28.9610  -25.5790   21.6158 H   0  0  0  0  0  0
  -27.3724  -25.2133   21.0263 H   0  0  0  0  0  0
  -26.1004  -18.5149   24.2550 H   0  0  0  0  0  0
  -30.5053  -16.3828   20.7175 H   0  0  0  0  0  0
  -29.6449  -18.4001   21.0102 H   0  0  0  0  0  0
  -29.7673  -18.9559   22.4563 H   0  0  0  0  0  0
  -28.6950  -23.0754   21.6254 H   0  0  0  0  0  0
  -27.4204  -22.9809   20.5826 H   0  0  0  0  0  0
  1 25  1  0  0  0
  1 30  2  0  0  0
  1 83  1  0  0  0
  2  3  1  0  0  0
  2 25  1  0  0  0
  2 86  1  0  0  0
  2 87  1  0  0  0
  3  4  1  0  0  0
  3 88  1  0  0  0
  3 89  1  0  0  0
  4  5  1  0  0  0
  4 90  1  0  0  0
  4 91  1  0  0  0
  5  6  1  0  0  0
  5 26  1  0  0  0
  5 92  1  0  0  0
  6 25  1  0  0  0
  6 93  1  0  0  0
  6 94  1  0  0  0
  7  8  2  0  0  0
  7 26  1  0  0  0
  7 29  1  0  0  0
  8  9  1  0  0  0
  8 22  1  0  0  0
  9 10  1  0  0  0
  9 27  2  0  0  0
 10 11  2  0  0  0
 10 15  1  0  0  0
 11 12  1  0  0  0
 11 95  1  0  0  0
 12 13  2  0  0  0
 12 96  1  0  0  0
 13 14  1  0  0  0
 13 31  1  0  0  0
 14 15  2  0  0  0
 14 97  1  0  0  0
 15 98  1  0  0  0
 16 17  2  0  0  0
 16 21  1  0  0  0
 16 31  1  0  0  0
 17 18  1  0  0  0
 17 99  1  0  0  0
 18 19  2  0  0  0
 18100  1  0  0  0
 19 20  1  0  0  0
 19 24  1  0  0  0
 20 21  2  0  0  0
 20101  1  0  0  0
 21 23  1  0  0  0
 22 28  1  0  0  0
 22 32  2  0  0  0
 26 27  1  0  0  0
 28102  1  0  0  0
 28103  1  0  0  0
 29104  1  0  0  0
 29105  1  0  0  0
 33 34  1  0  0  0
 33 66  1  0  0  0
 33 70  2  0  0  0
 34 36  1  0  0  0
 34 59  1  0  0  0
 34106  1  0  0  0
 35 44  2  0  0  0
 35 45  1  0  0  0
 35 68  1  0  0  0
 36 56  1  0  0  0
 36107  1  0  0  0
 37 39  1  0  0  0
 37 47  1  0  0  0
 37 66  1  0  0  0
 37108  1  0  0  0
 38 43  2  0  0  0
 38 46  1  0  0  0
 38 47  1  0  0  0
 39 64  1  0  0  0
 39 67  2  0  0  0
 40 52  1  0  0  0
 40 53  2  0  0  0
 40 58  1  0  0  0
 41109  1  0  0  0
 41110  1  0  0  0
 41111  1  0  0  0
 41 48  1  0  0  0
 42 43  1  0  0  0
 42 66  1  0  0  0
 42112  1  0  0  0
 42113  1  0  0  0
 43 44  1  0  0  0
 44114  1  0  0  0
 45 46  2  0  0  0
 45115  1  0  0  0
 46116  1  0  0  0
 47117  1  0  0  0
 47118  1  0  0  0
 48 56  1  0  0  0
 48 65  1  0  0  0
 48119  1  0  0  0
 49 50  1  0  0  0
 49 53  1  0  0  0
 49 64  1  0  0  0
 49120  1  0  0  0
 50 51  1  0  0  0
 50121  1  0  0  0
 50122  1  0  0  0
 51 52  1  0  0  0
 51123  1  0  0  0
 51124  1  0  0  0
 52125  1  0  0  0
 52126  1  0  0  0
 53 54  1  0  0  0
 54 55  2  0  0  0
 54127  1  0  0  0
 55 57  1  0  0  0
 55128  1  0  0  0
 56 69  2  0  0  0
 57 58  2  0  0  0
 57129  1  0  0  0
 58130  1  0  0  0
 59 60  1  0  0  0
 59 61  1  0  0  0
 59 62  1  0  0  0
 60131  1  0  0  0
 60132  1  0  0  0
 60133  1  0  0  0
 61134  1  0  0  0
 61135  1  0  0  0
 61136  1  0  0  0
 62137  1  0  0  0
 62138  1  0  0  0
 62139  1  0  0  0
 63 65  1  0  0  0
 63140  1  0  0  0
 63141  1  0  0  0
 63142  1  0  0  0
 64143  1  0  0  0
 65144  1  0  0  0
 68 81  1  0  0  0
 71 73  1  0  0  0
 71 82  1  0  0  0
 71145  1  0  0  0
 71146  1  0  0  0
 72 74  1  0  0  0
 72 76  1  0  0  0
 72 82  1  0  0  0
 72147  1  0  0  0
 73 78  1  0  0  0
 73 84  1  0  0  0
 73148  1  0  0  0
 74 77  1  0  0  0
 74 84  1  0  0  0
 74149  1  0  0  0
 75 76  1  0  0  0
 75150  1  0  0  0
 75151  1  0  0  0
 75152  1  0  0  0
 76153  1  0  0  0
 76154  1  0  0  0
 77 79  1  0  0  0
 77155  1  0  0  0
 77156  1  0  0  0
 78 83  1  0  0  0
 78157  1  0  0  0
 78158  1  0  0  0
 79 85  1  0  0  0
 79159  1  0  0  0
 79160  1  0  0  0
 80 81  1  0  0  0
 80 85  1  0  0  0
 80161  1  0  0  0
 80162  1  0  0  0
 81163  1  0  0  0
 81164  1  0  0  0
 82165  1  0  0  0
 83166  1  0  0  0
 84167  1  0  0  0
 84168  1  0  0  0
 85169  1  0  0  0
 85170  1  0  0  0
M  CHG  2  84   1  85   1
M  ISO  4   1 100  68 101  81 101  83 100
M  END
> <chiral flag>
0

> <version>
0

> <s_m_source_file>
/data/baiqing/PycharmProjects/Reinvent-master-3.2/result/LINK_invent/BTK/process_docking_weight1_custom_sum_contain_oxygen_bond_distance_aromatic_linkinvent_7_9_3/rearranged_h_0125.sdf

> <i_m_source_file_index>
54

> <r_mmod_Potential_Energy-OPLS-2005>
-99.9012603759766

> <r_mmod_Stretch_Energy-OPLS-2005>
59.7821769714355

> <r_mmod_Bend_Energy-OPLS-2005>
195.877899169922

> <r_mmod_Torsional_Energy-OPLS-2005>
385.979187011719

> <r_mmod_Improper_Torsional_Energy-OPLS-2005>
12.2161197662354

> <r_mmod_Van_der_Waal_Energy-OPLS-2005>
137.698883056641

> <r_mmod_Electrostatic_Energy-OPLS-2005>
80.6771621704102

> <r_mmod_Solvation_Energy-OPLS-2005>
-987.527893066406

> <b_mmod_Minimization_Converged-OPLS-2005>
0

> <r_mmod_RMS_Derivative-OPLS-2005>
19.6187744140625

$$$$
55
                    3D
 Structure written by MMmdl.
153161  0  0  1  0            999 V2000
  -30.5387  -14.8524   20.4516 C   0  0  0  0  0  0
  -30.4504  -12.5224   19.4890 C   0  0  0  0  0  0
  -29.5232  -12.5300   18.2501 C   0  0  0  0  0  0
  -28.0508  -12.3315   18.6614 C   0  0  0  0  0  0
  -27.6438  -13.2352   19.8548 C   0  0  2  0  0  0
  -28.6873  -13.1816   20.9929 C   0  0  0  0  0  0
  -25.2513  -13.8193   20.5690 C   0  0  0  0  0  0
  -24.1808  -13.0438   20.9212 C   0  0  0  0  0  0
  -24.6405  -11.6918   20.8749 C   0  0  0  0  0  0
  -23.9077  -10.4294   21.0409 C   0  0  0  0  0  0
  -24.3625   -9.4206   21.9186 C   0  0  0  0  0  0
  -23.6296   -8.2243   22.0755 C   0  0  0  0  0  0
  -22.4276   -8.0284   21.3547 C   0  0  0  0  0  0
  -21.9915   -9.0260   20.4649 C   0  0  0  0  0  0
  -22.7248  -10.2136   20.3058 C   0  0  0  0  0  0
  -21.6852   -6.0737   22.5279 C   0  0  0  0  0  0
  -21.4015   -6.5640   23.8213 C   0  0  0  0  0  0
  -21.3660   -5.6793   24.9174 C   0  0  0  0  0  0
  -21.6043   -4.3055   24.7225 C   0  0  0  0  0  0
  -21.8818   -3.8148   23.4346 C   0  0  0  0  0  0
  -21.9192   -4.6965   22.3402 C   0  0  0  0  0  0
  -22.7829  -13.5220   21.1868 C   0  0  0  0  0  0
  -22.1661   -4.2151   21.0979 F   0  0  0  0  0  0
  -21.5629   -3.4538   25.7738 F   0  0  0  0  0  0
  -29.9812  -13.5823   20.4194 N   0  0  0  0  0  0
  -26.2949  -12.9407   20.3289 N   0  0  0  0  0  0
  -25.9339  -11.6546   20.5754 N   0  0  0  0  0  0
  -22.0472  -12.8214   22.0425 N   0  0  0  0  0  0
  -25.4188  -15.1913   20.4075 N   0  0  0  0  0  0
  -31.7082  -14.9993   20.0793 O   0  0  0  0  0  0
  -21.6640   -6.8880   21.4241 O   0  0  0  0  0  0
  -22.3511  -14.5524   20.6710 O   0  0  0  0  0  0
  -24.6386  -31.8486   23.1926 C   0  0  0  0  0  0
  -25.9178  -32.4720   23.8298 C   0  0  1  0  0  0
  -27.2211  -27.1867   20.1389 C   0  0  0  0  0  0
  -25.5940  -33.8524   24.2216 N   0  0  0  0  0  0
  -23.4399  -30.4695   21.5372 C   0  0  2  0  0  0
  -24.8897  -28.9070   20.1076 C   0  0  0  0  0  0
  -22.7543  -29.4569   22.4877 C   0  0  0  0  0  0
  -18.0301  -28.1395   22.8484 C   0  0  0  0  0  0
  -24.1489  -36.7269   23.2642 C   0  0  0  0  0  0
  -25.9923  -30.7375   21.3851 C   0  0  0  0  0  0
  -26.0641  -29.3535   20.7263 C   0  0  0  0  0  0
  -27.2298  -28.5073   20.7299 C   0  0  0  0  0  0
  -26.0237  -26.8360   19.4738 C   0  0  0  0  0  0
  -24.8796  -27.6594   19.4676 C   0  0  0  0  0  0
  -23.6633  -29.8022   20.1544 C   0  0  0  0  0  0
  -25.4118  -36.3048   24.0321 C   0  0  1  0  0  0
  -20.5911  -28.3714   23.1249 C   0  0  2  0  0  0
  -20.6785  -26.9421   22.5408 C   0  0  0  0  0  0
  -19.5757  -26.6383   21.5216 C   0  0  0  0  0  0
  -18.1939  -26.7935   22.1628 C   0  0  0  0  0  0
  -19.1557  -28.8871   23.2860 C   0  0  0  0  0  0
  -18.9474  -30.1469   23.8884 C   0  0  0  0  0  0
  -17.6472  -30.6592   24.0561 C   0  0  0  0  0  0
  -25.9065  -34.9422   23.5076 C   0  0  0  0  0  0
  -16.5363  -29.9088   23.6333 C   0  0  0  0  0  0
  -16.7286  -28.6506   23.0356 C   0  0  0  0  0  0
  -26.4513  -31.6572   25.0721 C   0  0  0  0  0  0
  -25.3709  -31.3752   26.1424 C   0  0  0  0  0  0
  -27.0374  -30.2976   24.6271 C   0  0  0  0  0  0
  -27.6047  -32.4333   25.7505 C   0  0  0  0  0  0
  -27.5575  -37.1790   24.8465 C   0  0  0  0  0  0
  -21.4239  -29.3048   22.3626 N   0  0  0  0  0  0
  -26.4285  -37.3756   23.9410 N   0  0  0  0  0  0
  -24.7097  -31.0384   22.0939 N   0  0  0  0  0  0
  -23.4207  -28.8110   23.3006 O   0  0  0  0  0  0
  -28.2852  -26.2288   20.2242 O   0  0  0  0  0  0
  -26.5651  -34.8909   22.4654 O   0  0  0  0  0  0
  -23.5515  -32.1344   23.7172 O   0  0  0  0  0  0
  -30.0757  -19.6749   19.5165 C   0  0  0  0  0  0
  -30.3369  -18.2551   19.6942 C   0  0  0  0  0  0
  -28.4874  -19.6188   21.2664 C   0  0  0  0  0  0
  -29.1185  -20.4311   20.2768 C   0  0  0  0  0  0
  -28.7307  -18.2025   21.4448 C   0  0  0  0  0  0
  -29.6499  -17.4351   20.6481 C   0  0  0  0  0  0
  -27.9276  -17.4855   22.5175 C   0  0  0  0  0  0
  -28.5534  -21.9089   19.8577 C   0  0  0  0  0  0
  -28.9370  -23.4207   20.4174 C   0  0  0  0  0  0
  -28.0332  -24.7371   19.9466 C   0  0  0  0  0  0
  -29.7038  -15.9254   20.7988 N   0  0  0  0  0  0
  -31.4861  -12.6798   19.1833 H   0  0  0  0  0  0
  -30.4311  -11.5485   19.9804 H   0  0  0  0  0  0
  -29.8238  -11.7512   17.5481 H   0  0  0  0  0  0
  -29.6296  -13.4775   17.7192 H   0  0  0  0  0  0
  -27.9236  -11.2835   18.9349 H   0  0  0  0  0  0
  -27.3916  -12.5053   17.8103 H   0  0  0  0  0  0
  -27.6325  -14.2544   19.4677 H   0  0  0  0  0  0
  -28.7476  -12.1783   21.4173 H   0  0  0  0  0  0
  -28.3988  -13.8383   21.8149 H   0  0  0  0  0  0
  -25.2770   -9.5682   22.4760 H   0  0  0  0  0  0
  -24.0005   -7.4633   22.7473 H   0  0  0  0  0  0
  -21.0846   -8.8782   19.8953 H   0  0  0  0  0  0
  -22.3709  -10.9678   19.6168 H   0  0  0  0  0  0
  -21.2008   -7.6149   23.9717 H   0  0  0  0  0  0
  -21.1482   -6.0522   25.9077 H   0  0  0  0  0  0
  -22.0597   -2.7610   23.2844 H   0  0  0  0  0  0
  -22.4089  -11.9882   22.4823 H   0  0  0  0  0  0
  -21.1090  -13.1240   22.2626 H   0  0  0  0  0  0
  -24.6434  -15.8379   20.5026 H   0  0  0  0  0  0
  -26.2526  -15.6278   20.0359 H   0  0  0  0  0  0
  -26.7244  -32.5344   23.1030 H   0  0  0  0  0  0
  -25.0056  -33.9646   25.0341 H   0  0  0  0  0  0
  -22.7400  -31.2942   21.3868 H   0  0  0  0  0  0
  -23.3753  -35.9598   23.3295 H   0  0  0  0  0  0
  -24.3577  -36.8908   22.2059 H   0  0  0  0  0  0
  -23.7239  -37.6462   23.6681 H   0  0  0  0  0  0
  -26.1415  -31.4940   20.6134 H   0  0  0  0  0  0
  -26.8655  -30.7875   22.0239 H   0  0  0  0  0  0
  -28.1224  -28.8418   21.2398 H   0  0  0  0  0  0
  -25.9347  -25.8875   18.9662 H   0  0  0  0  0  0
  -23.9847  -27.3145   18.9681 H   0  0  0  0  0  0
  -23.7939  -30.5786   19.3997 H   0  0  0  0  0  0
  -22.7796  -29.2407   19.8455 H   0  0  0  0  0  0
  -25.1302  -36.1884   25.0812 H   0  0  0  0  0  0
  -21.0007  -28.3301   24.1369 H   0  0  0  0  0  0
  -20.5685  -26.2325   23.3622 H   0  0  0  0  0  0
  -21.6650  -26.7433   22.1201 H   0  0  0  0  0  0
  -19.6916  -25.6290   21.1254 H   0  0  0  0  0  0
  -19.6692  -27.3185   20.6739 H   0  0  0  0  0  0
  -17.4207  -26.6681   21.4034 H   0  0  0  0  0  0
  -18.0339  -26.0083   22.9031 H   0  0  0  0  0  0
  -19.7949  -30.7289   24.2248 H   0  0  0  0  0  0
  -17.5025  -31.6272   24.5165 H   0  0  0  0  0  0
  -15.5363  -30.2986   23.7662 H   0  0  0  0  0  0
  -15.8687  -28.0818   22.7080 H   0  0  0  0  0  0
  -24.5887  -30.7100   25.7747 H   0  0  0  0  0  0
  -24.8897  -32.2932   26.4807 H   0  0  0  0  0  0
  -25.8000  -30.8953   27.0228 H   0  0  0  0  0  0
  -26.2983  -29.6709   24.1267 H   0  0  0  0  0  0
  -27.3993  -29.7261   25.4828 H   0  0  0  0  0  0
  -27.8886  -30.4227   23.9576 H   0  0  0  0  0  0
  -27.2638  -33.3643   26.2044 H   0  0  0  0  0  0
  -28.3876  -32.6879   25.0349 H   0  0  0  0  0  0
  -28.0693  -31.8486   26.5454 H   0  0  0  0  0  0
  -28.2585  -38.0094   24.7511 H   0  0  0  0  0  0
  -28.1078  -36.2623   24.6289 H   0  0  0  0  0  0
  -27.2295  -37.1434   25.8869 H   0  0  0  0  0  0
  -20.9440  -29.8769   21.6818 H   0  0  0  0  0  0
  -26.0157  -38.2825   24.1416 H   0  0  0  0  0  0
  -30.5895  -20.1781   18.7089 H   0  0  0  0  0  0
  -31.0445  -17.7830   19.0271 H   0  0  0  0  0  0
  -27.7239  -20.0856   21.8738 H   0  0  0  0  0  0
  -27.3602  -18.1851   23.1318 H   0  0  0  0  0  0
  -28.5874  -16.9258   23.1815 H   0  0  0  0  0  0
  -27.2198  -16.7896   22.0673 H   0  0  0  0  0  0
  -27.4743  -21.8236   19.9902 H   0  0  0  0  0  0
  -28.6746  -21.9565   18.7749 H   0  0  0  0  0  0
  -29.9779  -23.6140   20.1579 H   0  0  0  0  0  0
  -28.9128  -23.3874   21.5066 H   0  0  0  0  0  0
  -27.0360  -24.5190   20.3295 H   0  0  0  0  0  0
  -27.9456  -24.6657   18.8620 H   0  0  0  0  0  0
  -28.8606  -15.5637   21.2163 H   0  0  0  0  0  0
  1 25  1  0  0  0
  1 30  2  0  0  0
  1 81  1  0  0  0
  2  3  1  0  0  0
  2 25  1  0  0  0
  2 82  1  0  0  0
  2 83  1  0  0  0
  3  4  1  0  0  0
  3 84  1  0  0  0
  3 85  1  0  0  0
  4  5  1  0  0  0
  4 86  1  0  0  0
  4 87  1  0  0  0
  5  6  1  0  0  0
  5 26  1  0  0  0
  5 88  1  0  0  0
  6 25  1  0  0  0
  6 89  1  0  0  0
  6 90  1  0  0  0
  7  8  2  0  0  0
  7 26  1  0  0  0
  7 29  1  0  0  0
  8  9  1  0  0  0
  8 22  1  0  0  0
  9 10  1  0  0  0
  9 27  2  0  0  0
 10 11  2  0  0  0
 10 15  1  0  0  0
 11 12  1  0  0  0
 11 91  1  0  0  0
 12 13  2  0  0  0
 12 92  1  0  0  0
 13 14  1  0  0  0
 13 31  1  0  0  0
 14 15  2  0  0  0
 14 93  1  0  0  0
 15 94  1  0  0  0
 16 17  2  0  0  0
 16 21  1  0  0  0
 16 31  1  0  0  0
 17 18  1  0  0  0
 17 95  1  0  0  0
 18 19  2  0  0  0
 18 96  1  0  0  0
 19 20  1  0  0  0
 19 24  1  0  0  0
 20 21  2  0  0  0
 20 97  1  0  0  0
 21 23  1  0  0  0
 22 28  1  0  0  0
 22 32  2  0  0  0
 26 27  1  0  0  0
 28 98  1  0  0  0
 28 99  1  0  0  0
 29100  1  0  0  0
 29101  1  0  0  0
 33 34  1  0  0  0
 33 66  1  0  0  0
 33 70  2  0  0  0
 34 36  1  0  0  0
 34 59  1  0  0  0
 34102  1  0  0  0
 35 44  2  0  0  0
 35 45  1  0  0  0
 35 68  1  0  0  0
 36 56  1  0  0  0
 36103  1  0  0  0
 37 39  1  0  0  0
 37 47  1  0  0  0
 37 66  1  0  0  0
 37104  1  0  0  0
 38 43  2  0  0  0
 38 46  1  0  0  0
 38 47  1  0  0  0
 39 64  1  0  0  0
 39 67  2  0  0  0
 40 52  1  0  0  0
 40 53  2  0  0  0
 40 58  1  0  0  0
 41105  1  0  0  0
 41106  1  0  0  0
 41107  1  0  0  0
 41 48  1  0  0  0
 42 43  1  0  0  0
 42 66  1  0  0  0
 42108  1  0  0  0
 42109  1  0  0  0
 43 44  1  0  0  0
 44110  1  0  0  0
 45 46  2  0  0  0
 45111  1  0  0  0
 46112  1  0  0  0
 47113  1  0  0  0
 47114  1  0  0  0
 48 56  1  0  0  0
 48 65  1  0  0  0
 48115  1  0  0  0
 49 50  1  0  0  0
 49 53  1  0  0  0
 49 64  1  0  0  0
 49116  1  0  0  0
 50 51  1  0  0  0
 50117  1  0  0  0
 50118  1  0  0  0
 51 52  1  0  0  0
 51119  1  0  0  0
 51120  1  0  0  0
 52121  1  0  0  0
 52122  1  0  0  0
 53 54  1  0  0  0
 54 55  2  0  0  0
 54123  1  0  0  0
 55 57  1  0  0  0
 55124  1  0  0  0
 56 69  2  0  0  0
 57 58  2  0  0  0
 57125  1  0  0  0
 58126  1  0  0  0
 59 60  1  0  0  0
 59 61  1  0  0  0
 59 62  1  0  0  0
 60127  1  0  0  0
 60128  1  0  0  0
 60129  1  0  0  0
 61130  1  0  0  0
 61131  1  0  0  0
 61132  1  0  0  0
 62133  1  0  0  0
 62134  1  0  0  0
 62135  1  0  0  0
 63 65  1  0  0  0
 63136  1  0  0  0
 63137  1  0  0  0
 63138  1  0  0  0
 64139  1  0  0  0
 65140  1  0  0  0
 68 80  1  0  0  0
 71 72  2  0  0  0
 71 74  1  0  0  0
 71141  1  0  0  0
 72 76  1  0  0  0
 72142  1  0  0  0
 73 74  2  0  0  0
 73 75  1  0  0  0
 73143  1  0  0  0
 74 78  1  0  0  0
 75 76  2  0  0  0
 75 77  1  0  0  0
 76 81  1  0  0  0
 77144  1  0  0  0
 77145  1  0  0  0
 77146  1  0  0  0
 78 79  1  0  0  0
 78147  1  0  0  0
 78148  1  0  0  0
 79 80  1  0  0  0
 79149  1  0  0  0
 79150  1  0  0  0
 80151  1  0  0  0
 80152  1  0  0  0
 81153  1  0  0  0
M  ISO  4   1 100  68 101  80 101  81 100
M  END
> <chiral flag>
0

> <version>
0

> <s_m_source_file>
/data/baiqing/PycharmProjects/Reinvent-master-3.2/result/LINK_invent/BTK/process_docking_weight1_custom_sum_contain_oxygen_bond_distance_aromatic_linkinvent_7_9_3/rearranged_h_0125.sdf

> <i_m_source_file_index>
55

> <r_mmod_Potential_Energy-OPLS-2005>
327.791748046875

> <r_mmod_Stretch_Energy-OPLS-2005>
185.424407958984

> <r_mmod_Bend_Energy-OPLS-2005>
234.805435180664

> <r_mmod_Torsional_Energy-OPLS-2005>
221.717864990234

> <r_mmod_Improper_Torsional_Energy-OPLS-2005>
5.95729446411133

> <r_mmod_Van_der_Waal_Energy-OPLS-2005>
133.010223388672

> <r_mmod_Electrostatic_Energy-OPLS-2005>
-388.649108886719

> <r_mmod_Solvation_Energy-OPLS-2005>
-205.101867675781

> <b_mmod_Minimization_Converged-OPLS-2005>
0

> <r_mmod_RMS_Derivative-OPLS-2005>
0.394445061683655

$$$$
56
                    3D
 Structure written by MMmdl.
156164  0  0  1  0            999 V2000
  -30.5699  -14.8287   20.4274 C   0  0  0  0  0  0
  -30.4356  -12.5065   19.4823 C   0  0  0  0  0  0
  -29.5139  -12.5186   18.2407 C   0  0  0  0  0  0
  -28.0418  -12.3296   18.6540 C   0  0  0  0  0  0
  -27.6367  -13.2378   19.8459 C   0  0  2  0  0  0
  -28.6810  -13.2061   20.9831 C   0  0  0  0  0  0
  -25.2492  -13.8206   20.5699 C   0  0  0  0  0  0
  -24.1795  -13.0442   20.9218 C   0  0  0  0  0  0
  -24.6396  -11.6926   20.8751 C   0  0  0  0  0  0
  -23.9081  -10.4299   21.0405 C   0  0  0  0  0  0
  -24.3632   -9.4215   21.9180 C   0  0  0  0  0  0
  -23.6307   -8.2250   22.0752 C   0  0  0  0  0  0
  -22.4286   -8.0286   21.3552 C   0  0  0  0  0  0
  -21.9920   -9.0256   20.4647 C   0  0  0  0  0  0
  -22.7248  -10.2137   20.3052 C   0  0  0  0  0  0
  -21.6858   -6.0745   22.5281 C   0  0  0  0  0  0
  -21.4011   -6.5645   23.8214 C   0  0  0  0  0  0
  -21.3658   -5.6795   24.9176 C   0  0  0  0  0  0
  -21.6048   -4.3058   24.7226 C   0  0  0  0  0  0
  -21.8821   -3.8154   23.4344 C   0  0  0  0  0  0
  -21.9190   -4.6973   22.3402 C   0  0  0  0  0  0
  -22.7816  -13.5220   21.1884 C   0  0  0  0  0  0
  -22.1665   -4.2155   21.0982 F   0  0  0  0  0  0
  -21.5629   -3.4544   25.7740 F   0  0  0  0  0  0
  -29.9732  -13.5814   20.3979 N   0  0  0  0  0  0
  -26.2913  -12.9416   20.3262 N   0  0  0  0  0  0
  -25.9322  -11.6561   20.5732 N   0  0  0  0  0  0
  -22.0472  -12.8190   22.0432 N   0  0  0  0  0  0
  -25.4172  -15.1936   20.4120 N   0  0  0  0  0  0
  -31.7579  -14.9284   20.1065 O   0  0  0  0  0  0
  -21.6649   -6.8884   21.4241 O   0  0  0  0  0  0
  -22.3499  -14.5533   20.6742 O   0  0  0  0  0  0
  -24.6362  -31.8495   23.1924 C   0  0  0  0  0  0
  -25.9162  -32.4718   23.8292 C   0  0  1  0  0  0
  -27.2236  -27.2045   20.1289 C   0  0  0  0  0  0
  -25.5930  -33.8524   24.2210 N   0  0  0  0  0  0
  -23.4360  -30.4712   21.5360 C   0  0  2  0  0  0
  -24.8840  -28.9065   20.1063 C   0  0  0  0  0  0
  -22.7522  -29.4581   22.4871 C   0  0  0  0  0  0
  -18.0298  -28.1399   22.8486 C   0  0  0  0  0  0
  -24.1493  -36.7270   23.2646 C   0  0  0  0  0  0
  -25.9870  -30.7435   21.3813 C   0  0  0  0  0  0
  -26.0565  -29.3615   20.7201 C   0  0  0  0  0  0
  -27.2226  -28.5222   20.7208 C   0  0  0  0  0  0
  -26.0202  -26.8256   19.4927 C   0  0  0  0  0  0
  -24.8735  -27.6488   19.4823 C   0  0  0  0  0  0
  -23.6576  -29.8014   20.1531 C   0  0  0  0  0  0
  -25.4124  -36.3049   24.0322 C   0  0  1  0  0  0
  -20.5906  -28.3724   23.1251 C   0  0  2  0  0  0
  -20.6787  -26.9430   22.5413 C   0  0  0  0  0  0
  -19.5766  -26.6387   21.5218 C   0  0  0  0  0  0
  -18.1944  -26.7940   22.1626 C   0  0  0  0  0  0
  -19.1552  -28.8880   23.2865 C   0  0  0  0  0  0
  -18.9467  -30.1476   23.8892 C   0  0  0  0  0  0
  -17.6464  -30.6599   24.0564 C   0  0  0  0  0  0
  -25.9066  -34.9418   23.5073 C   0  0  0  0  0  0
  -16.5356  -29.9097   23.6327 C   0  0  0  0  0  0
  -16.7282  -28.6513   23.0355 C   0  0  0  0  0  0
  -26.4512  -31.6566   25.0706 C   0  0  0  0  0  0
  -25.3707  -31.3734   26.1404 C   0  0  0  0  0  0
  -27.0373  -30.2972   24.6244 C   0  0  0  0  0  0
  -27.6053  -32.4325   25.7483 C   0  0  0  0  0  0
  -27.5578  -37.1795   24.8466 C   0  0  0  0  0  0
  -21.4221  -29.3052   22.3619 N   0  0  0  0  0  0
  -26.4296  -37.3753   23.9397 N   0  0  0  0  0  0
  -24.7058  -31.0409   22.0925 N   0  0  0  0  0  0
  -23.4197  -28.8126   23.2997 O   0  0  0  0  0  0
  -28.3199  -26.2954   20.2300 O   0  0  0  0  0  0
  -26.5656  -34.8911   22.4655 O   0  0  0  0  0  0
  -23.5495  -32.1344   23.7182 O   0  0  0  0  0  0
  -28.1652  -22.2759   19.0765 C   0  0  0  0  0  0
  -29.6059  -22.7776   20.9261 C   0  0  0  0  0  0
  -28.0894  -20.7427   19.5272 C   0  0  0  0  0  0
  -29.5299  -21.2309   21.3730 C   0  0  0  0  0  0
  -28.3624  -23.3927   20.1757 C   0  0  1  0  0  0
  -28.4266  -24.9337   19.5499 C   0  0  0  0  0  0
  -30.0354  -17.4590   20.1959 C   0  0  0  0  0  0
  -29.1217  -18.7028   20.7822 C   0  0  0  0  0  0
  -29.7753  -15.9724   20.5877 N   0  0  0  0  0  0
  -29.2677  -20.1954   20.2965 N   0  3  1  0  0  0
  -31.4728  -12.6460   19.1746 H   0  0  0  0  0  0
  -30.4015  -11.5359   19.9790 H   0  0  0  0  0  0
  -29.8080  -11.7359   17.5402 H   0  0  0  0  0  0
  -29.6253  -13.4639   17.7059 H   0  0  0  0  0  0
  -27.9087  -11.2815   18.9247 H   0  0  0  0  0  0
  -27.3838  -12.5090   17.8026 H   0  0  0  0  0  0
  -27.6180  -14.2533   19.4498 H   0  0  0  0  0  0
  -28.7357  -12.2167   21.4394 H   0  0  0  0  0  0
  -28.4020  -13.8974   21.7804 H   0  0  0  0  0  0
  -25.2778   -9.5691   22.4756 H   0  0  0  0  0  0
  -24.0021   -7.4639   22.7463 H   0  0  0  0  0  0
  -21.0857   -8.8777   19.8944 H   0  0  0  0  0  0
  -22.3708  -10.9682   19.6166 H   0  0  0  0  0  0
  -21.2004   -7.6152   23.9720 H   0  0  0  0  0  0
  -21.1478   -6.0526   25.9080 H   0  0  0  0  0  0
  -22.0598   -2.7616   23.2844 H   0  0  0  0  0  0
  -22.4111  -11.9837   22.4789 H   0  0  0  0  0  0
  -21.1088  -13.1188   22.2670 H   0  0  0  0  0  0
  -24.6436  -15.8409   20.5135 H   0  0  0  0  0  0
  -26.2503  -15.6289   20.0386 H   0  0  0  0  0  0
  -26.7225  -32.5346   23.1024 H   0  0  0  0  0  0
  -25.0028  -33.9642   25.0323 H   0  0  0  0  0  0
  -22.7361  -31.2962   21.3852 H   0  0  0  0  0  0
  -23.3755  -35.9601   23.3306 H   0  0  0  0  0  0
  -24.3579  -36.8902   22.2060 H   0  0  0  0  0  0
  -23.7247  -37.6469   23.6682 H   0  0  0  0  0  0
  -26.1367  -31.5044   20.6139 H   0  0  0  0  0  0
  -26.8605  -30.7891   22.0207 H   0  0  0  0  0  0
  -28.1175  -28.8640   21.2209 H   0  0  0  0  0  0
  -25.9172  -25.8550   19.0345 H   0  0  0  0  0  0
  -23.9717  -27.2916   19.0036 H   0  0  0  0  0  0
  -23.7867  -30.5780   19.3980 H   0  0  0  0  0  0
  -22.7741  -29.2393   19.8446 H   0  0  0  0  0  0
  -25.1314  -36.1891   25.0817 H   0  0  0  0  0  0
  -21.0008  -28.3322   24.1370 H   0  0  0  0  0  0
  -20.5679  -26.2338   23.3630 H   0  0  0  0  0  0
  -21.6657  -26.7442   22.1215 H   0  0  0  0  0  0
  -19.6927  -25.6293   21.1266 H   0  0  0  0  0  0
  -19.6707  -27.3187   20.6740 H   0  0  0  0  0  0
  -17.4212  -26.6687   21.4030 H   0  0  0  0  0  0
  -18.0343  -26.0087   22.9027 H   0  0  0  0  0  0
  -19.7941  -30.7295   24.2260 H   0  0  0  0  0  0
  -17.5016  -31.6276   24.5167 H   0  0  0  0  0  0
  -15.5358  -30.2992   23.7652 H   0  0  0  0  0  0
  -15.8685  -28.0824   22.7070 H   0  0  0  0  0  0
  -24.5897  -30.7074   25.7719 H   0  0  0  0  0  0
  -24.8879  -32.2901   26.4792 H   0  0  0  0  0  0
  -25.7992  -30.8929   27.0203 H   0  0  0  0  0  0
  -26.2971  -29.6693   24.1269 H   0  0  0  0  0  0
  -27.4027  -29.7273   25.4797 H   0  0  0  0  0  0
  -27.8862  -30.4233   23.9522 H   0  0  0  0  0  0
  -27.2659  -33.3642   26.2021 H   0  0  0  0  0  0
  -28.3879  -32.6854   25.0318 H   0  0  0  0  0  0
  -28.0700  -31.8471   26.5425 H   0  0  0  0  0  0
  -28.2598  -38.0091   24.7499 H   0  0  0  0  0  0
  -28.1074  -36.2614   24.6315 H   0  0  0  0  0  0
  -27.2288  -37.1468   25.8870 H   0  0  0  0  0  0
  -20.9413  -29.8762   21.6810 H   0  0  0  0  0  0
  -26.0169  -38.2829   24.1385 H   0  0  0  0  0  0
  -27.2559  -22.5043   18.5194 H   0  0  0  0  0  0
  -28.9702  -22.3698   18.3459 H   0  0  0  0  0  0
  -29.7932  -23.3780   21.8169 H   0  0  0  0  0  0
  -30.4905  -22.9113   20.3011 H   0  0  0  0  0  0
  -27.9423  -20.1212   18.6429 H   0  0  0  0  0  0
  -27.1921  -20.6115   20.1345 H   0  0  0  0  0  0
  -28.7469  -21.1365   22.1269 H   0  0  0  0  0  0
  -30.4590  -20.9626   21.8774 H   0  0  0  0  0  0
  -27.5029  -23.3510   20.8461 H   0  0  0  0  0  0
  -27.7572  -24.9437   18.6932 H   0  0  0  0  0  0
  -29.4019  -24.9868   19.0653 H   0  0  0  0  0  0
  -29.9606  -17.4956   19.1086 H   0  0  0  0  0  0
  -31.0823  -17.6743   20.4140 H   0  0  0  0  0  0
  -29.2704  -18.7078   21.8624 H   0  0  0  0  0  0
  -28.0750  -18.4256   20.6593 H   0  0  0  0  0  0
  -28.8247  -15.7686   20.8595 H   0  0  0  0  0  0
  -30.0647  -20.2173   19.6777 H   0  0  0  0  0  0
  1 25  1  0  0  0
  1 30  2  0  0  0
  1 79  1  0  0  0
  2  3  1  0  0  0
  2 25  1  0  0  0
  2 81  1  0  0  0
  2 82  1  0  0  0
  3  4  1  0  0  0
  3 83  1  0  0  0
  3 84  1  0  0  0
  4  5  1  0  0  0
  4 85  1  0  0  0
  4 86  1  0  0  0
  5  6  1  0  0  0
  5 26  1  0  0  0
  5 87  1  0  0  0
  6 25  1  0  0  0
  6 88  1  0  0  0
  6 89  1  0  0  0
  7  8  2  0  0  0
  7 26  1  0  0  0
  7 29  1  0  0  0
  8  9  1  0  0  0
  8 22  1  0  0  0
  9 10  1  0  0  0
  9 27  2  0  0  0
 10 11  2  0  0  0
 10 15  1  0  0  0
 11 12  1  0  0  0
 11 90  1  0  0  0
 12 13  2  0  0  0
 12 91  1  0  0  0
 13 14  1  0  0  0
 13 31  1  0  0  0
 14 15  2  0  0  0
 14 92  1  0  0  0
 15 93  1  0  0  0
 16 17  2  0  0  0
 16 21  1  0  0  0
 16 31  1  0  0  0
 17 18  1  0  0  0
 17 94  1  0  0  0
 18 19  2  0  0  0
 18 95  1  0  0  0
 19 20  1  0  0  0
 19 24  1  0  0  0
 20 21  2  0  0  0
 20 96  1  0  0  0
 21 23  1  0  0  0
 22 28  1  0  0  0
 22 32  2  0  0  0
 26 27  1  0  0  0
 28 97  1  0  0  0
 28 98  1  0  0  0
 29 99  1  0  0  0
 29100  1  0  0  0
 33 34  1  0  0  0
 33 66  1  0  0  0
 33 70  2  0  0  0
 34 36  1  0  0  0
 34 59  1  0  0  0
 34101  1  0  0  0
 35 44  2  0  0  0
 35 45  1  0  0  0
 35 68  1  0  0  0
 36 56  1  0  0  0
 36102  1  0  0  0
 37 39  1  0  0  0
 37 47  1  0  0  0
 37 66  1  0  0  0
 37103  1  0  0  0
 38 43  2  0  0  0
 38 46  1  0  0  0
 38 47  1  0  0  0
 39 64  1  0  0  0
 39 67  2  0  0  0
 40 52  1  0  0  0
 40 53  2  0  0  0
 40 58  1  0  0  0
 41104  1  0  0  0
 41105  1  0  0  0
 41106  1  0  0  0
 41 48  1  0  0  0
 42 43  1  0  0  0
 42 66  1  0  0  0
 42107  1  0  0  0
 42108  1  0  0  0
 43 44  1  0  0  0
 44109  1  0  0  0
 45 46  2  0  0  0
 45110  1  0  0  0
 46111  1  0  0  0
 47112  1  0  0  0
 47113  1  0  0  0
 48 56  1  0  0  0
 48 65  1  0  0  0
 48114  1  0  0  0
 49 50  1  0  0  0
 49 53  1  0  0  0
 49 64  1  0  0  0
 49115  1  0  0  0
 50 51  1  0  0  0
 50116  1  0  0  0
 50117  1  0  0  0
 51 52  1  0  0  0
 51118  1  0  0  0
 51119  1  0  0  0
 52120  1  0  0  0
 52121  1  0  0  0
 53 54  1  0  0  0
 54 55  2  0  0  0
 54122  1  0  0  0
 55 57  1  0  0  0
 55123  1  0  0  0
 56 69  2  0  0  0
 57 58  2  0  0  0
 57124  1  0  0  0
 58125  1  0  0  0
 59 60  1  0  0  0
 59 61  1  0  0  0
 59 62  1  0  0  0
 60126  1  0  0  0
 60127  1  0  0  0
 60128  1  0  0  0
 61129  1  0  0  0
 61130  1  0  0  0
 61131  1  0  0  0
 62132  1  0  0  0
 62133  1  0  0  0
 62134  1  0  0  0
 63 65  1  0  0  0
 63135  1  0  0  0
 63136  1  0  0  0
 63137  1  0  0  0
 64138  1  0  0  0
 65139  1  0  0  0
 68 76  1  0  0  0
 71 73  1  0  0  0
 71 75  1  0  0  0
 71140  1  0  0  0
 71141  1  0  0  0
 72 74  1  0  0  0
 72 75  1  0  0  0
 72142  1  0  0  0
 72143  1  0  0  0
 73 80  1  0  0  0
 73144  1  0  0  0
 73145  1  0  0  0
 74 80  1  0  0  0
 74146  1  0  0  0
 74147  1  0  0  0
 75 76  1  0  0  0
 75148  1  0  0  0
 76149  1  0  0  0
 76150  1  0  0  0
 77 78  1  0  0  0
 77 79  1  0  0  0
 77151  1  0  0  0
 77152  1  0  0  0
 78153  1  0  0  0
 78154  1  0  0  0
 78 80  1  0  0  0
 79155  1  0  0  0
 80156  1  0  0  0
M  CHG  1  80   1
M  ISO  4   1 100  68 101  76 101  79 100
M  END
> <chiral flag>
0

> <version>
0

> <s_m_source_file>
/data/baiqing/PycharmProjects/Reinvent-master-3.2/result/LINK_invent/BTK/process_docking_weight1_custom_sum_contain_oxygen_bond_distance_aromatic_linkinvent_7_9_3/rearranged_h_0125.sdf

> <i_m_source_file_index>
56

> <r_mmod_Potential_Energy-OPLS-2005>
182.693588256836

> <r_mmod_Stretch_Energy-OPLS-2005>
173.061553955078

> <r_mmod_Bend_Energy-OPLS-2005>
237.530212402344

> <r_mmod_Torsional_Energy-OPLS-2005>
243.002227783203

> <r_mmod_Improper_Torsional_Energy-OPLS-2005>
5.84979867935181

> <r_mmod_Van_der_Waal_Energy-OPLS-2005>
121.615310668945

> <r_mmod_Electrostatic_Energy-OPLS-2005>
-251.840560913086

> <r_mmod_Solvation_Energy-OPLS-2005>
-471.097808837891

> <b_mmod_Minimization_Converged-OPLS-2005>
0

> <r_mmod_RMS_Derivative-OPLS-2005>
1.62661218643188

$$$$
57
                    3D
 Structure written by MMmdl.
162170  0  0  1  0            999 V2000
  -30.7411  -14.3639   20.6478 C   0  0  0  0  0  0
  -30.4144  -12.2751   19.3842 C   0  0  0  0  0  0
  -29.4768  -12.5221   18.1862 C   0  0  0  0  0  0
  -28.0013  -12.3777   18.6040 C   0  0  0  0  0  0
  -27.6657  -13.1938   19.8801 C   0  0  2  0  0  0
  -28.7042  -12.9152   20.9887 C   0  0  0  0  0  0
  -25.2601  -13.8141   20.5664 C   0  0  0  0  0  0
  -24.1833  -13.0433   20.9148 C   0  0  0  0  0  0
  -24.6366  -11.6899   20.8713 C   0  0  0  0  0  0
  -23.9041  -10.4292   21.0390 C   0  0  0  0  0  0
  -24.3612   -9.4213   21.9160 C   0  0  0  0  0  0
  -23.6292   -8.2250   22.0738 C   0  0  0  0  0  0
  -22.4266   -8.0283   21.3545 C   0  0  0  0  0  0
  -21.9902   -9.0247   20.4636 C   0  0  0  0  0  0
  -22.7222  -10.2128   20.3037 C   0  0  0  0  0  0
  -21.6857   -6.0741   22.5285 C   0  0  0  0  0  0
  -21.4011   -6.5640   23.8220 C   0  0  0  0  0  0
  -21.3659   -5.6786   24.9177 C   0  0  0  0  0  0
  -21.6051   -4.3051   24.7221 C   0  0  0  0  0  0
  -21.8823   -3.8150   23.4339 C   0  0  0  0  0  0
  -21.9191   -4.6969   22.3399 C   0  0  0  0  0  0
  -22.7861  -13.5240   21.1838 C   0  0  0  0  0  0
  -22.1663   -4.2161   21.0974 F   0  0  0  0  0  0
  -21.5629   -3.4528   25.7729 F   0  0  0  0  0  0
  -30.0477  -13.2136   20.4528 N   0  0  0  0  0  0
  -26.3030  -12.9294   20.3376 N   0  0  0  0  0  0
  -25.9286  -11.6465   20.5745 N   0  0  0  0  0  0
  -22.0517  -12.8233   22.0407 N   0  0  0  0  0  0
  -25.4342  -15.1863   20.4095 N   0  0  0  0  0  0
  -31.7830  -14.6501   20.0499 O   0  0  0  0  0  0
  -21.6636   -6.8880   21.4247 O   0  0  0  0  0  0
  -22.3552  -14.5559   20.6702 O   0  0  0  0  0  0
  -24.6101  -31.8717   23.2109 C   0  0  0  0  0  0
  -25.9000  -32.4839   23.8406 C   0  0  1  0  0  0
  -27.2428  -27.4718   20.0782 C   0  0  0  0  0  0
  -25.5875  -33.8636   24.2354 N   0  0  0  0  0  0
  -23.3964  -30.4909   21.5524 C   0  0  2  0  0  0
  -24.8400  -28.9588   20.1202 C   0  0  0  0  0  0
  -22.7416  -29.4632   22.5018 C   0  0  0  0  0  0
  -18.0261  -28.1360   22.8469 C   0  0  0  0  0  0
  -24.1499  -36.7325   23.2643 C   0  0  0  0  0  0
  -25.9217  -30.8449   21.3592 C   0  0  0  0  0  0
  -25.9974  -29.4798   20.7100 C   0  0  0  0  0  0
  -27.1975  -28.7435   20.6859 C   0  0  0  0  0  0
  -26.0624  -26.9466   19.5021 C   0  0  0  0  0  0
  -24.8644  -27.6881   19.5179 C   0  0  0  0  0  0
  -23.6026  -29.8234   20.1669 C   0  0  0  0  0  0
  -25.4117  -36.3127   24.0346 C   0  0  1  0  0  0
  -20.5854  -28.3633   23.1325 C   0  0  2  0  0  0
  -20.6755  -26.9374   22.5409 C   0  0  0  0  0  0
  -19.5741  -26.6359   21.5195 C   0  0  0  0  0  0
  -18.1911  -26.7896   22.1592 C   0  0  0  0  0  0
  -19.1520  -28.8804   23.2876 C   0  0  0  0  0  0
  -18.9444  -30.1414   23.8880 C   0  0  0  0  0  0
  -17.6452  -30.6558   24.0547 C   0  0  0  0  0  0
  -25.9042  -34.9484   23.5160 C   0  0  0  0  0  0
  -16.5344  -29.9073   23.6310 C   0  0  0  0  0  0
  -16.7247  -28.6493   23.0321 C   0  0  0  0  0  0
  -26.4441  -31.6606   25.0731 C   0  0  0  0  0  0
  -25.3725  -31.3692   26.1497 C   0  0  0  0  0  0
  -27.0272  -30.3065   24.6042 C   0  0  0  0  0  0
  -27.6033  -32.4321   25.7473 C   0  0  0  0  0  0
  -27.5588  -37.1827   24.8475 C   0  0  0  0  0  0
  -21.4154  -29.3012   22.3777 N   0  0  0  0  0  0
  -26.4318  -37.3806   23.9415 N   0  0  0  0  0  0
  -24.6601  -31.0849   22.0992 N   0  0  0  0  0  0
  -23.4215  -28.8179   23.3039 O   0  0  0  0  0  0
  -28.4646  -26.8423   20.0220 O   0  0  0  0  0  0
  -26.5611  -34.8924   22.4729 O   0  0  0  0  0  0
  -23.5309  -32.1455   23.7529 O   0  0  0  0  0  0
  -29.2784  -22.9437   22.6584 C   0  0  0  0  0  0
  -30.8278  -20.8792   22.4701 C   0  0  0  0  0  0
  -28.8163  -19.3765   23.9016 C   0  0  0  0  0  0
  -29.3710  -21.4157   22.6232 C   0  0  2  0  0  0
  -29.6384  -18.7709   22.7285 C   0  0  2  0  0  0
  -29.7754  -17.2465   22.8368 C   0  0  0  0  0  0
  -30.5204  -16.6203   21.6454 C   0  0  0  0  0  0
  -28.3793  -24.9462   21.4908 C   0  0  0  0  0  0
  -28.5318  -25.4238   20.0417 C   0  0  0  0  0  0
  -30.9503  -19.4210   22.6869 N   0  0  0  0  0  0
  -28.7049  -23.5316   21.6011 N   0  0  0  0  0  0
  -30.1723  -15.2136   21.5051 N   0  0  0  0  0  0
  -28.7805  -20.8568   23.8506 N   0  3  0  0  0  0
  -29.6702  -23.5703   23.6467 O   0  0  0  0  0  0
  -31.4557  -12.3800   19.0756 H   0  0  0  0  0  0
  -30.3132  -11.2484   19.7409 H   0  0  0  0  0  0
  -29.7058  -11.8269   17.3780 H   0  0  0  0  0  0
  -29.6431  -13.5221   17.7830 H   0  0  0  0  0  0
  -27.8040  -11.3191   18.7751 H   0  0  0  0  0  0
  -27.3466  -12.6752   17.7829 H   0  0  0  0  0  0
  -27.7305  -14.2489   19.6158 H   0  0  0  0  0  0
  -28.6618  -11.8645   21.2797 H   0  0  0  0  0  0
  -28.4555  -13.4665   21.8952 H   0  0  0  0  0  0
  -25.2768   -9.5700   22.4712 H   0  0  0  0  0  0
  -24.0019   -7.4646   22.7445 H   0  0  0  0  0  0
  -21.0843   -8.8761   19.8933 H   0  0  0  0  0  0
  -22.3684  -10.9665   19.6137 H   0  0  0  0  0  0
  -21.2003   -7.6145   23.9738 H   0  0  0  0  0  0
  -21.1476   -6.0500   25.9085 H   0  0  0  0  0  0
  -22.0602   -2.7613   23.2829 H   0  0  0  0  0  0
  -22.4145  -11.9886   22.4781 H   0  0  0  0  0  0
  -21.1127  -13.1245   22.2628 H   0  0  0  0  0  0
  -24.6669  -15.8417   20.5090 H   0  0  0  0  0  0
  -26.2971  -15.6296   20.1206 H   0  0  0  0  0  0
  -26.7079  -32.5564   23.1188 H   0  0  0  0  0  0
  -25.0016  -33.9826   25.0473 H   0  0  0  0  0  0
  -22.6806  -31.3038   21.4130 H   0  0  0  0  0  0
  -23.3752  -35.9668   23.3334 H   0  0  0  0  0  0
  -24.3595  -36.8915   22.2054 H   0  0  0  0  0  0
  -23.7241  -37.6537   23.6634 H   0  0  0  0  0  0
  -26.0352  -31.6109   20.5917 H   0  0  0  0  0  0
  -26.8092  -30.8973   21.9766 H   0  0  0  0  0  0
  -28.0981  -29.1542   21.1217 H   0  0  0  0  0  0
  -26.0512  -25.9885   19.0044 H   0  0  0  0  0  0
  -23.9771  -27.2837   19.0508 H   0  0  0  0  0  0
  -23.7141  -30.5985   19.4076 H   0  0  0  0  0  0
  -22.7268  -29.2454   19.8667 H   0  0  0  0  0  0
  -25.1280  -36.2019   25.0836 H   0  0  0  0  0  0
  -20.9897  -28.3166   24.1457 H   0  0  0  0  0  0
  -20.5648  -26.2226   23.3588 H   0  0  0  0  0  0
  -21.6630  -26.7418   22.1206 H   0  0  0  0  0  0
  -19.6927  -25.6281   21.1202 H   0  0  0  0  0  0
  -19.6690  -27.3185   20.6743 H   0  0  0  0  0  0
  -17.4190  -26.6615   21.3989 H   0  0  0  0  0  0
  -18.0312  -26.0042   22.8987 H   0  0  0  0  0  0
  -19.7938  -30.7210   24.2246 H   0  0  0  0  0  0
  -17.5026  -31.6239   24.5165 H   0  0  0  0  0  0
  -15.5346  -30.2975   23.7646 H   0  0  0  0  0  0
  -15.8639  -28.0820   22.7035 H   0  0  0  0  0  0
  -24.5904  -30.7010   25.7869 H   0  0  0  0  0  0
  -24.8887  -32.2834   26.4946 H   0  0  0  0  0  0
  -25.8099  -30.8899   27.0260 H   0  0  0  0  0  0
  -26.2807  -29.6838   24.1110 H   0  0  0  0  0  0
  -27.4109  -29.7270   25.4444 H   0  0  0  0  0  0
  -27.8587  -30.4424   23.9130 H   0  0  0  0  0  0
  -27.2662  -33.3623   26.2054 H   0  0  0  0  0  0
  -28.3817  -32.6876   25.0273 H   0  0  0  0  0  0
  -28.0708  -31.8439   26.5382 H   0  0  0  0  0  0
  -28.2627  -38.0106   24.7516 H   0  0  0  0  0  0
  -28.1069  -36.2644   24.6311 H   0  0  0  0  0  0
  -27.2325  -37.1486   25.8886 H   0  0  0  0  0  0
  -20.9312  -29.8797   21.7056 H   0  0  0  0  0  0
  -26.0214  -38.2899   24.1375 H   0  0  0  0  0  0
  -31.5091  -21.3938   23.1509 H   0  0  0  0  0  0
  -31.1852  -21.1092   21.4651 H   0  0  0  0  0  0
  -29.2208  -19.0646   24.8650 H   0  0  0  0  0  0
  -27.7904  -19.0082   23.8617 H   0  0  0  0  0  0
  -28.7677  -21.0840   21.7772 H   0  0  0  0  0  0
  -29.1229  -18.9589   21.7846 H   0  0  0  0  0  0
  -28.7648  -16.8335   22.8820 H   0  0  0  0  0  0
  -30.2601  -16.9615   23.7708 H   0  0  0  0  0  0
  -31.5984  -16.7447   21.7657 H   0  0  0  0  0  0
  -30.2520  -17.1290   20.7169 H   0  0  0  0  0  0
  -27.3543  -25.1006   21.8313 H   0  0  0  0  0  0
  -29.0231  -25.5439   22.1377 H   0  0  0  0  0  0
  -27.8276  -24.9371   19.3694 H   0  0  0  0  0  0
  -29.5242  -25.1553   19.6763 H   0  0  0  0  0  0
  -31.4220  -19.2614   23.5734 H   0  0  0  0  0  0
  -28.4283  -22.9419   20.8268 H   0  0  0  0  0  0
  -29.3306  -14.8917   21.9592 H   0  0  0  0  0  0
  -29.3139  -21.2284   24.6188 H   0  0  0  0  0  0
  -27.8371  -21.1923   23.9472 H   0  0  0  0  0  0
  1 25  1  0  0  0
  1 30  2  0  0  0
  1 82  1  0  0  0
  2  3  1  0  0  0
  2 25  1  0  0  0
  2 85  1  0  0  0
  2 86  1  0  0  0
  3  4  1  0  0  0
  3 87  1  0  0  0
  3 88  1  0  0  0
  4  5  1  0  0  0
  4 89  1  0  0  0
  4 90  1  0  0  0
  5  6  1  0  0  0
  5 26  1  0  0  0
  5 91  1  0  0  0
  6 25  1  0  0  0
  6 92  1  0  0  0
  6 93  1  0  0  0
  7  8  2  0  0  0
  7 26  1  0  0  0
  7 29  1  0  0  0
  8  9  1  0  0  0
  8 22  1  0  0  0
  9 10  1  0  0  0
  9 27  2  0  0  0
 10 11  2  0  0  0
 10 15  1  0  0  0
 11 12  1  0  0  0
 11 94  1  0  0  0
 12 13  2  0  0  0
 12 95  1  0  0  0
 13 14  1  0  0  0
 13 31  1  0  0  0
 14 15  2  0  0  0
 14 96  1  0  0  0
 15 97  1  0  0  0
 16 17  2  0  0  0
 16 21  1  0  0  0
 16 31  1  0  0  0
 17 18  1  0  0  0
 17 98  1  0  0  0
 18 19  2  0  0  0
 18 99  1  0  0  0
 19 20  1  0  0  0
 19 24  1  0  0  0
 20 21  2  0  0  0
 20100  1  0  0  0
 21 23  1  0  0  0
 22 28  1  0  0  0
 22 32  2  0  0  0
 26 27  1  0  0  0
 28101  1  0  0  0
 28102  1  0  0  0
 29103  1  0  0  0
 29104  1  0  0  0
 33 34  1  0  0  0
 33 66  1  0  0  0
 33 70  2  0  0  0
 34 36  1  0  0  0
 34 59  1  0  0  0
 34105  1  0  0  0
 35 44  2  0  0  0
 35 45  1  0  0  0
 35 68  1  0  0  0
 36 56  1  0  0  0
 36106  1  0  0  0
 37 39  1  0  0  0
 37 47  1  0  0  0
 37 66  1  0  0  0
 37107  1  0  0  0
 38 43  2  0  0  0
 38 46  1  0  0  0
 38 47  1  0  0  0
 39 64  1  0  0  0
 39 67  2  0  0  0
 40 52  1  0  0  0
 40 53  2  0  0  0
 40 58  1  0  0  0
 41108  1  0  0  0
 41109  1  0  0  0
 41110  1  0  0  0
 41 48  1  0  0  0
 42 43  1  0  0  0
 42 66  1  0  0  0
 42111  1  0  0  0
 42112  1  0  0  0
 43 44  1  0  0  0
 44113  1  0  0  0
 45 46  2  0  0  0
 45114  1  0  0  0
 46115  1  0  0  0
 47116  1  0  0  0
 47117  1  0  0  0
 48 56  1  0  0  0
 48 65  1  0  0  0
 48118  1  0  0  0
 49 50  1  0  0  0
 49 53  1  0  0  0
 49 64  1  0  0  0
 49119  1  0  0  0
 50 51  1  0  0  0
 50120  1  0  0  0
 50121  1  0  0  0
 51 52  1  0  0  0
 51122  1  0  0  0
 51123  1  0  0  0
 52124  1  0  0  0
 52125  1  0  0  0
 53 54  1  0  0  0
 54 55  2  0  0  0
 54126  1  0  0  0
 55 57  1  0  0  0
 55127  1  0  0  0
 56 69  2  0  0  0
 57 58  2  0  0  0
 57128  1  0  0  0
 58129  1  0  0  0
 59 60  1  0  0  0
 59 61  1  0  0  0
 59 62  1  0  0  0
 60130  1  0  0  0
 60131  1  0  0  0
 60132  1  0  0  0
 61133  1  0  0  0
 61134  1  0  0  0
 61135  1  0  0  0
 62136  1  0  0  0
 62137  1  0  0  0
 62138  1  0  0  0
 63 65  1  0  0  0
 63139  1  0  0  0
 63140  1  0  0  0
 63141  1  0  0  0
 64142  1  0  0  0
 65143  1  0  0  0
 68 79  1  0  0  0
 71 81  1  0  0  0
 71 84  2  0  0  0
 71 74  1  0  0  0
 72 74  1  0  0  0
 72 80  1  0  0  0
 72144  1  0  0  0
 72145  1  0  0  0
 73 75  1  0  0  0
 73 83  1  0  0  0
 73146  1  0  0  0
 73147  1  0  0  0
 74 83  1  0  0  0
 74148  1  0  0  0
 75 76  1  0  0  0
 75 80  1  0  0  0
 75149  1  0  0  0
 76 77  1  0  0  0
 76150  1  0  0  0
 76151  1  0  0  0
 77 82  1  0  0  0
 77152  1  0  0  0
 77153  1  0  0  0
 78 79  1  0  0  0
 78 81  1  0  0  0
 78154  1  0  0  0
 78155  1  0  0  0
 79156  1  0  0  0
 79157  1  0  0  0
 80158  1  0  0  0
 81159  1  0  0  0
 82160  1  0  0  0
 83161  1  0  0  0
 83162  1  0  0  0
M  CHG  1  83   1
M  ISO  4   1 100  68 101  79 101  82 100
M  END
> <chiral flag>
0

> <version>
0

> <s_m_source_file>
/data/baiqing/PycharmProjects/Reinvent-master-3.2/result/LINK_invent/BTK/process_docking_weight1_custom_sum_contain_oxygen_bond_distance_aromatic_linkinvent_7_9_3/rearranged_h_0125.sdf

> <i_m_source_file_index>
57

> <r_mmod_Potential_Energy-OPLS-2005>
-269.13525390625

> <r_mmod_Stretch_Energy-OPLS-2005>
33.3694801330566

> <r_mmod_Bend_Energy-OPLS-2005>
98.39599609375

> <r_mmod_Torsional_Energy-OPLS-2005>
242.067337036133

> <r_mmod_Improper_Torsional_Energy-OPLS-2005>
2.78947329521179

> <r_mmod_Van_der_Waal_Energy-OPLS-2005>
158.542449951172

> <r_mmod_Electrostatic_Energy-OPLS-2005>
-295.186004638672

> <r_mmod_Solvation_Energy-OPLS-2005>
-517.185485839844

> <b_mmod_Minimization_Converged-OPLS-2005>
0

> <r_mmod_RMS_Derivative-OPLS-2005>
2.74334359169006

$$$$
58
                    3D
 Structure written by MMmdl.
150158  0  0  1  0            999 V2000
  -30.3817  -15.4323   20.3471 C   0  0  0  0  0  0
  -30.4372  -12.9289   19.5307 C   0  0  0  0  0  0
  -29.5460  -12.6105   18.3009 C   0  0  0  0  0  0
  -28.1027  -12.3017   18.7328 C   0  0  0  0  0  0
  -27.6052  -13.2908   19.8145 C   0  0  2  0  0  0
  -28.6332  -13.5390   20.9404 C   0  0  0  0  0  0
  -25.2364  -13.8262   20.5750 C   0  0  0  0  0  0
  -24.1735  -13.0433   20.9267 C   0  0  0  0  0  0
  -24.6410  -11.6938   20.8764 C   0  0  0  0  0  0
  -23.9110  -10.4292   21.0401 C   0  0  0  0  0  0
  -24.3653   -9.4208   21.9178 C   0  0  0  0  0  0
  -23.6314   -8.2248   22.0748 C   0  0  0  0  0  0
  -22.4296   -8.0290   21.3546 C   0  0  0  0  0  0
  -21.9937   -9.0264   20.4645 C   0  0  0  0  0  0
  -22.7277  -10.2135   20.3049 C   0  0  0  0  0  0
  -21.6863   -6.0740   22.5278 C   0  0  0  0  0  0
  -21.4021   -6.5640   23.8212 C   0  0  0  0  0  0
  -21.3662   -5.6793   24.9173 C   0  0  0  0  0  0
  -21.6046   -4.3053   24.7222 C   0  0  0  0  0  0
  -21.8818   -3.8148   23.4344 C   0  0  0  0  0  0
  -21.9194   -4.6966   22.3399 C   0  0  0  0  0  0
  -22.7747  -13.5178   21.1906 C   0  0  0  0  0  0
  -22.1662   -4.2151   21.0977 F   0  0  0  0  0  0
  -21.5632   -3.4536   25.7736 F   0  0  0  0  0  0
  -29.8401  -14.0966   20.2984 N   0  0  0  0  0  0
  -26.2801  -12.9565   20.3200 N   0  0  0  0  0  0
  -25.9353  -11.6655   20.5694 N   0  0  0  0  0  0
  -22.0404  -12.8172   22.0466 N   0  0  0  0  0  0
  -25.3960  -15.2003   20.4176 N   0  0  0  0  0  0
  -31.6123  -15.4059   20.1810 O   0  0  0  0  0  0
  -21.6652   -6.8890   21.4242 O   0  0  0  0  0  0
  -22.3423  -14.5472   20.6735 O   0  0  0  0  0  0
  -24.6736  -31.8114   23.1597 C   0  0  0  0  0  0
  -25.9369  -32.4523   23.8112 C   0  0  1  0  0  0
  -27.2302  -26.8165   20.1990 C   0  0  0  0  0  0
  -25.5989  -33.8343   24.2013 N   0  0  0  0  0  0
  -23.4950  -30.4167   21.5110 C   0  0  2  0  0  0
  -24.9523  -28.7790   20.1153 C   0  0  0  0  0  0
  -22.7719  -29.4378   22.4745 C   0  0  0  0  0  0
  -18.0326  -28.1415   22.8457 C   0  0  0  0  0  0
  -24.1497  -36.7180   23.2650 C   0  0  0  0  0  0
  -26.0703  -30.5806   21.4081 C   0  0  0  0  0  0
  -26.1383  -29.1581   20.7555 C   0  0  0  0  0  0
  -27.2667  -28.2014   20.7676 C   0  0  0  0  0  0
  -26.0117  -26.6166   19.5075 C   0  0  0  0  0  0
  -24.9210  -27.5311   19.4698 C   0  0  0  0  0  0
  -23.7428  -29.7201   20.1433 C   0  0  0  0  0  0
  -25.4144  -36.2933   24.0291 C   0  0  1  0  0  0
  -20.5958  -28.3773   23.1162 C   0  0  2  0  0  0
  -20.6806  -26.9443   22.5405 C   0  0  0  0  0  0
  -19.5783  -26.6374   21.5215 C   0  0  0  0  0  0
  -18.1962  -26.7943   22.1619 C   0  0  0  0  0  0
  -19.1592  -28.8919   23.2791 C   0  0  0  0  0  0
  -18.9498  -30.1500   23.8837 C   0  0  0  0  0  0
  -17.6492  -30.6605   24.0547 C   0  0  0  0  0  0
  -25.9115  -34.9316   23.4982 C   0  0  0  0  0  0
  -16.5380  -29.9089   23.6346 C   0  0  0  0  0  0
  -16.7306  -28.6508   23.0366 C   0  0  0  0  0  0
  -26.4579  -31.6511   25.0689 C   0  0  0  0  0  0
  -25.3677  -31.3800   26.1327 C   0  0  0  0  0  0
  -27.0496  -30.2858   24.6516 C   0  0  0  0  0  0
  -27.6046  -32.4349   25.7501 C   0  0  0  0  0  0
  -27.5569  -37.1747   24.8464 C   0  0  0  0  0  0
  -21.4379  -29.3037   22.3495 N   0  0  0  0  0  0
  -26.4277  -37.3682   23.9403 N   0  0  0  0  0  0
  -24.7685  -30.9666   22.0791 N   0  0  0  0  0  0
  -23.4209  -28.7966   23.3045 O   0  0  0  0  0  0
  -28.2188  -25.6598   20.2766 O   0  0  0  0  0  0
  -26.5743  -34.8870   22.4590 O   0  0  0  0  0  0
  -23.5781  -32.1135   23.6618 O   0  0  0  0  0  0
  -29.4478  -21.2540   19.2301 C   0  0  0  0  0  0
  -28.2680  -21.0029   21.2108 C   0  0  0  0  0  0
  -29.3540  -19.5311   19.1811 C   0  0  0  0  0  0
  -29.0476  -19.4986   21.4961 C   0  0  0  0  0  0
  -28.8550  -22.3163   20.3804 C   0  0  2  0  0  0
  -29.7508  -18.4681   20.3918 C   0  0  1  0  0  0
  -27.9919  -23.9759   20.1192 C   0  0  0  0  0  0
  -29.6056  -16.7408   20.3911 N   0  0  0  0  0  0
  -31.4453  -13.1599   19.1845 H   0  0  0  0  0  0
  -30.5456  -12.0509   20.1702 H   0  0  0  0  0  0
  -29.9585  -11.7748   17.7340 H   0  0  0  0  0  0
  -29.5479  -13.4690   17.6281 H   0  0  0  0  0  0
  -28.0849  -11.2863   19.1292 H   0  0  0  0  0  0
  -27.4359  -12.3068   17.8690 H   0  0  0  0  0  0
  -27.4956  -14.2382   19.2857 H   0  0  0  0  0  0
  -28.8423  -12.6289   21.5043 H   0  0  0  0  0  0
  -28.2403  -14.2647   21.6540 H   0  0  0  0  0  0
  -25.2792   -9.5686   22.4761 H   0  0  0  0  0  0
  -24.0019   -7.4645   22.7471 H   0  0  0  0  0  0
  -21.0864   -8.8791   19.8959 H   0  0  0  0  0  0
  -22.3729  -10.9681   19.6169 H   0  0  0  0  0  0
  -21.2008   -7.6148   23.9717 H   0  0  0  0  0  0
  -21.1491   -6.0519   25.9077 H   0  0  0  0  0  0
  -22.0592   -2.7609   23.2841 H   0  0  0  0  0  0
  -22.4025  -11.9857   22.4896 H   0  0  0  0  0  0
  -21.1002  -13.1172   22.2633 H   0  0  0  0  0  0
  -24.6211  -15.8452   20.5267 H   0  0  0  0  0  0
  -26.2287  -15.6443   20.0540 H   0  0  0  0  0  0
  -26.7446  -32.5027   23.0825 H   0  0  0  0  0  0
  -25.0059  -33.9401   25.0112 H   0  0  0  0  0  0
  -22.8146  -31.2509   21.3287 H   0  0  0  0  0  0
  -23.3775  -35.9492   23.3273 H   0  0  0  0  0  0
  -24.3566  -36.8872   22.2070 H   0  0  0  0  0  0
  -23.7238  -37.6346   23.6740 H   0  0  0  0  0  0
  -26.2648  -31.3139   20.6240 H   0  0  0  0  0  0
  -26.9247  -30.6418   22.0706 H   0  0  0  0  0  0
  -28.1611  -28.4935   21.2993 H   0  0  0  0  0  0
  -25.8670  -25.6662   19.0144 H   0  0  0  0  0  0
  -24.0223  -27.2331   18.9469 H   0  0  0  0  0  0
  -23.9077  -30.4823   19.3815 H   0  0  0  0  0  0
  -22.8508  -29.1794   19.8227 H   0  0  0  0  0  0
  -25.1348  -36.1713   25.0783 H   0  0  0  0  0  0
  -21.0033  -28.3388   24.1288 H   0  0  0  0  0  0
  -20.5684  -26.2389   23.3654 H   0  0  0  0  0  0
  -21.6666  -26.7410   22.1209 H   0  0  0  0  0  0
  -19.6944  -25.6266   21.1289 H   0  0  0  0  0  0
  -19.6724  -27.3146   20.6714 H   0  0  0  0  0  0
  -17.4228  -26.6669   21.4024 H   0  0  0  0  0  0
  -18.0359  -26.0104   22.9037 H   0  0  0  0  0  0
  -19.7976  -30.7328   24.2182 H   0  0  0  0  0  0
  -17.5046  -31.6280   24.5159 H   0  0  0  0  0  0
  -15.5379  -30.2973   23.7714 H   0  0  0  0  0  0
  -15.8700  -28.0807   22.7126 H   0  0  0  0  0  0
  -24.5848  -30.7172   25.7619 H   0  0  0  0  0  0
  -24.8887  -32.3019   26.4630 H   0  0  0  0  0  0
  -25.7873  -30.9022   27.0189 H   0  0  0  0  0  0
  -26.3191  -29.6493   24.1509 H   0  0  0  0  0  0
  -27.3959  -29.7273   25.5223 H   0  0  0  0  0  0
  -27.9160  -30.4001   23.9999 H   0  0  0  0  0  0
  -27.2588  -33.3690   26.1939 H   0  0  0  0  0  0
  -28.3927  -32.6849   25.0388 H   0  0  0  0  0  0
  -28.0640  -31.8578   26.5536 H   0  0  0  0  0  0
  -28.2564  -38.0065   24.7516 H   0  0  0  0  0  0
  -28.1092  -36.2589   24.6293 H   0  0  0  0  0  0
  -27.2282  -37.1385   25.8867 H   0  0  0  0  0  0
  -20.9664  -29.8694   21.6577 H   0  0  0  0  0  0
  -26.0119  -38.2736   24.1411 H   0  0  0  0  0  0
  -29.0248  -21.5901   18.2833 H   0  0  0  0  0  0
  -30.5072  -21.4957   19.1338 H   0  0  0  0  0  0
  -27.9726  -21.3777   22.1908 H   0  0  0  0  0  0
  -27.3170  -20.7556   20.7361 H   0  0  0  0  0  0
  -29.9309  -19.2221   18.3092 H   0  0  0  0  0  0
  -28.3250  -19.2986   18.9040 H   0  0  0  0  0  0
  -28.3170  -18.8925   22.0331 H   0  0  0  0  0  0
  -29.8117  -19.6947   22.2493 H   0  0  0  0  0  0
  -29.7263  -22.6107   20.9672 H   0  0  0  0  0  0
  -30.8274  -18.5949   20.5149 H   0  0  0  0  0  0
  -27.0928  -23.8518   20.7237 H   0  0  0  0  0  0
  -27.6116  -23.8962   19.1011 H   0  0  0  0  0  0
  -28.6281  -16.4949   20.4537 H   0  0  0  0  0  0
  1 25  1  0  0  0
  1 30  2  0  0  0
  1 78  1  0  0  0
  2  3  1  0  0  0
  2 25  1  0  0  0
  2 79  1  0  0  0
  2 80  1  0  0  0
  3  4  1  0  0  0
  3 81  1  0  0  0
  3 82  1  0  0  0
  4  5  1  0  0  0
  4 83  1  0  0  0
  4 84  1  0  0  0
  5  6  1  0  0  0
  5 26  1  0  0  0
  5 85  1  0  0  0
  6 25  1  0  0  0
  6 86  1  0  0  0
  6 87  1  0  0  0
  7  8  2  0  0  0
  7 26  1  0  0  0
  7 29  1  0  0  0
  8  9  1  0  0  0
  8 22  1  0  0  0
  9 10  1  0  0  0
  9 27  2  0  0  0
 10 11  2  0  0  0
 10 15  1  0  0  0
 11 12  1  0  0  0
 11 88  1  0  0  0
 12 13  2  0  0  0
 12 89  1  0  0  0
 13 14  1  0  0  0
 13 31  1  0  0  0
 14 15  2  0  0  0
 14 90  1  0  0  0
 15 91  1  0  0  0
 16 17  2  0  0  0
 16 21  1  0  0  0
 16 31  1  0  0  0
 17 18  1  0  0  0
 17 92  1  0  0  0
 18 19  2  0  0  0
 18 93  1  0  0  0
 19 20  1  0  0  0
 19 24  1  0  0  0
 20 21  2  0  0  0
 20 94  1  0  0  0
 21 23  1  0  0  0
 22 28  1  0  0  0
 22 32  2  0  0  0
 26 27  1  0  0  0
 28 95  1  0  0  0
 28 96  1  0  0  0
 29 97  1  0  0  0
 29 98  1  0  0  0
 33 34  1  0  0  0
 33 66  1  0  0  0
 33 70  2  0  0  0
 34 36  1  0  0  0
 34 59  1  0  0  0
 34 99  1  0  0  0
 35 44  2  0  0  0
 35 45  1  0  0  0
 35 68  1  0  0  0
 36 56  1  0  0  0
 36100  1  0  0  0
 37 39  1  0  0  0
 37 47  1  0  0  0
 37 66  1  0  0  0
 37101  1  0  0  0
 38 43  2  0  0  0
 38 46  1  0  0  0
 38 47  1  0  0  0
 39 64  1  0  0  0
 39 67  2  0  0  0
 40 52  1  0  0  0
 40 53  2  0  0  0
 40 58  1  0  0  0
 41102  1  0  0  0
 41103  1  0  0  0
 41104  1  0  0  0
 41 48  1  0  0  0
 42 43  1  0  0  0
 42 66  1  0  0  0
 42105  1  0  0  0
 42106  1  0  0  0
 43 44  1  0  0  0
 44107  1  0  0  0
 45 46  2  0  0  0
 45108  1  0  0  0
 46109  1  0  0  0
 47110  1  0  0  0
 47111  1  0  0  0
 48 56  1  0  0  0
 48 65  1  0  0  0
 48112  1  0  0  0
 49 50  1  0  0  0
 49 53  1  0  0  0
 49 64  1  0  0  0
 49113  1  0  0  0
 50 51  1  0  0  0
 50114  1  0  0  0
 50115  1  0  0  0
 51 52  1  0  0  0
 51116  1  0  0  0
 51117  1  0  0  0
 52118  1  0  0  0
 52119  1  0  0  0
 53 54  1  0  0  0
 54 55  2  0  0  0
 54120  1  0  0  0
 55 57  1  0  0  0
 55121  1  0  0  0
 56 69  2  0  0  0
 57 58  2  0  0  0
 57122  1  0  0  0
 58123  1  0  0  0
 59 60  1  0  0  0
 59 61  1  0  0  0
 59 62  1  0  0  0
 60124  1  0  0  0
 60125  1  0  0  0
 60126  1  0  0  0
 61127  1  0  0  0
 61128  1  0  0  0
 61129  1  0  0  0
 62130  1  0  0  0
 62131  1  0  0  0
 62132  1  0  0  0
 63 65  1  0  0  0
 63133  1  0  0  0
 63134  1  0  0  0
 63135  1  0  0  0
 64136  1  0  0  0
 65137  1  0  0  0
 68 77  1  0  0  0
 71 73  1  0  0  0
 71 75  1  0  0  0
 71138  1  0  0  0
 71139  1  0  0  0
 72 74  1  0  0  0
 72 75  1  0  0  0
 72140  1  0  0  0
 72141  1  0  0  0
 73 76  1  0  0  0
 73142  1  0  0  0
 73143  1  0  0  0
 74 76  1  0  0  0
 74144  1  0  0  0
 74145  1  0  0  0
 75 77  1  0  0  0
 75146  1  0  0  0
 76 78  1  0  0  0
 76147  1  0  0  0
 77148  1  0  0  0
 77149  1  0  0  0
 78150  1  0  0  0
M  ISO  4   1 100  68 101  77 101  78 100
M  END
> <chiral flag>
0

> <version>
0

> <s_m_source_file>
/data/baiqing/PycharmProjects/Reinvent-master-3.2/result/LINK_invent/BTK/process_docking_weight1_custom_sum_contain_oxygen_bond_distance_aromatic_linkinvent_7_9_3/rearranged_h_0125.sdf

> <i_m_source_file_index>
58

> <r_mmod_Potential_Energy-OPLS-2005>
1843.72436523438

> <r_mmod_Stretch_Energy-OPLS-2005>
766.142822265625

> <r_mmod_Bend_Energy-OPLS-2005>
614.167846679688

> <r_mmod_Torsional_Energy-OPLS-2005>
256.347564697266

> <r_mmod_Improper_Torsional_Energy-OPLS-2005>
3.77656579017639

> <r_mmod_Van_der_Waal_Energy-OPLS-2005>
116.92699432373

> <r_mmod_Electrostatic_Energy-OPLS-2005>
-350.118438720703

> <r_mmod_Solvation_Energy-OPLS-2005>
-209.585876464844

> <b_mmod_Minimization_Converged-OPLS-2005>
0

> <r_mmod_RMS_Derivative-OPLS-2005>
1.24485099315643

$$$$
59
                    3D
 Structure written by MMmdl.
165173  0  0  1  0            999 V2000
  -30.7390  -14.4148   20.6383 C   0  0  0  0  0  0
  -30.4191  -12.2990   19.4070 C   0  0  0  0  0  0
  -29.4880  -12.5149   18.1983 C   0  0  0  0  0  0
  -28.0111  -12.3727   18.6137 C   0  0  0  0  0  0
  -27.6637  -13.2037   19.8774 C   0  0  2  0  0  0
  -28.7033  -12.9633   20.9948 C   0  0  0  0  0  0
  -25.2597  -13.8155   20.5674 C   0  0  0  0  0  0
  -24.1840  -13.0437   20.9163 C   0  0  0  0  0  0
  -24.6389  -11.6902   20.8725 C   0  0  0  0  0  0
  -23.9052  -10.4291   21.0399 C   0  0  0  0  0  0
  -24.3607   -9.4210   21.9179 C   0  0  0  0  0  0
  -23.6288   -8.2244   22.0754 C   0  0  0  0  0  0
  -22.4271   -8.0277   21.3543 C   0  0  0  0  0  0
  -21.9900   -9.0249   20.4646 C   0  0  0  0  0  0
  -22.7223  -10.2130   20.3052 C   0  0  0  0  0  0
  -21.6853   -6.0735   22.5279 C   0  0  0  0  0  0
  -21.4013   -6.5640   23.8211 C   0  0  0  0  0  0
  -21.3659   -5.6793   24.9174 C   0  0  0  0  0  0
  -21.6045   -4.3056   24.7225 C   0  0  0  0  0  0
  -21.8819   -3.8146   23.4347 C   0  0  0  0  0  0
  -21.9193   -4.6963   22.3402 C   0  0  0  0  0  0
  -22.7866  -13.5239   21.1830 C   0  0  0  0  0  0
  -22.1662   -4.2149   21.0980 F   0  0  0  0  0  0
  -21.5629   -3.4538   25.7737 F   0  0  0  0  0  0
  -30.0396  -13.2647   20.4497 N   0  0  0  0  0  0
  -26.3032  -12.9320   20.3370 N   0  0  0  0  0  0
  -25.9314  -11.6483   20.5759 N   0  0  0  0  0  0
  -22.0503  -12.8240   22.0390 N   0  0  0  0  0  0
  -25.4334  -15.1871   20.4095 N   0  0  0  0  0  0
  -31.8144  -14.6475   20.0792 O   0  0  0  0  0  0
  -21.6637   -6.8875   21.4240 O   0  0  0  0  0  0
  -22.3556  -14.5550   20.6683 O   0  0  0  0  0  0
  -24.6118  -31.8691   23.2116 C   0  0  0  0  0  0
  -25.9021  -32.4826   23.8401 C   0  0  1  0  0  0
  -27.2437  -27.4539   20.1043 C   0  0  0  0  0  0
  -25.5887  -33.8623   24.2337 N   0  0  0  0  0  0
  -23.4001  -30.4916   21.5501 C   0  0  2  0  0  0
  -24.8506  -28.9586   20.1168 C   0  0  0  0  0  0
  -22.7401  -29.4661   22.4995 C   0  0  0  0  0  0
  -18.0271  -28.1382   22.8489 C   0  0  0  0  0  0
  -24.1487  -36.7320   23.2640 C   0  0  0  0  0  0
  -25.9250  -30.8414   21.3620 C   0  0  0  0  0  0
  -26.0055  -29.4741   20.7185 C   0  0  0  0  0  0
  -27.2044  -28.7287   20.7165 C   0  0  0  0  0  0
  -26.0803  -26.9584   19.4833 C   0  0  0  0  0  0
  -24.8811  -27.6962   19.4975 C   0  0  0  0  0  0
  -23.6095  -29.8210   20.1652 C   0  0  0  0  0  0
  -25.4102  -36.3115   24.0346 C   0  0  1  0  0  0
  -20.5859  -28.3661   23.1326 C   0  0  2  0  0  0
  -20.6764  -26.9400   22.5420 C   0  0  0  0  0  0
  -19.5744  -26.6387   21.5217 C   0  0  0  0  0  0
  -18.1921  -26.7929   22.1625 C   0  0  0  0  0  0
  -19.1520  -28.8837   23.2907 C   0  0  0  0  0  0
  -18.9450  -30.1444   23.8914 C   0  0  0  0  0  0
  -17.6455  -30.6585   24.0568 C   0  0  0  0  0  0
  -25.9025  -34.9478   23.5138 C   0  0  0  0  0  0
  -16.5346  -29.9090   23.6327 C   0  0  0  0  0  0
  -16.7262  -28.6511   23.0342 C   0  0  0  0  0  0
  -26.4464  -31.6592   25.0715 C   0  0  0  0  0  0
  -25.3744  -31.3696   26.1476 C   0  0  0  0  0  0
  -27.0292  -30.3039   24.6062 C   0  0  0  0  0  0
  -27.6043  -32.4307   25.7473 C   0  0  0  0  0  0
  -27.5580  -37.1811   24.8466 C   0  0  0  0  0  0
  -21.4131  -29.3030   22.3734 N   0  0  0  0  0  0
  -26.4293  -37.3796   23.9410 N   0  0  0  0  0  0
  -24.6635  -31.0812   22.1003 N   0  0  0  0  0  0
  -23.4181  -28.8213   23.3036 O   0  0  0  0  0  0
  -28.3766  -26.6720   20.0497 O   0  0  0  0  0  0
  -26.5586  -34.8929   22.4699 O   0  0  0  0  0  0
  -23.5314  -32.1426   23.7524 O   0  0  0  0  0  0
  -30.0124  -17.8641   21.4036 C   0  0  0  0  0  0
  -30.7409  -16.7732   23.3875 C   0  0  0  0  0  0
  -30.7532  -16.5997   21.8678 C   0  0  1  0  0  0
  -30.5550  -18.9433   22.3709 C   0  0  1  0  0  0
  -27.1575  -25.1134   22.3384 C   0  0  0  0  0  0
  -29.6201  -20.1480   22.6558 C   0  0  0  0  0  0
  -29.6656  -21.2964   21.6195 C   0  0  0  0  0  0
  -28.9331  -22.5594   22.1308 C   0  0  0  0  0  0
  -29.1203  -23.8353   21.2732 C   0  0  0  0  0  0
  -29.0803  -26.4405   21.2744 C   0  0  0  0  0  0
  -28.6579  -25.1309   21.9936 C   0  0  1  0  0  0
  -30.1671  -15.3157   21.4530 N   0  0  0  0  0  0
  -30.9107  -18.2186   23.6130 N   0  3  0  0  0  0
  -31.4630  -12.3987   19.1031 H   0  0  0  0  0  0
  -30.3198  -11.2822   19.7894 H   0  0  0  0  0  0
  -29.7243  -11.7998   17.4091 H   0  0  0  0  0  0
  -29.6573  -13.5062   17.7750 H   0  0  0  0  0  0
  -27.8200  -11.3155   18.8016 H   0  0  0  0  0  0
  -27.3590  -12.6555   17.7864 H   0  0  0  0  0  0
  -27.7159  -14.2548   19.5936 H   0  0  0  0  0  0
  -28.6742  -11.9218   21.3182 H   0  0  0  0  0  0
  -28.4548  -13.5445   21.8832 H   0  0  0  0  0  0
  -25.2755   -9.5690   22.4748 H   0  0  0  0  0  0
  -23.9999   -7.4638   22.7473 H   0  0  0  0  0  0
  -21.0831   -8.8765   19.8952 H   0  0  0  0  0  0
  -22.3680  -10.9668   19.6158 H   0  0  0  0  0  0
  -21.2004   -7.6147   23.9714 H   0  0  0  0  0  0
  -21.1481   -6.0523   25.9077 H   0  0  0  0  0  0
  -22.0598   -2.7608   23.2846 H   0  0  0  0  0  0
  -22.4115  -11.9898   22.4779 H   0  0  0  0  0  0
  -21.1120  -13.1270   22.2584 H   0  0  0  0  0  0
  -24.6699  -15.8455   20.5195 H   0  0  0  0  0  0
  -26.2913  -15.6245   20.0965 H   0  0  0  0  0  0
  -26.7099  -32.5560   23.1176 H   0  0  0  0  0  0
  -25.0062  -33.9788   25.0497 H   0  0  0  0  0  0
  -22.6872  -31.3071   21.4095 H   0  0  0  0  0  0
  -23.3744  -35.9660   23.3313 H   0  0  0  0  0  0
  -24.3585  -36.8916   22.2052 H   0  0  0  0  0  0
  -23.7248  -37.6537   23.6639 H   0  0  0  0  0  0
  -26.0300  -31.6037   20.5887 H   0  0  0  0  0  0
  -26.8154  -30.9019   21.9760 H   0  0  0  0  0  0
  -28.0939  -29.1422   21.1701 H   0  0  0  0  0  0
  -26.1035  -25.9910   19.0019 H   0  0  0  0  0  0
  -23.9956  -27.2930   19.0250 H   0  0  0  0  0  0
  -23.7139  -30.5939   19.4027 H   0  0  0  0  0  0
  -22.7357  -29.2362   19.8717 H   0  0  0  0  0  0
  -25.1277  -36.1988   25.0841 H   0  0  0  0  0  0
  -20.9948  -28.3221   24.1448 H   0  0  0  0  0  0
  -20.5673  -26.2263   23.3601 H   0  0  0  0  0  0
  -21.6634  -26.7448   22.1209 H   0  0  0  0  0  0
  -19.6906  -25.6303   21.1233 H   0  0  0  0  0  0
  -19.6690  -27.3207   20.6758 H   0  0  0  0  0  0
  -17.4192  -26.6679   21.4025 H   0  0  0  0  0  0
  -18.0316  -26.0067   22.9014 H   0  0  0  0  0  0
  -19.7929  -30.7253   24.2284 H   0  0  0  0  0  0
  -17.5016  -31.6267   24.5167 H   0  0  0  0  0  0
  -15.5348  -30.3002   23.7644 H   0  0  0  0  0  0
  -15.8662  -28.0846   22.7037 H   0  0  0  0  0  0
  -24.5906  -30.7052   25.7817 H   0  0  0  0  0  0
  -24.8954  -32.2857   26.4941 H   0  0  0  0  0  0
  -25.8109  -30.8852   27.0221 H   0  0  0  0  0  0
  -26.2832  -29.6806   24.1119 H   0  0  0  0  0  0
  -27.4088  -29.7255   25.4494 H   0  0  0  0  0  0
  -27.8650  -30.4369   23.9189 H   0  0  0  0  0  0
  -27.2661  -33.3586   26.2094 H   0  0  0  0  0  0
  -28.3832  -32.6898   25.0289 H   0  0  0  0  0  0
  -28.0741  -31.8410   26.5356 H   0  0  0  0  0  0
  -28.2603  -38.0102   24.7499 H   0  0  0  0  0  0
  -28.1069  -36.2632   24.6302 H   0  0  0  0  0  0
  -27.2300  -37.1477   25.8871 H   0  0  0  0  0  0
  -20.9284  -29.8747   21.6957 H   0  0  0  0  0  0
  -26.0188  -38.2880   24.1399 H   0  0  0  0  0  0
  -28.9353  -17.7436   21.5291 H   0  0  0  0  0  0
  -30.2040  -18.1080   20.3582 H   0  0  0  0  0  0
  -31.5196  -16.1946   23.8863 H   0  0  0  0  0  0
  -29.7799  -16.4687   23.8055 H   0  0  0  0  0  0
  -31.7909  -16.6709   21.5338 H   0  0  0  0  0  0
  -31.5006  -19.3156   21.9735 H   0  0  0  0  0  0
  -26.9176  -24.3244   23.0507 H   0  0  0  0  0  0
  -26.5467  -24.9517   21.4504 H   0  0  0  0  0  0
  -26.8457  -26.0558   22.7904 H   0  0  0  0  0  0
  -29.9111  -20.5761   23.6163 H   0  0  0  0  0  0
  -28.5932  -19.8052   22.7887 H   0  0  0  0  0  0
  -29.2353  -20.9670   20.6725 H   0  0  0  0  0  0
  -30.7062  -21.5513   21.4137 H   0  0  0  0  0  0
  -29.2859  -22.7756   23.1401 H   0  0  0  0  0  0
  -27.8700  -22.3361   22.2282 H   0  0  0  0  0  0
  -28.5999  -23.7265   20.3205 H   0  0  0  0  0  0
  -30.1781  -23.9372   21.0269 H   0  0  0  0  0  0
  -30.1442  -26.3941   21.0394 H   0  0  0  0  0  0
  -28.9829  -27.2744   21.9691 H   0  0  0  0  0  0
  -29.1905  -25.1543   22.9457 H   0  0  0  0  0  0
  -29.2772  -15.0535   21.8512 H   0  0  0  0  0  0
  -31.8707  -18.4155   23.8484 H   0  0  0  0  0  0
  -30.3338  -18.5079   24.3854 H   0  0  0  0  0  0
  1 25  1  0  0  0
  1 30  2  0  0  0
  1 82  1  0  0  0
  2  3  1  0  0  0
  2 25  1  0  0  0
  2 84  1  0  0  0
  2 85  1  0  0  0
  3  4  1  0  0  0
  3 86  1  0  0  0
  3 87  1  0  0  0
  4  5  1  0  0  0
  4 88  1  0  0  0
  4 89  1  0  0  0
  5  6  1  0  0  0
  5 26  1  0  0  0
  5 90  1  0  0  0
  6 25  1  0  0  0
  6 91  1  0  0  0
  6 92  1  0  0  0
  7  8  2  0  0  0
  7 26  1  0  0  0
  7 29  1  0  0  0
  8  9  1  0  0  0
  8 22  1  0  0  0
  9 10  1  0  0  0
  9 27  2  0  0  0
 10 11  2  0  0  0
 10 15  1  0  0  0
 11 12  1  0  0  0
 11 93  1  0  0  0
 12 13  2  0  0  0
 12 94  1  0  0  0
 13 14  1  0  0  0
 13 31  1  0  0  0
 14 15  2  0  0  0
 14 95  1  0  0  0
 15 96  1  0  0  0
 16 17  2  0  0  0
 16 21  1  0  0  0
 16 31  1  0  0  0
 17 18  1  0  0  0
 17 97  1  0  0  0
 18 19  2  0  0  0
 18 98  1  0  0  0
 19 20  1  0  0  0
 19 24  1  0  0  0
 20 21  2  0  0  0
 20 99  1  0  0  0
 21 23  1  0  0  0
 22 28  1  0  0  0
 22 32  2  0  0  0
 26 27  1  0  0  0
 28100  1  0  0  0
 28101  1  0  0  0
 29102  1  0  0  0
 29103  1  0  0  0
 33 34  1  0  0  0
 33 66  1  0  0  0
 33 70  2  0  0  0
 34 36  1  0  0  0
 34 59  1  0  0  0
 34104  1  0  0  0
 35 44  2  0  0  0
 35 45  1  0  0  0
 35 68  1  0  0  0
 36 56  1  0  0  0
 36105  1  0  0  0
 37 39  1  0  0  0
 37 47  1  0  0  0
 37 66  1  0  0  0
 37106  1  0  0  0
 38 43  2  0  0  0
 38 46  1  0  0  0
 38 47  1  0  0  0
 39 64  1  0  0  0
 39 67  2  0  0  0
 40 52  1  0  0  0
 40 53  2  0  0  0
 40 58  1  0  0  0
 41107  1  0  0  0
 41108  1  0  0  0
 41109  1  0  0  0
 41 48  1  0  0  0
 42 43  1  0  0  0
 42 66  1  0  0  0
 42110  1  0  0  0
 42111  1  0  0  0
 43 44  1  0  0  0
 44112  1  0  0  0
 45 46  2  0  0  0
 45113  1  0  0  0
 46114  1  0  0  0
 47115  1  0  0  0
 47116  1  0  0  0
 48 56  1  0  0  0
 48 65  1  0  0  0
 48117  1  0  0  0
 49 50  1  0  0  0
 49 53  1  0  0  0
 49 64  1  0  0  0
 49118  1  0  0  0
 50 51  1  0  0  0
 50119  1  0  0  0
 50120  1  0  0  0
 51 52  1  0  0  0
 51121  1  0  0  0
 51122  1  0  0  0
 52123  1  0  0  0
 52124  1  0  0  0
 53 54  1  0  0  0
 54 55  2  0  0  0
 54125  1  0  0  0
 55 57  1  0  0  0
 55126  1  0  0  0
 56 69  2  0  0  0
 57 58  2  0  0  0
 57127  1  0  0  0
 58128  1  0  0  0
 59 60  1  0  0  0
 59 61  1  0  0  0
 59 62  1  0  0  0
 60129  1  0  0  0
 60130  1  0  0  0
 60131  1  0  0  0
 61132  1  0  0  0
 61133  1  0  0  0
 61134  1  0  0  0
 62135  1  0  0  0
 62136  1  0  0  0
 62137  1  0  0  0
 63 65  1  0  0  0
 63138  1  0  0  0
 63139  1  0  0  0
 63140  1  0  0  0
 64141  1  0  0  0
 65142  1  0  0  0
 68 80  1  0  0  0
 71 73  1  0  0  0
 71 74  1  0  0  0
 71143  1  0  0  0
 71144  1  0  0  0
 72 73  1  0  0  0
 72 83  1  0  0  0
 72145  1  0  0  0
 72146  1  0  0  0
 73 82  1  0  0  0
 73147  1  0  0  0
 74 76  1  0  0  0
 74 83  1  0  0  0
 74148  1  0  0  0
 75149  1  0  0  0
 75150  1  0  0  0
 75151  1  0  0  0
 75 81  1  0  0  0
 76 77  1  0  0  0
 76152  1  0  0  0
 76153  1  0  0  0
 77 78  1  0  0  0
 77154  1  0  0  0
 77155  1  0  0  0
 78 79  1  0  0  0
 78156  1  0  0  0
 78157  1  0  0  0
 79 81  1  0  0  0
 79158  1  0  0  0
 79159  1  0  0  0
 80 81  1  0  0  0
 80160  1  0  0  0
 80161  1  0  0  0
 81162  1  0  0  0
 82163  1  0  0  0
 83164  1  0  0  0
 83165  1  0  0  0
M  CHG  1  83   1
M  ISO  4   1 100  68 101  80 101  82 100
M  END
> <chiral flag>
0

> <version>
0

> <s_m_source_file>
/data/baiqing/PycharmProjects/Reinvent-master-3.2/result/LINK_invent/BTK/process_docking_weight1_custom_sum_contain_oxygen_bond_distance_aromatic_linkinvent_7_9_3/rearranged_h_0125.sdf

> <i_m_source_file_index>
59

> <r_mmod_Potential_Energy-OPLS-2005>
-178.522521972656

> <r_mmod_Stretch_Energy-OPLS-2005>
34.0874176025391

> <r_mmod_Bend_Energy-OPLS-2005>
126.568664550781

> <r_mmod_Torsional_Energy-OPLS-2005>
274.8427734375

> <r_mmod_Improper_Torsional_Energy-OPLS-2005>
1.82077515125275

> <r_mmod_Van_der_Waal_Energy-OPLS-2005>
127.256462097168

> <r_mmod_Electrostatic_Energy-OPLS-2005>
-280.540161132812

> <r_mmod_Solvation_Energy-OPLS-2005>
-470.409698486328

> <b_mmod_Minimization_Converged-OPLS-2005>
0

> <r_mmod_RMS_Derivative-OPLS-2005>
0.682934939861298

$$$$
60
                    3D
 Structure written by MMmdl.
169178  0  0  1  0            999 V2000
  -30.5529  -14.9212   20.4300 C   0  0  0  0  0  0
  -30.4409  -12.5698   19.5114 C   0  0  0  0  0  0
  -29.5268  -12.5384   18.2650 C   0  0  0  0  0  0
  -28.0594  -12.3197   18.6768 C   0  0  0  0  0  0
  -27.6334  -13.2464   19.8460 C   0  0  2  0  0  0
  -28.6716  -13.2660   20.9891 C   0  0  0  0  0  0
  -25.2465  -13.8192   20.5729 C   0  0  0  0  0  0
  -24.1760  -13.0433   20.9223 C   0  0  0  0  0  0
  -24.6381  -11.6913   20.8753 C   0  0  0  0  0  0
  -23.9072  -10.4292   21.0410 C   0  0  0  0  0  0
  -24.3626   -9.4201   21.9174 C   0  0  0  0  0  0
  -23.6297   -8.2232   22.0738 C   0  0  0  0  0  0
  -22.4281   -8.0274   21.3528 C   0  0  0  0  0  0
  -21.9924   -9.0256   20.4638 C   0  0  0  0  0  0
  -22.7246  -10.2132   20.3059 C   0  0  0  0  0  0
  -21.6859   -6.0739   22.5267 C   0  0  0  0  0  0
  -21.4010   -6.5634   23.8208 C   0  0  0  0  0  0
  -21.3662   -5.6776   24.9161 C   0  0  0  0  0  0
  -21.6050   -4.3041   24.7202 C   0  0  0  0  0  0
  -21.8820   -3.8142   23.4322 C   0  0  0  0  0  0
  -21.9188   -4.6962   22.3389 C   0  0  0  0  0  0
  -22.7787  -13.5213   21.1879 C   0  0  0  0  0  0
  -22.1660   -4.2149   21.0965 F   0  0  0  0  0  0
  -21.5634   -3.4516   25.7715 F   0  0  0  0  0  0
  -29.9579  -13.6626   20.4013 N   0  0  0  0  0  0
  -26.2888  -12.9427   20.3272 N   0  0  0  0  0  0
  -25.9314  -11.6562   20.5736 N   0  0  0  0  0  0
  -22.0414  -12.8220   22.0435 N   0  0  0  0  0  0
  -25.4135  -15.1900   20.4172 N   0  0  0  0  0  0
  -31.7453  -14.9944   20.1166 O   0  0  0  0  0  0
  -21.6637   -6.8879   21.4235 O   0  0  0  0  0  0
  -22.3490  -14.5522   20.6706 O   0  0  0  0  0  0
  -24.6444  -31.8427   23.1875 C   0  0  0  0  0  0
  -25.9227  -32.4665   23.8265 C   0  0  1  0  0  0
  -27.2323  -27.1505   20.1584 C   0  0  0  0  0  0
  -25.5986  -33.8476   24.2189 N   0  0  0  0  0  0
  -23.4462  -30.4587   21.5317 C   0  0  2  0  0  0
  -24.9003  -28.8838   20.1102 C   0  0  0  0  0  0
  -22.7543  -29.4532   22.4855 C   0  0  0  0  0  0
  -18.0308  -28.1401   22.8463 C   0  0  0  0  0  0
  -24.1499  -36.7257   23.2635 C   0  0  0  0  0  0
  -26.0000  -30.7197   21.3863 C   0  0  0  0  0  0
  -26.0747  -29.3326   20.7293 C   0  0  0  0  0  0
  -27.2415  -28.4819   20.7343 C   0  0  0  0  0  0
  -26.0332  -26.7960   19.5029 C   0  0  0  0  0  0
  -24.8925  -27.6295   19.4808 C   0  0  0  0  0  0
  -23.6733  -29.7832   20.1520 C   0  0  0  0  0  0
  -25.4122  -36.3006   24.0309 C   0  0  1  0  0  0
  -20.5913  -28.3717   23.1254 C   0  0  2  0  0  0
  -20.6779  -26.9418   22.5418 C   0  0  0  0  0  0
  -19.5770  -26.6382   21.5210 C   0  0  0  0  0  0
  -18.1949  -26.7945   22.1604 C   0  0  0  0  0  0
  -19.1560  -28.8880   23.2845 C   0  0  0  0  0  0
  -18.9470  -30.1477   23.8850 C   0  0  0  0  0  0
  -17.6464  -30.6586   24.0565 C   0  0  0  0  0  0
  -25.9082  -34.9380   23.5056 C   0  0  0  0  0  0
  -16.5354  -29.9070   23.6341 C   0  0  0  0  0  0
  -16.7294  -28.6506   23.0330 C   0  0  0  0  0  0
  -26.4561  -31.6532   25.0705 C   0  0  0  0  0  0
  -25.3757  -31.3740   26.1416 C   0  0  0  0  0  0
  -27.0417  -30.2905   24.6305 C   0  0  0  0  0  0
  -27.6067  -32.4321   25.7504 C   0  0  0  0  0  0
  -27.5581  -37.1767   24.8449 C   0  0  0  0  0  0
  -21.4238  -29.3041   22.3610 N   0  0  0  0  0  0
  -26.4277  -37.3724   23.9417 N   0  0  0  0  0  0
  -24.7156  -31.0273   22.0910 N   0  0  0  0  0  0
  -23.4176  -28.8093   23.3016 O   0  0  0  0  0  0
  -28.3037  -26.1906   20.2040 O   0  0  0  0  0  0
  -26.5636  -34.8880   22.4618 O   0  0  0  0  0  0
  -23.5569  -32.1327   23.7085 O   0  0  0  0  0  0
  -26.6984  -19.2950   21.6075 C   0  0  0  0  0  0
  -28.9769  -24.2059   21.4802 C   0  0  0  0  0  0
  -27.1022  -19.0110   23.0615 C   0  0  0  0  0  0
  -29.4779  -18.8207   22.4044 C   0  0  0  0  0  0
  -27.6577  -18.6300   20.5892 C   0  0  2  0  0  0
  -29.0556  -23.3342   20.2437 C   0  0  2  0  0  0
  -28.0503  -24.6641   20.3708 C   0  0  2  0  0  0
  -29.1704  -18.9502   20.8693 C   0  0  2  0  0  0
  -25.8086  -18.4991   18.7643 C   0  0  0  0  0  0
  -27.2429  -18.9135   19.1201 C   0  0  0  0  0  0
  -30.0526  -17.6247   20.2699 C   0  0  0  0  0  0
  -29.5489  -20.5462   20.3568 C   0  0  0  0  0  0
  -29.7750  -16.0962   20.5979 N   0  0  0  0  0  0
  -28.4905  -19.4354   23.3196 N   0  3  0  0  0  0
  -28.6261  -21.8345   20.5398 N   0  3  0  0  0  0
  -31.4768  -12.7189   19.2046 H   0  0  0  0  0  0
  -30.4208  -11.6109   20.0338 H   0  0  0  0  0  0
  -29.8549  -11.7559   17.5786 H   0  0  0  0  0  0
  -29.6131  -13.4822   17.7228 H   0  0  0  0  0  0
  -27.9600  -11.2771   18.9795 H   0  0  0  0  0  0
  -27.3992  -12.4560   17.8188 H   0  0  0  0  0  0
  -27.6011  -14.2521   19.4249 H   0  0  0  0  0  0
  -28.7440  -12.2925   21.4771 H   0  0  0  0  0  0
  -28.3696  -13.9739   21.7624 H   0  0  0  0  0  0
  -25.2779   -9.5667   22.4730 H   0  0  0  0  0  0
  -23.9997   -7.4640   22.7474 H   0  0  0  0  0  0
  -21.0840   -8.8794   19.8971 H   0  0  0  0  0  0
  -22.3717  -10.9668   19.6161 H   0  0  0  0  0  0
  -21.2004   -7.6141   23.9711 H   0  0  0  0  0  0
  -21.1492   -6.0501   25.9068 H   0  0  0  0  0  0
  -22.0603   -2.7603   23.2810 H   0  0  0  0  0  0
  -22.4030  -11.9899   22.4873 H   0  0  0  0  0  0
  -21.1031  -13.1276   22.2622 H   0  0  0  0  0  0
  -24.6309  -15.8292   20.4923 H   0  0  0  0  0  0
  -26.2342  -15.6147   20.0073 H   0  0  0  0  0  0
  -26.7280  -32.5256   23.0979 H   0  0  0  0  0  0
  -25.0136  -33.9594   25.0341 H   0  0  0  0  0  0
  -22.7512  -31.2850   21.3735 H   0  0  0  0  0  0
  -23.3757  -35.9596   23.3260 H   0  0  0  0  0  0
  -24.3582  -36.8922   22.2053 H   0  0  0  0  0  0
  -23.7257  -37.6439   23.6712 H   0  0  0  0  0  0
  -26.1536  -31.4765   20.6166 H   0  0  0  0  0  0
  -26.8718  -30.7703   22.0269 H   0  0  0  0  0  0
  -28.1386  -28.8207   21.2340 H   0  0  0  0  0  0
  -25.9609  -25.8389   19.0080 H   0  0  0  0  0  0
  -23.9991  -27.2809   18.9815 H   0  0  0  0  0  0
  -23.8048  -30.5585   19.3964 H   0  0  0  0  0  0
  -22.7912  -29.2199   19.8410 H   0  0  0  0  0  0
  -25.1308  -36.1814   25.0797 H   0  0  0  0  0  0
  -21.0001  -28.3311   24.1380 H   0  0  0  0  0  0
  -20.5664  -26.2324   23.3628 H   0  0  0  0  0  0
  -21.6646  -26.7422   22.1222 H   0  0  0  0  0  0
  -19.6927  -25.6287   21.1253 H   0  0  0  0  0  0
  -19.6732  -27.3172   20.6726 H   0  0  0  0  0  0
  -17.4224  -26.6706   21.3994 H   0  0  0  0  0  0
  -18.0329  -26.0090   22.9002 H   0  0  0  0  0  0
  -19.7944  -30.7321   24.2174 H   0  0  0  0  0  0
  -17.5012  -31.6247   24.5195 H   0  0  0  0  0  0
  -15.5352  -30.2947   23.7704 H   0  0  0  0  0  0
  -15.8695  -28.0823   22.7039 H   0  0  0  0  0  0
  -24.5959  -30.7042   25.7783 H   0  0  0  0  0  0
  -24.8923  -32.2925   26.4753 H   0  0  0  0  0  0
  -25.8070  -30.8998   27.0246 H   0  0  0  0  0  0
  -26.3030  -29.6603   24.1328 H   0  0  0  0  0  0
  -27.4022  -29.7226   25.4902 H   0  0  0  0  0  0
  -27.8963  -30.4101   23.9634 H   0  0  0  0  0  0
  -27.2624  -33.3635   26.2034 H   0  0  0  0  0  0
  -28.3921  -32.6867   25.0369 H   0  0  0  0  0  0
  -28.0720  -31.8482   26.5462 H   0  0  0  0  0  0
  -28.2551  -38.0104   24.7511 H   0  0  0  0  0  0
  -28.1112  -36.2624   24.6247 H   0  0  0  0  0  0
  -27.2306  -37.1381   25.8848 H   0  0  0  0  0  0
  -20.9450  -29.8744   21.6781 H   0  0  0  0  0  0
  -26.0132  -38.2786   24.1432 H   0  0  0  0  0  0
  -26.6167  -20.3671   21.4415 H   0  0  0  0  0  0
  -25.6877  -18.9090   21.4759 H   0  0  0  0  0  0
  -29.8492  -24.8247   21.6861 H   0  0  0  0  0  0
  -28.4930  -23.8130   22.3727 H   0  0  0  0  0  0
  -26.9957  -17.9461   23.2750 H   0  0  0  0  0  0
  -26.4344  -19.5315   23.7490 H   0  0  0  0  0  0
  -30.4704  -19.2130   22.6305 H   0  0  0  0  0  0
  -29.5207  -17.7690   22.6901 H   0  0  0  0  0  0
  -27.5257  -17.5602   20.7490 H   0  0  0  0  0  0
  -29.9219  -23.4071   19.5887 H   0  0  0  0  0  0
  -26.9907  -24.4533   20.5044 H   0  0  0  0  0  0
  -25.6142  -18.6635   17.7042 H   0  0  0  0  0  0
  -25.0690  -19.0831   19.3125 H   0  0  0  0  0  0
  -25.6319  -17.4444   18.9664 H   0  0  0  0  0  0
  -27.9208  -18.3927   18.4440 H   0  0  0  0  0  0
  -27.3421  -19.9707   18.8797 H   0  0  0  0  0  0
  -31.1023  -17.7964   20.5137 H   0  0  0  0  0  0
  -30.0243  -17.6902   19.1816 H   0  0  0  0  0  0
  -29.7521  -20.4952   19.2863 H   0  0  0  0  0  0
  -30.5150  -20.8039   20.7884 H   0  0  0  0  0  0
  -28.8194  -15.8889   20.8439 H   0  0  0  0  0  0
  -28.7254  -19.1497   24.2585 H   0  0  0  0  0  0
  -28.5658  -20.4369   23.3239 H   0  0  0  0  0  0
  -27.8271  -21.6733   19.9488 H   0  0  0  0  0  0
  -28.2864  -21.8519   21.4832 H   0  0  0  0  0  0
  1 25  1  0  0  0
  1 30  2  0  0  0
  1 83  1  0  0  0
  2  3  1  0  0  0
  2 25  1  0  0  0
  2 86  1  0  0  0
  2 87  1  0  0  0
  3  4  1  0  0  0
  3 88  1  0  0  0
  3 89  1  0  0  0
  4  5  1  0  0  0
  4 90  1  0  0  0
  4 91  1  0  0  0
  5  6  1  0  0  0
  5 26  1  0  0  0
  5 92  1  0  0  0
  6 25  1  0  0  0
  6 93  1  0  0  0
  6 94  1  0  0  0
  7  8  2  0  0  0
  7 26  1  0  0  0
  7 29  1  0  0  0
  8  9  1  0  0  0
  8 22  1  0  0  0
  9 10  1  0  0  0
  9 27  2  0  0  0
 10 11  2  0  0  0
 10 15  1  0  0  0
 11 12  1  0  0  0
 11 95  1  0  0  0
 12 13  2  0  0  0
 12 96  1  0  0  0
 13 14  1  0  0  0
 13 31  1  0  0  0
 14 15  2  0  0  0
 14 97  1  0  0  0
 15 98  1  0  0  0
 16 17  2  0  0  0
 16 21  1  0  0  0
 16 31  1  0  0  0
 17 18  1  0  0  0
 17 99  1  0  0  0
 18 19  2  0  0  0
 18100  1  0  0  0
 19 20  1  0  0  0
 19 24  1  0  0  0
 20 21  2  0  0  0
 20101  1  0  0  0
 21 23  1  0  0  0
 22 28  1  0  0  0
 22 32  2  0  0  0
 26 27  1  0  0  0
 28102  1  0  0  0
 28103  1  0  0  0
 29104  1  0  0  0
 29105  1  0  0  0
 33 34  1  0  0  0
 33 66  1  0  0  0
 33 70  2  0  0  0
 34 36  1  0  0  0
 34 59  1  0  0  0
 34106  1  0  0  0
 35 44  2  0  0  0
 35 45  1  0  0  0
 35 68  1  0  0  0
 36 56  1  0  0  0
 36107  1  0  0  0
 37 39  1  0  0  0
 37 47  1  0  0  0
 37 66  1  0  0  0
 37108  1  0  0  0
 38 43  2  0  0  0
 38 46  1  0  0  0
 38 47  1  0  0  0
 39 64  1  0  0  0
 39 67  2  0  0  0
 40 52  1  0  0  0
 40 53  2  0  0  0
 40 58  1  0  0  0
 41109  1  0  0  0
 41110  1  0  0  0
 41111  1  0  0  0
 41 48  1  0  0  0
 42 43  1  0  0  0
 42 66  1  0  0  0
 42112  1  0  0  0
 42113  1  0  0  0
 43 44  1  0  0  0
 44114  1  0  0  0
 45 46  2  0  0  0
 45115  1  0  0  0
 46116  1  0  0  0
 47117  1  0  0  0
 47118  1  0  0  0
 48 56  1  0  0  0
 48 65  1  0  0  0
 48119  1  0  0  0
 49 50  1  0  0  0
 49 53  1  0  0  0
 49 64  1  0  0  0
 49120  1  0  0  0
 50 51  1  0  0  0
 50121  1  0  0  0
 50122  1  0  0  0
 51 52  1  0  0  0
 51123  1  0  0  0
 51124  1  0  0  0
 52125  1  0  0  0
 52126  1  0  0  0
 53 54  1  0  0  0
 54 55  2  0  0  0
 54127  1  0  0  0
 55 57  1  0  0  0
 55128  1  0  0  0
 56 69  2  0  0  0
 57 58  2  0  0  0
 57129  1  0  0  0
 58130  1  0  0  0
 59 60  1  0  0  0
 59 61  1  0  0  0
 59 62  1  0  0  0
 60131  1  0  0  0
 60132  1  0  0  0
 60133  1  0  0  0
 61134  1  0  0  0
 61135  1  0  0  0
 61136  1  0  0  0
 62137  1  0  0  0
 62138  1  0  0  0
 62139  1  0  0  0
 63 65  1  0  0  0
 63140  1  0  0  0
 63141  1  0  0  0
 63142  1  0  0  0
 64143  1  0  0  0
 65144  1  0  0  0
 68 77  1  0  0  0
 71 73  1  0  0  0
 71 75  1  0  0  0
 71145  1  0  0  0
 71146  1  0  0  0
 72 76  1  0  0  0
 72 77  1  0  0  0
 72147  1  0  0  0
 72148  1  0  0  0
 73 84  1  0  0  0
 73149  1  0  0  0
 73150  1  0  0  0
 74 78  1  0  0  0
 74 84  1  0  0  0
 74151  1  0  0  0
 74152  1  0  0  0
 75 78  1  0  0  0
 75 80  1  0  0  0
 75153  1  0  0  0
 76 77  1  0  0  0
 76 85  1  0  0  0
 76154  1  0  0  0
 77155  1  0  0  0
 78 81  1  0  0  0
 78 82  1  0  0  0
 79 80  1  0  0  0
 79156  1  0  0  0
 79157  1  0  0  0
 79158  1  0  0  0
 80159  1  0  0  0
 80160  1  0  0  0
 81 83  1  0  0  0
 81161  1  0  0  0
 81162  1  0  0  0
 82 85  1  0  0  0
 82163  1  0  0  0
 82164  1  0  0  0
 83165  1  0  0  0
 84166  1  0  0  0
 84167  1  0  0  0
 85168  1  0  0  0
 85169  1  0  0  0
M  CHG  2  84   1  85   1
M  ISO  4   1 100  68 101  77 101  83 100
M  END
> <chiral flag>
0

> <version>
0

> <s_m_source_file>
/data/baiqing/PycharmProjects/Reinvent-master-3.2/result/LINK_invent/BTK/process_docking_weight1_custom_sum_contain_oxygen_bond_distance_aromatic_linkinvent_7_9_3/rearranged_h_0125.sdf

> <i_m_source_file_index>
60

> <r_mmod_Potential_Energy-OPLS-2005>
244.393432617188

> <r_mmod_Stretch_Energy-OPLS-2005>
281.772888183594

> <r_mmod_Bend_Energy-OPLS-2005>
280.853973388672

> <r_mmod_Torsional_Energy-OPLS-2005>
334.754089355469

> <r_mmod_Improper_Torsional_Energy-OPLS-2005>
5.23964309692383

> <r_mmod_Van_der_Waal_Energy-OPLS-2005>
108.727722167969

> <r_mmod_Electrostatic_Energy-OPLS-2005>
149.23503112793

> <r_mmod_Solvation_Energy-OPLS-2005>
-1090.84167480469

> <b_mmod_Minimization_Converged-OPLS-2005>
0

> <r_mmod_RMS_Derivative-OPLS-2005>
2.80096697807312

$$$$
61
                    3D
 Structure written by MMmdl.
151159  0  0  1  0            999 V2000
  -30.4290  -15.2541   20.3097 C   0  0  0  0  0  0
  -30.4541  -12.7864   19.5025 C   0  0  0  0  0  0
  -29.5408  -12.5009   18.2818 C   0  0  0  0  0  0
  -28.0793  -12.2653   18.7163 C   0  0  0  0  0  0
  -27.6082  -13.2449   19.8221 C   0  0  2  0  0  0
  -28.6587  -13.4397   20.9355 C   0  0  0  0  0  0
  -25.2437  -13.8162   20.5807 C   0  0  0  0  0  0
  -24.1742  -13.0400   20.9277 C   0  0  0  0  0  0
  -24.6357  -11.6884   20.8797 C   0  0  0  0  0  0
  -23.9048  -10.4268   21.0423 C   0  0  0  0  0  0
  -24.3607   -9.4183   21.9190 C   0  0  0  0  0  0
  -23.6287   -8.2219   22.0750 C   0  0  0  0  0  0
  -22.4271   -8.0262   21.3539 C   0  0  0  0  0  0
  -21.9904   -9.0237   20.4644 C   0  0  0  0  0  0
  -22.7227  -10.2119   20.3059 C   0  0  0  0  0  0
  -21.6847   -6.0727   22.5279 C   0  0  0  0  0  0
  -21.4003   -6.5633   23.8210 C   0  0  0  0  0  0
  -21.3657   -5.6790   24.9175 C   0  0  0  0  0  0
  -21.6045   -4.3053   24.7227 C   0  0  0  0  0  0
  -21.8820   -3.8141   23.4350 C   0  0  0  0  0  0
  -21.9190   -4.6955   22.3405 C   0  0  0  0  0  0
  -22.7768  -13.5190   21.1905 C   0  0  0  0  0  0
  -22.1661   -4.2139   21.0985 F   0  0  0  0  0  0
  -21.5637   -3.4539   25.7741 F   0  0  0  0  0  0
  -29.8816  -13.9383   20.2809 N   0  0  0  0  0  0
  -26.2826  -12.9352   20.3321 N   0  0  0  0  0  0
  -25.9290  -11.6499   20.5804 N   0  0  0  0  0  0
  -22.0409  -12.8184   22.0451 N   0  0  0  0  0  0
  -25.4143  -15.1893   20.4262 N   0  0  0  0  0  0
  -31.6688  -15.2608   20.2648 O   0  0  0  0  0  0
  -21.6630   -6.8865   21.4239 O   0  0  0  0  0  0
  -22.3468  -14.5496   20.6736 O   0  0  0  0  0  0
  -24.6592  -31.8267   23.1715 C   0  0  0  0  0  0
  -25.9285  -32.4602   23.8176 C   0  0  1  0  0  0
  -27.2273  -26.9681   20.1841 C   0  0  0  0  0  0
  -25.5965  -33.8415   24.2086 N   0  0  0  0  0  0
  -23.4730  -30.4375   21.5196 C   0  0  2  0  0  0
  -24.9276  -28.8290   20.1122 C   0  0  0  0  0  0
  -22.7653  -29.4454   22.4786 C   0  0  0  0  0  0
  -18.0320  -28.1408   22.8471 C   0  0  0  0  0  0
  -24.1493  -36.7213   23.2647 C   0  0  0  0  0  0
  -26.0388  -30.6473   21.3952 C   0  0  0  0  0  0
  -26.1091  -29.2400   20.7416 C   0  0  0  0  0  0
  -27.2542  -28.3302   20.7517 C   0  0  0  0  0  0
  -26.0162  -26.6956   19.5106 C   0  0  0  0  0  0
  -24.9039  -27.5763   19.4770 C   0  0  0  0  0  0
  -23.7108  -29.7513   20.1460 C   0  0  0  0  0  0
  -25.4132  -36.2976   24.0304 C   0  0  1  0  0  0
  -20.5945  -28.3749   23.1194 C   0  0  2  0  0  0
  -20.6797  -26.9431   22.5403 C   0  0  0  0  0  0
  -19.5767  -26.6377   21.5217 C   0  0  0  0  0  0
  -18.1951  -26.7941   22.1627 C   0  0  0  0  0  0
  -19.1582  -28.8898   23.2820 C   0  0  0  0  0  0
  -18.9491  -30.1490   23.8850 C   0  0  0  0  0  0
  -17.6484  -30.6595   24.0557 C   0  0  0  0  0  0
  -25.9096  -34.9358   23.5017 C   0  0  0  0  0  0
  -16.5375  -29.9084   23.6343 C   0  0  0  0  0  0
  -16.7302  -28.6507   23.0358 C   0  0  0  0  0  0
  -26.4554  -31.6532   25.0686 C   0  0  0  0  0  0
  -25.3693  -31.3772   26.1350 C   0  0  0  0  0  0
  -27.0448  -30.2904   24.6393 C   0  0  0  0  0  0
  -27.6053  -32.4335   25.7480 C   0  0  0  0  0  0
  -27.5572  -37.1760   24.8466 C   0  0  0  0  0  0
  -21.4326  -29.3041   22.3543 N   0  0  0  0  0  0
  -26.4279  -37.3708   23.9412 N   0  0  0  0  0  0
  -24.7445  -30.9970   22.0827 N   0  0  0  0  0  0
  -23.4216  -28.8027   23.3020 O   0  0  0  0  0  0
  -28.2527  -25.8986   20.2659 O   0  0  0  0  0  0
  -26.5705  -34.8893   22.4614 O   0  0  0  0  0  0
  -23.5669  -32.1210   23.6837 O   0  0  0  0  0  0
  -28.1237  -20.1747   20.1655 C   0  0  0  0  0  0
  -30.5323  -19.0463   20.5025 C   0  0  0  0  0  0
  -29.1633  -21.1692   20.3521 C   0  0  0  0  0  0
  -29.4997  -18.0434   20.2757 C   0  0  0  0  0  0
  -29.6851  -17.0279   17.4947 C   0  0  0  0  0  0
  -29.1377  -22.9122   20.4599 C   0  0  0  0  0  0
  -28.9861  -16.2629   18.6361 C   0  0  0  0  0  0
  -28.0468  -24.2790   20.1198 C   0  0  0  0  0  0
  -30.3699  -20.4687   20.5360 N   0  0  0  0  0  0
  -28.2937  -18.7588   20.1272 N   0  0  0  0  0  0
  -29.6378  -16.4663   19.9504 N   0  0  0  0  0  0
  -31.4633  -13.0108   19.1536 H   0  0  0  0  0  0
  -30.5468  -11.9004   20.1336 H   0  0  0  0  0  0
  -29.9091  -11.6259   17.7441 H   0  0  0  0  0  0
  -29.5958  -13.3194   17.5656 H   0  0  0  0  0  0
  -28.0213  -11.2451   19.0973 H   0  0  0  0  0  0
  -27.4112  -12.3030   17.8550 H   0  0  0  0  0  0
  -27.4827  -14.1961   19.3200 H   0  0  0  0  0  0
  -28.8369  -12.5141   21.4849 H   0  0  0  0  0  0
  -28.3073  -14.1739   21.6624 H   0  0  0  0  0  0
  -25.2747   -9.5664   22.4772 H   0  0  0  0  0  0
  -23.9997   -7.4605   22.7463 H   0  0  0  0  0  0
  -21.0835   -8.8753   19.8951 H   0  0  0  0  0  0
  -22.3677  -10.9663   19.6178 H   0  0  0  0  0  0
  -21.1985   -7.6139   23.9708 H   0  0  0  0  0  0
  -21.1482   -6.0522   25.9079 H   0  0  0  0  0  0
  -22.0602   -2.7603   23.2853 H   0  0  0  0  0  0
  -22.4031  -11.9855   22.4853 H   0  0  0  0  0  0
  -21.1018  -13.1194   22.2640 H   0  0  0  0  0  0
  -24.6526  -15.8478   20.5477 H   0  0  0  0  0  0
  -26.2800  -15.6334   20.1476 H   0  0  0  0  0  0
  -26.7354  -32.5158   23.0896 H   0  0  0  0  0  0
  -25.0064  -33.9494   25.0204 H   0  0  0  0  0  0
  -22.7847  -31.2678   21.3495 H   0  0  0  0  0  0
  -23.3767  -35.9529   23.3275 H   0  0  0  0  0  0
  -24.3580  -36.8890   22.2069 H   0  0  0  0  0  0
  -23.7234  -37.6389   23.6720 H   0  0  0  0  0  0
  -26.2142  -31.3899   20.6157 H   0  0  0  0  0  0
  -26.9007  -30.7047   22.0481 H   0  0  0  0  0  0
  -28.1501  -28.6438   21.2688 H   0  0  0  0  0  0
  -25.9004  -25.7359   19.0288 H   0  0  0  0  0  0
  -24.0057  -27.2547   18.9682 H   0  0  0  0  0  0
  -23.8615  -30.5182   19.3852 H   0  0  0  0  0  0
  -22.8224  -29.2006   19.8322 H   0  0  0  0  0  0
  -25.1329  -36.1777   25.0794 H   0  0  0  0  0  0
  -21.0037  -28.3350   24.1316 H   0  0  0  0  0  0
  -20.5680  -26.2365   23.3642 H   0  0  0  0  0  0
  -21.6659  -26.7410   22.1206 H   0  0  0  0  0  0
  -19.6923  -25.6277   21.1271 H   0  0  0  0  0  0
  -19.6700  -27.3169   20.6733 H   0  0  0  0  0  0
  -17.4219  -26.6684   21.4031 H   0  0  0  0  0  0
  -18.0342  -26.0095   22.9035 H   0  0  0  0  0  0
  -19.7966  -30.7322   24.2191 H   0  0  0  0  0  0
  -17.5034  -31.6269   24.5169 H   0  0  0  0  0  0
  -15.5371  -30.2968   23.7691 H   0  0  0  0  0  0
  -15.8707  -28.0812   22.7088 H   0  0  0  0  0  0
  -24.5871  -30.7131   25.7653 H   0  0  0  0  0  0
  -24.8888  -32.2974   26.4682 H   0  0  0  0  0  0
  -25.7928  -30.8987   27.0189 H   0  0  0  0  0  0
  -26.3106  -29.6577   24.1389 H   0  0  0  0  0  0
  -27.3988  -29.7264   25.5035 H   0  0  0  0  0  0
  -27.9044  -30.4095   23.9793 H   0  0  0  0  0  0
  -27.2626  -33.3675   26.1945 H   0  0  0  0  0  0
  -28.3916  -32.6831   25.0343 H   0  0  0  0  0  0
  -28.0664  -31.8535   26.5486 H   0  0  0  0  0  0
  -28.2566  -38.0078   24.7526 H   0  0  0  0  0  0
  -28.1090  -36.2607   24.6275 H   0  0  0  0  0  0
  -27.2294  -37.1381   25.8869 H   0  0  0  0  0  0
  -20.9569  -29.8732   21.6681 H   0  0  0  0  0  0
  -26.0130  -38.2767   24.1420 H   0  0  0  0  0  0
  -27.1053  -20.5113   20.0371 H   0  0  0  0  0  0
  -31.5552  -18.7114   20.5939 H   0  0  0  0  0  0
  -29.2374  -16.7669   16.5353 H   0  0  0  0  0  0
  -30.7446  -16.7741   17.4366 H   0  0  0  0  0  0
  -29.6009  -18.1098   17.5979 H   0  0  0  0  0  0
  -30.0367  -23.1770   19.9039 H   0  0  0  0  0  0
  -29.4248  -23.0733   21.4986 H   0  0  0  0  0  0
  -28.9759  -15.2333   18.3036 H   0  0  0  0  0  0
  -27.9366  -16.5535   18.6954 H   0  0  0  0  0  0
  -27.1409  -24.0725   20.6905 H   0  0  0  0  0  0
  -27.7472  -24.1468   19.0804 H   0  0  0  0  0  0
  1 25  1  0  0  0
  1 30  2  0  0  0
  1 81  1  0  0  0
  2  3  1  0  0  0
  2 25  1  0  0  0
  2 82  1  0  0  0
  2 83  1  0  0  0
  3  4  1  0  0  0
  3 84  1  0  0  0
  3 85  1  0  0  0
  4  5  1  0  0  0
  4 86  1  0  0  0
  4 87  1  0  0  0
  5  6  1  0  0  0
  5 26  1  0  0  0
  5 88  1  0  0  0
  6 25  1  0  0  0
  6 89  1  0  0  0
  6 90  1  0  0  0
  7  8  2  0  0  0
  7 26  1  0  0  0
  7 29  1  0  0  0
  8  9  1  0  0  0
  8 22  1  0  0  0
  9 10  1  0  0  0
  9 27  2  0  0  0
 10 11  2  0  0  0
 10 15  1  0  0  0
 11 12  1  0  0  0
 11 91  1  0  0  0
 12 13  2  0  0  0
 12 92  1  0  0  0
 13 14  1  0  0  0
 13 31  1  0  0  0
 14 15  2  0  0  0
 14 93  1  0  0  0
 15 94  1  0  0  0
 16 17  2  0  0  0
 16 21  1  0  0  0
 16 31  1  0  0  0
 17 18  1  0  0  0
 17 95  1  0  0  0
 18 19  2  0  0  0
 18 96  1  0  0  0
 19 20  1  0  0  0
 19 24  1  0  0  0
 20 21  2  0  0  0
 20 97  1  0  0  0
 21 23  1  0  0  0
 22 28  1  0  0  0
 22 32  2  0  0  0
 26 27  1  0  0  0
 28 98  1  0  0  0
 28 99  1  0  0  0
 29100  1  0  0  0
 29101  1  0  0  0
 33 34  1  0  0  0
 33 66  1  0  0  0
 33 70  2  0  0  0
 34 36  1  0  0  0
 34 59  1  0  0  0
 34102  1  0  0  0
 35 44  2  0  0  0
 35 45  1  0  0  0
 35 68  1  0  0  0
 36 56  1  0  0  0
 36103  1  0  0  0
 37 39  1  0  0  0
 37 47  1  0  0  0
 37 66  1  0  0  0
 37104  1  0  0  0
 38 43  2  0  0  0
 38 46  1  0  0  0
 38 47  1  0  0  0
 39 64  1  0  0  0
 39 67  2  0  0  0
 40 52  1  0  0  0
 40 53  2  0  0  0
 40 58  1  0  0  0
 41105  1  0  0  0
 41106  1  0  0  0
 41107  1  0  0  0
 41 48  1  0  0  0
 42 43  1  0  0  0
 42 66  1  0  0  0
 42108  1  0  0  0
 42109  1  0  0  0
 43 44  1  0  0  0
 44110  1  0  0  0
 45 46  2  0  0  0
 45111  1  0  0  0
 46112  1  0  0  0
 47113  1  0  0  0
 47114  1  0  0  0
 48 56  1  0  0  0
 48 65  1  0  0  0
 48115  1  0  0  0
 49 50  1  0  0  0
 49 53  1  0  0  0
 49 64  1  0  0  0
 49116  1  0  0  0
 50 51  1  0  0  0
 50117  1  0  0  0
 50118  1  0  0  0
 51 52  1  0  0  0
 51119  1  0  0  0
 51120  1  0  0  0
 52121  1  0  0  0
 52122  1  0  0  0
 53 54  1  0  0  0
 54 55  2  0  0  0
 54123  1  0  0  0
 55 57  1  0  0  0
 55124  1  0  0  0
 56 69  2  0  0  0
 57 58  2  0  0  0
 57125  1  0  0  0
 58126  1  0  0  0
 59 60  1  0  0  0
 59 61  1  0  0  0
 59 62  1  0  0  0
 60127  1  0  0  0
 60128  1  0  0  0
 60129  1  0  0  0
 61130  1  0  0  0
 61131  1  0  0  0
 61132  1  0  0  0
 62133  1  0  0  0
 62134  1  0  0  0
 62135  1  0  0  0
 63 65  1  0  0  0
 63136  1  0  0  0
 63137  1  0  0  0
 63138  1  0  0  0
 64139  1  0  0  0
 65140  1  0  0  0
 68 78  1  0  0  0
 71 73  2  0  0  0
 71 80  1  0  0  0
 71141  1  0  0  0
 72 74  1  0  0  0
 72 79  2  0  0  0
 72142  1  0  0  0
 73 76  1  0  0  0
 73 79  1  0  0  0
 74 80  2  0  0  0
 74 81  1  0  0  0
 75 77  1  0  0  0
 75143  1  0  0  0
 75144  1  0  0  0
 75145  1  0  0  0
 76 78  1  0  0  0
 76146  1  0  0  0
 76147  1  0  0  0
 77 81  1  0  0  0
 77148  1  0  0  0
 77149  1  0  0  0
 78150  1  0  0  0
 78151  1  0  0  0
M  ISO  4   1 100  68 101  78 101  81 100
M  END
> <chiral flag>
0

> <version>
0

> <s_m_source_file>
/data/baiqing/PycharmProjects/Reinvent-master-3.2/result/LINK_invent/BTK/process_docking_weight1_custom_sum_contain_oxygen_bond_distance_aromatic_linkinvent_7_9_3/rearranged_h_0125.sdf

> <i_m_source_file_index>
61

> <r_mmod_Potential_Energy-OPLS-2005>
1410.20239257812

> <r_mmod_Stretch_Energy-OPLS-2005>
502.236236572266

> <r_mmod_Bend_Energy-OPLS-2005>
445.590270996094

> <r_mmod_Torsional_Energy-OPLS-2005>
303.649566650391

> <r_mmod_Improper_Torsional_Energy-OPLS-2005>
16.3080139160156

> <r_mmod_Van_der_Waal_Energy-OPLS-2005>
137.587280273438

> <r_mmod_Electrostatic_Energy-OPLS-2005>
-224.027923583984

> <r_mmod_Solvation_Energy-OPLS-2005>
-202.917694091797

> <b_mmod_Minimization_Converged-OPLS-2005>
0

> <r_mmod_RMS_Derivative-OPLS-2005>
0.704322814941406

$$$$
62
                    3D
 Structure written by MMmdl.
155163  0  0  1  0            999 V2000
  -30.7710  -14.5307   20.5522 C   0  0  0  0  0  0
  -30.3970  -12.3429   19.4599 C   0  0  0  0  0  0
  -29.5170  -12.4849   18.1926 C   0  0  0  0  0  0
  -28.0318  -12.8082   18.4915 C   0  0  0  0  0  0
  -27.7062  -12.7338   19.9834 C   0  0  2  0  0  0
  -28.7032  -13.2118   21.0351 C   0  0  0  0  0  0
  -25.3108  -13.7486   20.5518 C   0  0  0  0  0  0
  -24.1856  -13.0382   20.9096 C   0  0  0  0  0  0
  -24.5702  -11.6676   20.8901 C   0  0  0  0  0  0
  -23.8388  -10.4233   21.0637 C   0  0  0  0  0  0
  -24.3194   -9.4176   21.9309 C   0  0  0  0  0  0
  -23.6068   -8.2121   22.0770 C   0  0  0  0  0  0
  -22.4071   -8.0129   21.3547 C   0  0  0  0  0  0
  -21.9573   -9.0057   20.4670 C   0  0  0  0  0  0
  -22.6694  -10.2043   20.3166 C   0  0  0  0  0  0
  -21.6776   -6.0628   22.5280 C   0  0  0  0  0  0
  -21.3943   -6.5577   23.8198 C   0  0  0  0  0  0
  -21.3646   -5.6763   24.9180 C   0  0  0  0  0  0
  -21.6050   -4.3027   24.7250 C   0  0  0  0  0  0
  -21.8819   -3.8088   23.4385 C   0  0  0  0  0  0
  -21.9171   -4.6875   22.3421 C   0  0  0  0  0  0
  -22.8006  -13.5545   21.1769 C   0  0  0  0  0  0
  -22.1658   -4.2062   21.0998 F   0  0  0  0  0  0
  -21.5660   -3.4535   25.7782 F   0  0  0  0  0  0
  -30.0355  -13.3961   20.4291 N   0  0  0  0  0  0
  -26.3017  -12.7767   20.3632 N   0  0  0  0  0  0
  -25.8323  -11.5461   20.6015 N   0  0  0  0  0  0
  -22.0503  -12.8651   22.0323 N   0  0  0  0  0  0
  -25.5576  -15.1063   20.3713 N   0  0  0  0  0  0
  -31.8775  -14.6771   20.0337 O   0  0  0  0  0  0
  -21.6537   -6.8697   21.4210 O   0  0  0  0  0  0
  -22.3850  -14.5885   20.6577 O   0  0  0  0  0  0
  -24.6130  -31.8687   23.2111 C   0  0  0  0  0  0
  -25.9024  -32.4828   23.8406 C   0  0  1  0  0  0
  -27.2379  -27.4503   20.0891 C   0  0  0  0  0  0
  -25.5879  -33.8628   24.2336 N   0  0  0  0  0  0
  -23.4020  -30.4898   21.5521 C   0  0  2  0  0  0
  -24.8497  -28.9543   20.1167 C   0  0  0  0  0  0
  -22.7404  -29.4651   22.5013 C   0  0  0  0  0  0
  -18.0266  -28.1374   22.8487 C   0  0  0  0  0  0
  -24.1487  -36.7316   23.2639 C   0  0  0  0  0  0
  -25.9291  -30.8373   21.3631 C   0  0  0  0  0  0
  -26.0090  -29.4716   20.7107 C   0  0  0  0  0  0
  -27.2092  -28.7259   20.6943 C   0  0  0  0  0  0
  -26.0665  -26.9390   19.4971 C   0  0  0  0  0  0
  -24.8722  -27.6856   19.5091 C   0  0  0  0  0  0
  -23.6099  -29.8193   20.1676 C   0  0  0  0  0  0
  -25.4106  -36.3118   24.0341 C   0  0  1  0  0  0
  -20.5855  -28.3652   23.1330 C   0  0  2  0  0  0
  -20.6755  -26.9391   22.5424 C   0  0  0  0  0  0
  -19.5742  -26.6384   21.5212 C   0  0  0  0  0  0
  -18.1919  -26.7920   22.1619 C   0  0  0  0  0  0
  -19.1514  -28.8830   23.2907 C   0  0  0  0  0  0
  -18.9443  -30.1434   23.8918 C   0  0  0  0  0  0
  -17.6448  -30.6583   24.0559 C   0  0  0  0  0  0
  -25.9031  -34.9479   23.5142 C   0  0  0  0  0  0
  -16.5340  -29.9082   23.6320 C   0  0  0  0  0  0
  -16.7255  -28.6495   23.0349 C   0  0  0  0  0  0
  -26.4459  -31.6608   25.0726 C   0  0  0  0  0  0
  -25.3730  -31.3707   26.1479 C   0  0  0  0  0  0
  -27.0283  -30.3050   24.6089 C   0  0  0  0  0  0
  -27.6053  -32.4314   25.7472 C   0  0  0  0  0  0
  -27.5583  -37.1819   24.8467 C   0  0  0  0  0  0
  -21.4134  -29.3020   22.3744 N   0  0  0  0  0  0
  -26.4298  -37.3794   23.9402 N   0  0  0  0  0  0
  -24.6666  -31.0781   22.1014 N   0  0  0  0  0  0
  -23.4177  -28.8201   23.3062 O   0  0  0  0  0  0
  -28.3903  -26.7038   20.0598 O   0  0  0  0  0  0
  -26.5599  -34.8927   22.4708 O   0  0  0  0  0  0
  -23.5325  -32.1441   23.7504 O   0  0  0  0  0  0
  -27.7282  -22.0068   20.5787 C   0  0  0  0  0  0
  -27.5592  -23.3593   20.9310 C   0  0  0  0  0  0
  -29.8674  -22.6099   19.6439 C   0  0  0  0  0  0
  -28.9182  -21.6075   19.9368 C   0  0  0  0  0  0
  -28.5793  -24.2834   20.6335 C   0  0  0  0  0  0
  -29.1208  -20.1492   19.5009 C   0  0  0  0  0  0
  -28.4841  -25.7352   21.1125 C   0  0  0  0  0  0
  -30.5535  -16.9690   21.2190 C   0  0  0  0  0  0
  -29.6643  -17.8424   20.2939 C   0  0  0  0  0  0
  -29.7108  -23.9116   19.9882 N   0  0  0  0  0  0
  -30.1603  -15.5529   21.1745 N   0  0  0  0  0  0
  -29.8700  -19.3057   20.4703 N   0  3  0  0  0  0
  -31.4549  -12.3633   19.1903 H   0  0  0  0  0  0
  -30.2396  -11.3671   19.9237 H   0  0  0  0  0  0
  -29.5853  -11.5644   17.6109 H   0  0  0  0  0  0
  -29.9261  -13.2665   17.5495 H   0  0  0  0  0  0
  -27.3815  -12.1382   17.9256 H   0  0  0  0  0  0
  -27.8040  -13.8140   18.1372 H   0  0  0  0  0  0
  -27.9600  -11.6723   20.0744 H   0  0  0  0  0  0
  -28.7843  -12.4930   21.8522 H   0  0  0  0  0  0
  -28.2820  -14.1057   21.4914 H   0  0  0  0  0  0
  -25.2355   -9.5721   22.4850 H   0  0  0  0  0  0
  -23.9873   -7.4496   22.7413 H   0  0  0  0  0  0
  -21.0535   -8.8461   19.8960 H   0  0  0  0  0  0
  -22.3096  -10.9572   19.6295 H   0  0  0  0  0  0
  -21.1882   -7.6080   23.9659 H   0  0  0  0  0  0
  -21.1486   -6.0521   25.9076 H   0  0  0  0  0  0
  -22.0625   -2.7556   23.2914 H   0  0  0  0  0  0
  -22.3969  -12.0259   22.4724 H   0  0  0  0  0  0
  -21.1158  -13.1811   22.2495 H   0  0  0  0  0  0
  -26.4355  -15.4678   20.0205 H   0  0  0  0  0  0
  -24.8308  -15.8100   20.4335 H   0  0  0  0  0  0
  -26.7094  -32.5552   23.1176 H   0  0  0  0  0  0
  -25.0011  -33.9796   25.0468 H   0  0  0  0  0  0
  -22.6900  -31.3058   21.4138 H   0  0  0  0  0  0
  -23.3746  -35.9654   23.3322 H   0  0  0  0  0  0
  -24.3583  -36.8904   22.2049 H   0  0  0  0  0  0
  -23.7244  -37.6529   23.6638 H   0  0  0  0  0  0
  -26.0398  -31.6045   20.5953 H   0  0  0  0  0  0
  -26.8165  -30.8910   21.9820 H   0  0  0  0  0  0
  -28.1080  -29.1218   21.1457 H   0  0  0  0  0  0
  -26.0795  -25.9645   19.0286 H   0  0  0  0  0  0
  -23.9804  -27.2811   19.0506 H   0  0  0  0  0  0
  -23.7161  -30.5929   19.4064 H   0  0  0  0  0  0
  -22.7340  -29.2368   19.8751 H   0  0  0  0  0  0
  -25.1285  -36.1995   25.0834 H   0  0  0  0  0  0
  -20.9943  -28.3216   24.1455 H   0  0  0  0  0  0
  -20.5653  -26.2258   23.3609 H   0  0  0  0  0  0
  -21.6631  -26.7444   22.1227 H   0  0  0  0  0  0
  -19.6908  -25.6300   21.1233 H   0  0  0  0  0  0
  -19.6688  -27.3204   20.6752 H   0  0  0  0  0  0
  -17.4194  -26.6661   21.4019 H   0  0  0  0  0  0
  -18.0316  -26.0063   22.9013 H   0  0  0  0  0  0
  -19.7920  -30.7234   24.2312 H   0  0  0  0  0  0
  -17.5005  -31.6269   24.5148 H   0  0  0  0  0  0
  -15.5340  -30.2994   23.7635 H   0  0  0  0  0  0
  -15.8651  -28.0820   22.7069 H   0  0  0  0  0  0
  -24.5900  -30.7059   25.7812 H   0  0  0  0  0  0
  -24.8923  -32.2861   26.4945 H   0  0  0  0  0  0
  -25.8081  -30.8863   27.0229 H   0  0  0  0  0  0
  -26.2823  -29.6823   24.1136 H   0  0  0  0  0  0
  -27.4045  -29.7272   25.4542 H   0  0  0  0  0  0
  -27.8660  -30.4370   23.9239 H   0  0  0  0  0  0
  -27.2693  -33.3604   26.2095 H   0  0  0  0  0  0
  -28.3832  -32.6893   25.0270 H   0  0  0  0  0  0
  -28.0760  -31.8409   26.5345 H   0  0  0  0  0  0
  -28.2622  -38.0095   24.7492 H   0  0  0  0  0  0
  -28.1059  -36.2629   24.6324 H   0  0  0  0  0  0
  -27.2302  -37.1505   25.8872 H   0  0  0  0  0  0
  -20.9299  -29.8726   21.6949 H   0  0  0  0  0  0
  -26.0198  -38.2879   24.1386 H   0  0  0  0  0  0
  -26.9506  -21.2898   20.8034 H   0  0  0  0  0  0
  -26.6607  -23.6782   21.4429 H   0  0  0  0  0  0
  -30.7815  -22.3643   19.1230 H   0  0  0  0  0  0
  -29.6274  -20.1219   18.5343 H   0  0  0  0  0  0
  -28.1345  -19.7126   19.3321 H   0  0  0  0  0  0
  -29.3806  -25.9614   21.6899 H   0  0  0  0  0  0
  -27.6565  -25.8238   21.8199 H   0  0  0  0  0  0
  -30.4584  -17.3039   22.2526 H   0  0  0  0  0  0
  -31.6048  -17.0879   20.9518 H   0  0  0  0  0  0
  -28.6130  -17.6173   20.4800 H   0  0  0  0  0  0
  -29.8596  -17.5772   19.2530 H   0  0  0  0  0  0
  -29.2711  -15.3217   21.5939 H   0  0  0  0  0  0
  -30.8525  -19.5136   20.3905 H   0  0  0  0  0  0
  -29.5787  -19.5485   21.4026 H   0  0  0  0  0  0
  1 25  1  0  0  0
  1 30  2  0  0  0
  1 81  1  0  0  0
  2  3  1  0  0  0
  2 25  1  0  0  0
  2 83  1  0  0  0
  2 84  1  0  0  0
  3  4  1  0  0  0
  3 85  1  0  0  0
  3 86  1  0  0  0
  4  5  1  0  0  0
  4 87  1  0  0  0
  4 88  1  0  0  0
  5  6  1  0  0  0
  5 26  1  0  0  0
  5 89  1  0  0  0
  6 25  1  0  0  0
  6 90  1  0  0  0
  6 91  1  0  0  0
  7  8  2  0  0  0
  7 26  1  0  0  0
  7 29  1  0  0  0
  8  9  1  0  0  0
  8 22  1  0  0  0
  9 10  1  0  0  0
  9 27  2  0  0  0
 10 11  2  0  0  0
 10 15  1  0  0  0
 11 12  1  0  0  0
 11 92  1  0  0  0
 12 13  2  0  0  0
 12 93  1  0  0  0
 13 14  1  0  0  0
 13 31  1  0  0  0
 14 15  2  0  0  0
 14 94  1  0  0  0
 15 95  1  0  0  0
 16 17  2  0  0  0
 16 21  1  0  0  0
 16 31  1  0  0  0
 17 18  1  0  0  0
 17 96  1  0  0  0
 18 19  2  0  0  0
 18 97  1  0  0  0
 19 20  1  0  0  0
 19 24  1  0  0  0
 20 21  2  0  0  0
 20 98  1  0  0  0
 21 23  1  0  0  0
 22 28  1  0  0  0
 22 32  2  0  0  0
 26 27  1  0  0  0
 28 99  1  0  0  0
 28100  1  0  0  0
 29101  1  0  0  0
 29102  1  0  0  0
 33 34  1  0  0  0
 33 66  1  0  0  0
 33 70  2  0  0  0
 34 36  1  0  0  0
 34 59  1  0  0  0
 34103  1  0  0  0
 35 44  2  0  0  0
 35 45  1  0  0  0
 35 68  1  0  0  0
 36 56  1  0  0  0
 36104  1  0  0  0
 37 39  1  0  0  0
 37 47  1  0  0  0
 37 66  1  0  0  0
 37105  1  0  0  0
 38 43  2  0  0  0
 38 46  1  0  0  0
 38 47  1  0  0  0
 39 64  1  0  0  0
 39 67  2  0  0  0
 40 52  1  0  0  0
 40 53  2  0  0  0
 40 58  1  0  0  0
 41106  1  0  0  0
 41107  1  0  0  0
 41108  1  0  0  0
 41 48  1  0  0  0
 42 43  1  0  0  0
 42 66  1  0  0  0
 42109  1  0  0  0
 42110  1  0  0  0
 43 44  1  0  0  0
 44111  1  0  0  0
 45 46  2  0  0  0
 45112  1  0  0  0
 46113  1  0  0  0
 47114  1  0  0  0
 47115  1  0  0  0
 48 56  1  0  0  0
 48 65  1  0  0  0
 48116  1  0  0  0
 49 50  1  0  0  0
 49 53  1  0  0  0
 49 64  1  0  0  0
 49117  1  0  0  0
 50 51  1  0  0  0
 50118  1  0  0  0
 50119  1  0  0  0
 51 52  1  0  0  0
 51120  1  0  0  0
 51121  1  0  0  0
 52122  1  0  0  0
 52123  1  0  0  0
 53 54  1  0  0  0
 54 55  2  0  0  0
 54124  1  0  0  0
 55 57  1  0  0  0
 55125  1  0  0  0
 56 69  2  0  0  0
 57 58  2  0  0  0
 57126  1  0  0  0
 58127  1  0  0  0
 59 60  1  0  0  0
 59 61  1  0  0  0
 59 62  1  0  0  0
 60128  1  0  0  0
 60129  1  0  0  0
 60130  1  0  0  0
 61131  1  0  0  0
 61132  1  0  0  0
 61133  1  0  0  0
 62134  1  0  0  0
 62135  1  0  0  0
 62136  1  0  0  0
 63 65  1  0  0  0
 63137  1  0  0  0
 63138  1  0  0  0
 63139  1  0  0  0
 64140  1  0  0  0
 65141  1  0  0  0
 68 77  1  0  0  0
 71 72  2  0  0  0
 71 74  1  0  0  0
 71142  1  0  0  0
 72 75  1  0  0  0
 72143  1  0  0  0
 73 74  2  0  0  0
 73 80  1  0  0  0
 73144  1  0  0  0
 74 76  1  0  0  0
 75 77  1  0  0  0
 75 80  2  0  0  0
 76 82  1  0  0  0
 76145  1  0  0  0
 76146  1  0  0  0
 77147  1  0  0  0
 77148  1  0  0  0
 78 79  1  0  0  0
 78 81  1  0  0  0
 78149  1  0  0  0
 78150  1  0  0  0
 79 82  1  0  0  0
 79151  1  0  0  0
 79152  1  0  0  0
 81153  1  0  0  0
 82154  1  0  0  0
 82155  1  0  0  0
M  CHG  1  82   1
M  ISO  4   1 100  68 101  77 101  81 100
M  END
> <chiral flag>
0

> <version>
0

> <s_m_source_file>
/data/baiqing/PycharmProjects/Reinvent-master-3.2/result/LINK_invent/BTK/process_docking_weight1_custom_sum_contain_oxygen_bond_distance_aromatic_linkinvent_7_9_3/rearranged_h_0125.sdf

> <i_m_source_file_index>
62

> <r_mmod_Potential_Energy-OPLS-2005>
-245.117904663086

> <r_mmod_Stretch_Energy-OPLS-2005>
35.3797874450684

> <r_mmod_Bend_Energy-OPLS-2005>
139.929595947266

> <r_mmod_Torsional_Energy-OPLS-2005>
245.791519165039

> <r_mmod_Improper_Torsional_Energy-OPLS-2005>
2.97300267219543

> <r_mmod_Van_der_Waal_Energy-OPLS-2005>
161.665802001953

> <r_mmod_Electrostatic_Energy-OPLS-2005>
-402.293762207031

> <r_mmod_Solvation_Energy-OPLS-2005>
-506.583923339844

> <b_mmod_Minimization_Converged-OPLS-2005>
0

> <r_mmod_RMS_Derivative-OPLS-2005>
1.62032151222229

$$$$
63
                    3D
 Structure written by MMmdl.
167176  0  0  1  0            999 V2000
  -30.8060  -14.2980   20.7184 C   0  0  0  0  0  0
  -30.4165  -12.2713   19.3755 C   0  0  0  0  0  0
  -29.4844  -12.5462   18.1830 C   0  0  0  0  0  0
  -28.0080  -12.4012   18.5973 C   0  0  0  0  0  0
  -27.6733  -13.2027   19.8809 C   0  0  2  0  0  0
  -28.7132  -12.9222   20.9906 C   0  0  0  0  0  0
  -25.2637  -13.8123   20.5695 C   0  0  0  0  0  0
  -24.1872  -13.0401   20.9162 C   0  0  0  0  0  0
  -24.6423  -11.6879   20.8707 C   0  0  0  0  0  0
  -23.9067  -10.4273   21.0374 C   0  0  0  0  0  0
  -24.3619   -9.4214   21.9173 C   0  0  0  0  0  0
  -23.6285   -8.2257   22.0755 C   0  0  0  0  0  0
  -22.4267   -8.0284   21.3542 C   0  0  0  0  0  0
  -21.9901   -9.0251   20.4643 C   0  0  0  0  0  0
  -22.7230  -10.2125   20.3039 C   0  0  0  0  0  0
  -21.6863   -6.0740   22.5293 C   0  0  0  0  0  0
  -21.4024   -6.5634   23.8232 C   0  0  0  0  0  0
  -21.3664   -5.6786   24.9190 C   0  0  0  0  0  0
  -21.6037   -4.3047   24.7243 C   0  0  0  0  0  0
  -21.8825   -3.8141   23.4365 C   0  0  0  0  0  0
  -21.9201   -4.6961   22.3425 C   0  0  0  0  0  0
  -22.7892  -13.5215   21.1829 C   0  0  0  0  0  0
  -22.1658   -4.2142   21.1004 F   0  0  0  0  0  0
  -21.5629   -3.4543   25.7762 F   0  0  0  0  0  0
  -30.0675  -13.1905   20.4632 N   0  0  0  0  0  0
  -26.3094  -12.9302   20.3390 N   0  0  0  0  0  0
  -25.9346  -11.6450   20.5705 N   0  0  0  0  0  0
  -22.0489  -12.8227   22.0366 N   0  0  0  0  0  0
  -25.4308  -15.1848   20.4173 N   0  0  0  0  0  0
  -31.7463  -14.6814   20.0155 O   0  0  0  0  0  0
  -21.6630   -6.8880   21.4255 O   0  0  0  0  0  0
  -22.3601  -14.5534   20.6690 O   0  0  0  0  0  0
  -24.6102  -31.8711   23.2120 C   0  0  0  0  0  0
  -25.9038  -32.4824   23.8394 C   0  0  1  0  0  0
  -27.2368  -27.4638   20.0889 C   0  0  0  0  0  0
  -25.5930  -33.8627   24.2327 N   0  0  0  0  0  0
  -23.3945  -30.4941   21.5520 C   0  0  2  0  0  0
  -24.8369  -28.9608   20.1168 C   0  0  0  0  0  0
  -22.7375  -29.4675   22.5011 C   0  0  0  0  0  0
  -18.0279  -28.1372   22.8499 C   0  0  0  0  0  0
  -24.1481  -36.7315   23.2641 C   0  0  0  0  0  0
  -25.9201  -30.8438   21.3599 C   0  0  0  0  0  0
  -25.9950  -29.4807   20.7068 C   0  0  0  0  0  0
  -27.1933  -28.7397   20.6866 C   0  0  0  0  0  0
  -26.0553  -26.9443   19.5056 C   0  0  0  0  0  0
  -24.8613  -27.6900   19.5177 C   0  0  0  0  0  0
  -23.5993  -29.8257   20.1651 C   0  0  0  0  0  0
  -25.4107  -36.3106   24.0328 C   0  0  1  0  0  0
  -20.5868  -28.3654   23.1343 C   0  0  2  0  0  0
  -20.6770  -26.9400   22.5416 C   0  0  0  0  0  0
  -19.5747  -26.6400   21.5219 C   0  0  0  0  0  0
  -18.1927  -26.7919   22.1633 C   0  0  0  0  0  0
  -19.1522  -28.8831   23.2911 C   0  0  0  0  0  0
  -18.9450  -30.1453   23.8893 C   0  0  0  0  0  0
  -17.6451  -30.6579   24.0580 C   0  0  0  0  0  0
  -25.9049  -34.9481   23.5112 C   0  0  0  0  0  0
  -16.5348  -29.9082   23.6342 C   0  0  0  0  0  0
  -16.7268  -28.6510   23.0344 C   0  0  0  0  0  0
  -26.4467  -31.6601   25.0729 C   0  0  0  0  0  0
  -25.3737  -31.3720   26.1484 C   0  0  0  0  0  0
  -27.0307  -30.3038   24.6128 C   0  0  0  0  0  0
  -27.6036  -32.4321   25.7487 C   0  0  0  0  0  0
  -27.5572  -37.1813   24.8469 C   0  0  0  0  0  0
  -21.4113  -29.3023   22.3737 N   0  0  0  0  0  0
  -26.4288  -37.3794   23.9405 N   0  0  0  0  0  0
  -24.6597  -31.0842   22.0996 N   0  0  0  0  0  0
  -23.4158  -28.8238   23.3056 O   0  0  0  0  0  0
  -28.4445  -26.8013   20.0833 O   0  0  0  0  0  0
  -26.5605  -34.8933   22.4671 O   0  0  0  0  0  0
  -23.5317  -32.1450   23.7553 O   0  0  0  0  0  0
  -27.2262  -22.2522   24.6875 C   0  0  0  0  0  0
  -27.4922  -20.8762   24.5795 C   0  0  0  0  0  0
  -27.4470  -23.1032   23.5883 C   0  0  0  0  0  0
  -28.2223  -21.2023   22.2780 C   0  0  0  0  0  0
  -27.9810  -20.3417   23.3703 C   0  0  0  0  0  0
  -27.9551  -22.5828   22.3714 C   0  0  0  0  0  0
  -27.5440  -18.1568   22.0784 C   0  0  0  0  0  0
  -28.3748  -16.8933   21.8157 C   0  0  0  0  0  0
  -28.2325  -18.8451   23.2662 C   0  0  1  0  0  0
  -29.5735  -16.9496   22.7830 C   0  0  2  0  0  0
  -29.7084  -18.4354   23.1401 C   0  0  2  0  0  0
  -30.5445  -18.6941   24.4031 C   0  0  0  0  0  0
  -30.8413  -16.2667   22.2421 C   0  0  0  0  0  0
  -27.9691  -24.7398   21.3095 C   0  0  0  0  0  0
  -28.4601  -25.3783   20.0007 C   0  0  0  0  0  0
  -30.4892  -14.9066   21.8602 N   0  0  0  0  0  0
  -28.2108  -23.3382   21.2487 O   0  0  0  0  0  0
  -31.4626  -12.3607   19.0771 H   0  0  0  0  0  0
  -30.2940  -11.2441   19.7198 H   0  0  0  0  0  0
  -29.7158  -11.8637   17.3642 H   0  0  0  0  0  0
  -29.6592  -13.5552   17.8048 H   0  0  0  0  0  0
  -27.8009  -11.3422   18.7533 H   0  0  0  0  0  0
  -27.3587  -12.7191   17.7810 H   0  0  0  0  0  0
  -27.7347  -14.2609   19.6258 H   0  0  0  0  0  0
  -28.6608  -11.8759   21.2964 H   0  0  0  0  0  0
  -28.4633  -13.4990   21.8801 H   0  0  0  0  0  0
  -25.2773   -9.5717   22.4728 H   0  0  0  0  0  0
  -24.0005   -7.4677   22.7501 H   0  0  0  0  0  0
  -21.0817   -8.8776   19.8962 H   0  0  0  0  0  0
  -22.3684  -10.9666   19.6149 H   0  0  0  0  0  0
  -21.2000   -7.6136   23.9747 H   0  0  0  0  0  0
  -21.1472   -6.0503   25.9099 H   0  0  0  0  0  0
  -22.0592   -2.7598   23.2879 H   0  0  0  0  0  0
  -22.4031  -11.9882   22.4818 H   0  0  0  0  0  0
  -21.1116  -13.1332   22.2502 H   0  0  0  0  0  0
  -24.6724  -15.8381   20.5719 H   0  0  0  0  0  0
  -26.2929  -15.6363   20.1400 H   0  0  0  0  0  0
  -26.7097  -32.5500   23.1144 H   0  0  0  0  0  0
  -25.0081  -33.9796   25.0472 H   0  0  0  0  0  0
  -22.6836  -31.3099   21.4137 H   0  0  0  0  0  0
  -23.3731  -35.9660   23.3321 H   0  0  0  0  0  0
  -24.3575  -36.8924   22.2056 H   0  0  0  0  0  0
  -23.7250  -37.6537   23.6636 H   0  0  0  0  0  0
  -26.0413  -31.6148   20.5968 H   0  0  0  0  0  0
  -26.8051  -30.8854   21.9830 H   0  0  0  0  0  0
  -28.0895  -29.1451   21.1342 H   0  0  0  0  0  0
  -26.0348  -25.9778   19.0260 H   0  0  0  0  0  0
  -23.9693  -27.2827   19.0633 H   0  0  0  0  0  0
  -23.6999  -30.5986   19.4019 H   0  0  0  0  0  0
  -22.7220  -29.2444   19.8745 H   0  0  0  0  0  0
  -25.1274  -36.1962   25.0816 H   0  0  0  0  0  0
  -20.9954  -28.3203   24.1474 H   0  0  0  0  0  0
  -20.5714  -26.2254   23.3592 H   0  0  0  0  0  0
  -21.6633  -26.7474   22.1179 H   0  0  0  0  0  0
  -19.6906  -25.6322   21.1231 H   0  0  0  0  0  0
  -19.6678  -27.3227   20.6764 H   0  0  0  0  0  0
  -17.4198  -26.6699   21.4030 H   0  0  0  0  0  0
  -18.0302  -26.0052   22.9014 H   0  0  0  0  0  0
  -19.7928  -30.7291   24.2223 H   0  0  0  0  0  0
  -17.5012  -31.6248   24.5192 H   0  0  0  0  0  0
  -15.5351  -30.2985   23.7664 H   0  0  0  0  0  0
  -15.8674  -28.0847   22.7030 H   0  0  0  0  0  0
  -24.5884  -30.7087   25.7831 H   0  0  0  0  0  0
  -24.8963  -32.2896   26.4928 H   0  0  0  0  0  0
  -25.8102  -30.8886   27.0237 H   0  0  0  0  0  0
  -26.2865  -29.6796   24.1164 H   0  0  0  0  0  0
  -27.4052  -29.7277   25.4609 H   0  0  0  0  0  0
  -27.8701  -30.4348   23.9291 H   0  0  0  0  0  0
  -27.2635  -33.3602   26.2076 H   0  0  0  0  0  0
  -28.3831  -32.6918   25.0315 H   0  0  0  0  0  0
  -28.0701  -31.8441   26.5397 H   0  0  0  0  0  0
  -28.2600  -38.0104   24.7519 H   0  0  0  0  0  0
  -28.1052  -36.2645   24.6260 H   0  0  0  0  0  0
  -27.2304  -37.1435   25.8880 H   0  0  0  0  0  0
  -20.9257  -29.8735   21.6964 H   0  0  0  0  0  0
  -26.0171  -38.2866   24.1407 H   0  0  0  0  0  0
  -26.8489  -22.6566   25.6166 H   0  0  0  0  0  0
  -27.3164  -20.2294   25.4284 H   0  0  0  0  0  0
  -27.2216  -24.1526   23.7085 H   0  0  0  0  0  0
  -28.6094  -20.8028   21.3513 H   0  0  0  0  0  0
  -26.4963  -17.9366   22.2861 H   0  0  0  0  0  0
  -27.5699  -18.7795   21.1834 H   0  0  0  0  0  0
  -28.7161  -16.8865   20.7787 H   0  0  0  0  0  0
  -27.7879  -15.9866   21.9735 H   0  0  0  0  0  0
  -27.8296  -18.3807   24.1676 H   0  0  0  0  0  0
  -29.2760  -16.4276   23.6955 H   0  0  0  0  0  0
  -30.1606  -18.9647   22.2989 H   0  0  0  0  0  0
  -30.5350  -19.7505   24.6728 H   0  0  0  0  0  0
  -31.5841  -18.4090   24.2416 H   0  0  0  0  0  0
  -30.1732  -18.1244   25.2555 H   0  0  0  0  0  0
  -31.6264  -16.2348   22.9991 H   0  0  0  0  0  0
  -31.2431  -16.8272   21.3940 H   0  0  0  0  0  0
  -26.9079  -24.9376   21.4646 H   0  0  0  0  0  0
  -28.5221  -25.1770   22.1424 H   0  0  0  0  0  0
  -27.9289  -24.9963   19.1300 H   0  0  0  0  0  0
  -29.5016  -25.0957   19.8510 H   0  0  0  0  0  0
  -29.7965  -14.4400   22.4262 H   0  0  0  0  0  0
  1 25  1  0  0  0
  1 30  2  0  0  0
  1 86  1  0  0  0
  2  3  1  0  0  0
  2 25  1  0  0  0
  2 88  1  0  0  0
  2 89  1  0  0  0
  3  4  1  0  0  0
  3 90  1  0  0  0
  3 91  1  0  0  0
  4  5  1  0  0  0
  4 92  1  0  0  0
  4 93  1  0  0  0
  5  6  1  0  0  0
  5 26  1  0  0  0
  5 94  1  0  0  0
  6 25  1  0  0  0
  6 95  1  0  0  0
  6 96  1  0  0  0
  7  8  2  0  0  0
  7 26  1  0  0  0
  7 29  1  0  0  0
  8  9  1  0  0  0
  8 22  1  0  0  0
  9 10  1  0  0  0
  9 27  2  0  0  0
 10 11  2  0  0  0
 10 15  1  0  0  0
 11 12  1  0  0  0
 11 97  1  0  0  0
 12 13  2  0  0  0
 12 98  1  0  0  0
 13 14  1  0  0  0
 13 31  1  0  0  0
 14 15  2  0  0  0
 14 99  1  0  0  0
 15100  1  0  0  0
 16 17  2  0  0  0
 16 21  1  0  0  0
 16 31  1  0  0  0
 17 18  1  0  0  0
 17101  1  0  0  0
 18 19  2  0  0  0
 18102  1  0  0  0
 19 20  1  0  0  0
 19 24  1  0  0  0
 20 21  2  0  0  0
 20103  1  0  0  0
 21 23  1  0  0  0
 22 28  1  0  0  0
 22 32  2  0  0  0
 26 27  1  0  0  0
 28104  1  0  0  0
 28105  1  0  0  0
 29106  1  0  0  0
 29107  1  0  0  0
 33 34  1  0  0  0
 33 66  1  0  0  0
 33 70  2  0  0  0
 34 36  1  0  0  0
 34 59  1  0  0  0
 34108  1  0  0  0
 35 44  2  0  0  0
 35 45  1  0  0  0
 35 68  1  0  0  0
 36 56  1  0  0  0
 36109  1  0  0  0
 37 39  1  0  0  0
 37 47  1  0  0  0
 37 66  1  0  0  0
 37110  1  0  0  0
 38 43  2  0  0  0
 38 46  1  0  0  0
 38 47  1  0  0  0
 39 64  1  0  0  0
 39 67  2  0  0  0
 40 52  1  0  0  0
 40 53  2  0  0  0
 40 58  1  0  0  0
 41111  1  0  0  0
 41112  1  0  0  0
 41113  1  0  0  0
 41 48  1  0  0  0
 42 43  1  0  0  0
 42 66  1  0  0  0
 42114  1  0  0  0
 42115  1  0  0  0
 43 44  1  0  0  0
 44116  1  0  0  0
 45 46  2  0  0  0
 45117  1  0  0  0
 46118  1  0  0  0
 47119  1  0  0  0
 47120  1  0  0  0
 48 56  1  0  0  0
 48 65  1  0  0  0
 48121  1  0  0  0
 49 50  1  0  0  0
 49 53  1  0  0  0
 49 64  1  0  0  0
 49122  1  0  0  0
 50 51  1  0  0  0
 50123  1  0  0  0
 50124  1  0  0  0
 51 52  1  0  0  0
 51125  1  0  0  0
 51126  1  0  0  0
 52127  1  0  0  0
 52128  1  0  0  0
 53 54  1  0  0  0
 54 55  2  0  0  0
 54129  1  0  0  0
 55 57  1  0  0  0
 55130  1  0  0  0
 56 69  2  0  0  0
 57 58  2  0  0  0
 57131  1  0  0  0
 58132  1  0  0  0
 59 60  1  0  0  0
 59 61  1  0  0  0
 59 62  1  0  0  0
 60133  1  0  0  0
 60134  1  0  0  0
 60135  1  0  0  0
 61136  1  0  0  0
 61137  1  0  0  0
 61138  1  0  0  0
 62139  1  0  0  0
 62140  1  0  0  0
 62141  1  0  0  0
 63 65  1  0  0  0
 63142  1  0  0  0
 63143  1  0  0  0
 63144  1  0  0  0
 64145  1  0  0  0
 65146  1  0  0  0
 68 85  1  0  0  0
 71 72  2  0  0  0
 71 73  1  0  0  0
 71147  1  0  0  0
 72 75  1  0  0  0
 72148  1  0  0  0
 73 76  2  0  0  0
 73149  1  0  0  0
 74 75  2  0  0  0
 74 76  1  0  0  0
 74150  1  0  0  0
 75 79  1  0  0  0
 76 87  1  0  0  0
 77 78  1  0  0  0
 77 79  1  0  0  0
 77151  1  0  0  0
 77152  1  0  0  0
 78 80  1  0  0  0
 78153  1  0  0  0
 78154  1  0  0  0
 79 81  1  0  0  0
 79155  1  0  0  0
 80 81  1  0  0  0
 80 83  1  0  0  0
 80156  1  0  0  0
 81 82  1  0  0  0
 81157  1  0  0  0
 82158  1  0  0  0
 82159  1  0  0  0
 82160  1  0  0  0
 83 86  1  0  0  0
 83161  1  0  0  0
 83162  1  0  0  0
 84 85  1  0  0  0
 84 87  1  0  0  0
 84163  1  0  0  0
 84164  1  0  0  0
 85165  1  0  0  0
 85166  1  0  0  0
 86167  1  0  0  0
M  ISO  4   1 100  68 101  85 101  86 100
M  END
> <chiral flag>
0

> <version>
0

> <s_m_source_file>
/data/baiqing/PycharmProjects/Reinvent-master-3.2/result/LINK_invent/BTK/process_docking_weight1_custom_sum_contain_oxygen_bond_distance_aromatic_linkinvent_7_9_3/rearranged_h_0125.sdf

> <i_m_source_file_index>
63

> <r_mmod_Potential_Energy-OPLS-2005>
-18.8731250762939

> <r_mmod_Stretch_Energy-OPLS-2005>
32.0031585693359

> <r_mmod_Bend_Energy-OPLS-2005>
130.446807861328

> <r_mmod_Torsional_Energy-OPLS-2005>
248.007080078125

> <r_mmod_Improper_Torsional_Energy-OPLS-2005>
2.47854065895081

> <r_mmod_Van_der_Waal_Energy-OPLS-2005>
150.742553710938

> <r_mmod_Electrostatic_Energy-OPLS-2005>
-389.837554931641

> <r_mmod_Solvation_Energy-OPLS-2005>
-201.622650146484

> <b_mmod_Minimization_Converged-OPLS-2005>
0

> <r_mmod_RMS_Derivative-OPLS-2005>
3.10727763175964

$$$$
64
                    3D
 Structure written by MMmdl.
163171  0  0  1  0            999 V2000
  -30.6818  -14.6318   20.4910 C   0  0  0  0  0  0
  -30.4191  -12.3888   19.4604 C   0  0  0  0  0  0
  -29.4989  -12.4928   18.2263 C   0  0  0  0  0  0
  -28.0244  -12.3344   18.6424 C   0  0  0  0  0  0
  -27.6459  -13.2266   19.8558 C   0  0  2  0  0  0
  -28.6918  -13.1310   20.9893 C   0  0  0  0  0  0
  -25.2525  -13.8195   20.5702 C   0  0  0  0  0  0
  -24.1804  -13.0444   20.9198 C   0  0  0  0  0  0
  -24.6394  -11.6924   20.8753 C   0  0  0  0  0  0
  -23.9078  -10.4298   21.0409 C   0  0  0  0  0  0
  -24.3626   -9.4212   21.9185 C   0  0  0  0  0  0
  -23.6301   -8.2246   22.0755 C   0  0  0  0  0  0
  -22.4283   -8.0284   21.3548 C   0  0  0  0  0  0
  -21.9919   -9.0257   20.4646 C   0  0  0  0  0  0
  -22.7249  -10.2135   20.3054 C   0  0  0  0  0  0
  -21.6848   -6.0742   22.5283 C   0  0  0  0  0  0
  -21.4013   -6.5644   23.8219 C   0  0  0  0  0  0
  -21.3659   -5.6793   24.9177 C   0  0  0  0  0  0
  -21.6037   -4.3055   24.7223 C   0  0  0  0  0  0
  -21.8821   -3.8154   23.4342 C   0  0  0  0  0  0
  -21.9196   -4.6972   22.3401 C   0  0  0  0  0  0
  -22.7826  -13.5223   21.1860 C   0  0  0  0  0  0
  -22.1662   -4.2159   21.0978 F   0  0  0  0  0  0
  -21.5626   -3.4538   25.7734 F   0  0  0  0  0  0
  -30.0048  -13.4429   20.4104 N   0  0  0  0  0  0
  -26.2957  -12.9399   20.3320 N   0  0  0  0  0  0
  -25.9327  -11.6545   20.5780 N   0  0  0  0  0  0
  -22.0477  -12.8204   22.0416 N   0  0  0  0  0  0
  -25.4226  -15.1919   20.4120 N   0  0  0  0  0  0
  -31.8553  -14.7092   20.1228 O   0  0  0  0  0  0
  -21.6641   -6.8883   21.4242 O   0  0  0  0  0  0
  -22.3512  -14.5532   20.6713 O   0  0  0  0  0  0
  -24.6282  -31.8610   23.2075 C   0  0  0  0  0  0
  -25.9139  -32.4781   23.8382 C   0  0  1  0  0  0
  -27.2064  -27.3054   20.0983 C   0  0  0  0  0  0
  -25.5966  -33.8583   24.2309 N   0  0  0  0  0  0
  -23.4203  -30.4936   21.5502 C   0  0  2  0  0  0
  -24.8623  -28.9629   20.1074 C   0  0  0  0  0  0
  -22.7479  -29.4657   22.4927 C   0  0  0  0  0  0
  -18.0296  -28.1392   22.8486 C   0  0  0  0  0  0
  -24.1488  -36.7285   23.2639 C   0  0  0  0  0  0
  -25.9669  -30.7861   21.3846 C   0  0  0  0  0  0
  -26.0360  -29.4158   20.7215 C   0  0  0  0  0  0
  -27.2107  -28.5978   20.7163 C   0  0  0  0  0  0
  -26.0075  -26.9387   19.4323 C   0  0  0  0  0  0
  -24.8515  -27.7293   19.4540 C   0  0  0  0  0  0
  -23.6328  -29.8437   20.1610 C   0  0  0  0  0  0
  -25.4112  -36.3086   24.0334 C   0  0  1  0  0  0
  -20.5897  -28.3709   23.1265 C   0  0  2  0  0  0
  -20.6789  -26.9431   22.5397 C   0  0  0  0  0  0
  -19.5758  -26.6398   21.5210 C   0  0  0  0  0  0
  -18.1941  -26.7941   22.1617 C   0  0  0  0  0  0
  -19.1546  -28.8865   23.2876 C   0  0  0  0  0  0
  -18.9470  -30.1470   23.8894 C   0  0  0  0  0  0
  -17.6467  -30.6595   24.0574 C   0  0  0  0  0  0
  -25.9054  -34.9453   23.5115 C   0  0  0  0  0  0
  -16.5359  -29.9093   23.6340 C   0  0  0  0  0  0
  -16.7280  -28.6509   23.0358 C   0  0  0  0  0  0
  -26.4515  -31.6577   25.0738 C   0  0  0  0  0  0
  -25.3764  -31.3693   26.1470 C   0  0  0  0  0  0
  -27.0356  -30.3001   24.6196 C   0  0  0  0  0  0
  -27.6077  -32.4307   25.7504 C   0  0  0  0  0  0
  -27.5578  -37.1803   24.8471 C   0  0  0  0  0  0
  -21.4196  -29.3069   22.3662 N   0  0  0  0  0  0
  -26.4284  -37.3784   23.9419 N   0  0  0  0  0  0
  -24.6909  -31.0631   22.1031 N   0  0  0  0  0  0
  -23.4197  -28.8172   23.2993 O   0  0  0  0  0  0
  -28.2839  -26.3906   20.1675 O   0  0  0  0  0  0
  -26.5598  -34.8921   22.4669 O   0  0  0  0  0  0
  -23.5444  -32.1399   23.7405 O   0  0  0  0  0  0
  -29.6485  -23.2037   19.0492 C   0  0  0  0  0  0
  -30.1231  -21.8666   19.0963 C   0  0  0  0  0  0
  -28.8112  -23.7088   20.0703 C   0  0  0  0  0  0
  -28.5573  -22.7945   21.1416 C   0  0  0  0  0  0
  -29.7470  -21.0020   20.1454 C   0  0  0  0  0  0
  -28.4860  -22.9878   23.6731 C   0  0  0  0  0  0
  -26.3431  -22.5349   22.3627 C   0  0  0  0  0  0
  -31.4377  -17.3864   22.0326 C   0  0  0  0  0  0
  -27.9429  -24.9925   19.7921 C   0  0  0  0  0  0
  -29.5605  -18.4194   20.6396 C   0  0  0  0  0  0
  -27.7234  -23.2083   22.3552 C   0  0  0  0  0  0
  -30.5549  -17.1778   20.7888 C   0  0  2  0  0  0
  -28.9868  -21.4849   21.1556 N   0  0  0  0  0  0
  -30.2326  -19.6587   20.1485 N   0  0  0  0  0  0
  -29.9891  -15.7767   20.8026 N   0  0  0  0  0  0
  -31.4639  -12.4797   19.1578 H   0  0  0  0  0  0
  -30.3312  -11.4055   19.9255 H   0  0  0  0  0  0
  -29.7630  -11.7296   17.4929 H   0  0  0  0  0  0
  -29.6425  -13.4562   17.7344 H   0  0  0  0  0  0
  -27.8656  -11.2841   18.8916 H   0  0  0  0  0  0
  -27.3672  -12.5448   17.7977 H   0  0  0  0  0  0
  -27.6519  -14.2536   19.4896 H   0  0  0  0  0  0
  -28.7002  -12.1311   21.4249 H   0  0  0  0  0  0
  -28.4439  -13.8139   21.8031 H   0  0  0  0  0  0
  -25.2773   -9.5679   22.4760 H   0  0  0  0  0  0
  -24.0011   -7.4629   22.7468 H   0  0  0  0  0  0
  -21.0858   -8.8772   19.8944 H   0  0  0  0  0  0
  -22.3718  -10.9670   19.6159 H   0  0  0  0  0  0
  -21.2004   -7.6154   23.9723 H   0  0  0  0  0  0
  -21.1473   -6.0523   25.9079 H   0  0  0  0  0  0
  -22.0600   -2.7617   23.2838 H   0  0  0  0  0  0
  -22.4105  -11.9864   22.4788 H   0  0  0  0  0  0
  -21.1095  -13.1218   22.2628 H   0  0  0  0  0  0
  -24.6544  -15.8453   20.5192 H   0  0  0  0  0  0
  -26.2728  -15.6325   20.0847 H   0  0  0  0  0  0
  -26.7207  -32.5440   23.1122 H   0  0  0  0  0  0
  -25.0163  -33.9731   25.0489 H   0  0  0  0  0  0
  -22.7157  -31.3165   21.4156 H   0  0  0  0  0  0
  -23.3759  -35.9610   23.3291 H   0  0  0  0  0  0
  -24.3583  -36.8900   22.2055 H   0  0  0  0  0  0
  -23.7222  -37.6482   23.6652 H   0  0  0  0  0  0
  -26.1068  -31.5517   20.6196 H   0  0  0  0  0  0
  -26.8464  -30.8274   22.0151 H   0  0  0  0  0  0
  -28.1036  -28.9373   21.2209 H   0  0  0  0  0  0
  -25.8996  -26.0172   18.8819 H   0  0  0  0  0  0
  -23.9573  -27.3842   18.9530 H   0  0  0  0  0  0
  -23.7525  -30.6271   19.4119 H   0  0  0  0  0  0
  -22.7518  -29.2779   19.8532 H   0  0  0  0  0  0
  -25.1284  -36.1940   25.0823 H   0  0  0  0  0  0
  -20.9999  -28.3290   24.1380 H   0  0  0  0  0  0
  -20.5724  -26.2313   23.3599 H   0  0  0  0  0  0
  -21.6650  -26.7474   22.1170 H   0  0  0  0  0  0
  -19.6925  -25.6313   21.1235 H   0  0  0  0  0  0
  -19.6691  -27.3217   20.6747 H   0  0  0  0  0  0
  -17.4209  -26.6693   21.4027 H   0  0  0  0  0  0
  -18.0343  -26.0080   22.9005 H   0  0  0  0  0  0
  -19.7946  -30.7294   24.2244 H   0  0  0  0  0  0
  -17.5021  -31.6275   24.5183 H   0  0  0  0  0  0
  -15.5362  -30.2992   23.7673 H   0  0  0  0  0  0
  -15.8677  -28.0833   22.7070 H   0  0  0  0  0  0
  -24.5975  -30.6989   25.7811 H   0  0  0  0  0  0
  -24.8912  -32.2839   26.4891 H   0  0  0  0  0  0
  -25.8114  -30.8894   27.0244 H   0  0  0  0  0  0
  -26.2918  -29.6753   24.1231 H   0  0  0  0  0  0
  -27.4059  -29.7254   25.4694 H   0  0  0  0  0  0
  -27.8795  -30.4276   23.9410 H   0  0  0  0  0  0
  -27.2706  -33.3641   26.2020 H   0  0  0  0  0  0
  -28.3918  -32.6801   25.0342 H   0  0  0  0  0  0
  -28.0701  -31.8456   26.5461 H   0  0  0  0  0  0
  -28.2591  -38.0108   24.7533 H   0  0  0  0  0  0
  -28.1072  -36.2637   24.6269 H   0  0  0  0  0  0
  -27.2289  -37.1413   25.8872 H   0  0  0  0  0  0
  -20.9372  -29.8791   21.6875 H   0  0  0  0  0  0
  -26.0161  -38.2851   24.1444 H   0  0  0  0  0  0
  -29.8687  -23.8115   18.1838 H   0  0  0  0  0  0
  -30.7399  -21.5067   18.2836 H   0  0  0  0  0  0
  -29.4396  -23.5168   23.6639 H   0  0  0  0  0  0
  -28.6976  -21.9319   23.8415 H   0  0  0  0  0  0
  -27.9135  -23.3513   24.5268 H   0  0  0  0  0  0
  -25.7917  -22.7637   21.4506 H   0  0  0  0  0  0
  -25.7439  -22.8788   23.2059 H   0  0  0  0  0  0
  -26.4317  -21.4509   22.4363 H   0  0  0  0  0  0
  -31.9194  -18.3642   22.0142 H   0  0  0  0  0  0
  -32.2314  -16.6415   22.0981 H   0  0  0  0  0  0
  -30.8485  -17.3280   22.9480 H   0  0  0  0  0  0
  -26.9717  -24.7366   20.2152 H   0  0  0  0  0  0
  -27.8015  -24.9973   18.7100 H   0  0  0  0  0  0
  -29.0542  -18.6237   21.5839 H   0  0  0  0  0  0
  -28.7786  -18.1722   19.9197 H   0  0  0  0  0  0
  -27.5570  -24.2838   22.3046 H   0  0  0  0  0  0
  -31.2053  -17.2105   19.9123 H   0  0  0  0  0  0
  -30.9077  -19.4719   19.4154 H   0  0  0  0  0  0
  -29.0136  -15.6705   21.0391 H   0  0  0  0  0  0
  1 25  1  0  0  0
  1 30  2  0  0  0
  1 85  1  0  0  0
  2  3  1  0  0  0
  2 25  1  0  0  0
  2 86  1  0  0  0
  2 87  1  0  0  0
  3  4  1  0  0  0
  3 88  1  0  0  0
  3 89  1  0  0  0
  4  5  1  0  0  0
  4 90  1  0  0  0
  4 91  1  0  0  0
  5  6  1  0  0  0
  5 26  1  0  0  0
  5 92  1  0  0  0
  6 25  1  0  0  0
  6 93  1  0  0  0
  6 94  1  0  0  0
  7  8  2  0  0  0
  7 26  1  0  0  0
  7 29  1  0  0  0
  8  9  1  0  0  0
  8 22  1  0  0  0
  9 10  1  0  0  0
  9 27  2  0  0  0
 10 11  2  0  0  0
 10 15  1  0  0  0
 11 12  1  0  0  0
 11 95  1  0  0  0
 12 13  2  0  0  0
 12 96  1  0  0  0
 13 14  1  0  0  0
 13 31  1  0  0  0
 14 15  2  0  0  0
 14 97  1  0  0  0
 15 98  1  0  0  0
 16 17  2  0  0  0
 16 21  1  0  0  0
 16 31  1  0  0  0
 17 18  1  0  0  0
 17 99  1  0  0  0
 18 19  2  0  0  0
 18100  1  0  0  0
 19 20  1  0  0  0
 19 24  1  0  0  0
 20 21  2  0  0  0
 20101  1  0  0  0
 21 23  1  0  0  0
 22 28  1  0  0  0
 22 32  2  0  0  0
 26 27  1  0  0  0
 28102  1  0  0  0
 28103  1  0  0  0
 29104  1  0  0  0
 29105  1  0  0  0
 33 34  1  0  0  0
 33 66  1  0  0  0
 33 70  2  0  0  0
 34 36  1  0  0  0
 34 59  1  0  0  0
 34106  1  0  0  0
 35 44  2  0  0  0
 35 45  1  0  0  0
 35 68  1  0  0  0
 36 56  1  0  0  0
 36107  1  0  0  0
 37 39  1  0  0  0
 37 47  1  0  0  0
 37 66  1  0  0  0
 37108  1  0  0  0
 38 43  2  0  0  0
 38 46  1  0  0  0
 38 47  1  0  0  0
 39 64  1  0  0  0
 39 67  2  0  0  0
 40 52  1  0  0  0
 40 53  2  0  0  0
 40 58  1  0  0  0
 41109  1  0  0  0
 41110  1  0  0  0
 41111  1  0  0  0
 41 48  1  0  0  0
 42 43  1  0  0  0
 42 66  1  0  0  0
 42112  1  0  0  0
 42113  1  0  0  0
 43 44  1  0  0  0
 44114  1  0  0  0
 45 46  2  0  0  0
 45115  1  0  0  0
 46116  1  0  0  0
 47117  1  0  0  0
 47118  1  0  0  0
 48 56  1  0  0  0
 48 65  1  0  0  0
 48119  1  0  0  0
 49 50  1  0  0  0
 49 53  1  0  0  0
 49 64  1  0  0  0
 49120  1  0  0  0
 50 51  1  0  0  0
 50121  1  0  0  0
 50122  1  0  0  0
 51 52  1  0  0  0
 51123  1  0  0  0
 51124  1  0  0  0
 52125  1  0  0  0
 52126  1  0  0  0
 53 54  1  0  0  0
 54 55  2  0  0  0
 54127  1  0  0  0
 55 57  1  0  0  0
 55128  1  0  0  0
 56 69  2  0  0  0
 57 58  2  0  0  0
 57129  1  0  0  0
 58130  1  0  0  0
 59 60  1  0  0  0
 59 61  1  0  0  0
 59 62  1  0  0  0
 60131  1  0  0  0
 60132  1  0  0  0
 60133  1  0  0  0
 61134  1  0  0  0
 61135  1  0  0  0
 61136  1  0  0  0
 62137  1  0  0  0
 62138  1  0  0  0
 62139  1  0  0  0
 63 65  1  0  0  0
 63140  1  0  0  0
 63141  1  0  0  0
 63142  1  0  0  0
 64143  1  0  0  0
 65144  1  0  0  0
 68 79  1  0  0  0
 71 72  2  0  0  0
 71 73  1  0  0  0
 71145  1  0  0  0
 72 75  1  0  0  0
 72146  1  0  0  0
 73 74  2  0  0  0
 73 79  1  0  0  0
 74 81  1  0  0  0
 74 83  1  0  0  0
 75 83  2  0  0  0
 75 84  1  0  0  0
 76147  1  0  0  0
 76148  1  0  0  0
 76149  1  0  0  0
 76 81  1  0  0  0
 77 81  1  0  0  0
 77150  1  0  0  0
 77151  1  0  0  0
 77152  1  0  0  0
 78153  1  0  0  0
 78154  1  0  0  0
 78155  1  0  0  0
 78 82  1  0  0  0
 79156  1  0  0  0
 79157  1  0  0  0
 80 82  1  0  0  0
 80 84  1  0  0  0
 80158  1  0  0  0
 80159  1  0  0  0
 81160  1  0  0  0
 82 85  1  0  0  0
 82161  1  0  0  0
 84162  1  0  0  0
 85163  1  0  0  0
M  ISO  4   1 100  68 101  79 101  85 100
M  END
> <chiral flag>
0

> <version>
0

> <s_m_source_file>
/data/baiqing/PycharmProjects/Reinvent-master-3.2/result/LINK_invent/BTK/process_docking_weight1_custom_sum_contain_oxygen_bond_distance_aromatic_linkinvent_7_9_3/rearranged_h_0125.sdf

> <i_m_source_file_index>
64

> <r_mmod_Potential_Energy-OPLS-2005>
-201.143112182617

> <r_mmod_Stretch_Energy-OPLS-2005>
80.6964111328125

> <r_mmod_Bend_Energy-OPLS-2005>
163.858016967773

> <r_mmod_Torsional_Energy-OPLS-2005>
209.383636474609

> <r_mmod_Improper_Torsional_Energy-OPLS-2005>
9.14698505401611

> <r_mmod_Van_der_Waal_Energy-OPLS-2005>
158.886749267578

> <r_mmod_Electrostatic_Energy-OPLS-2005>
-654.311340332031

> <r_mmod_Solvation_Energy-OPLS-2005>
-227.104843139648

> <b_mmod_Minimization_Converged-OPLS-2005>
0

> <r_mmod_RMS_Derivative-OPLS-2005>
1.39096629619598

$$$$
65
                    3D
 Structure written by MMmdl.
155163  0  0  1  0            999 V2000
  -30.6250  -14.7012   20.4791 C   0  0  0  0  0  0
  -30.4313  -12.4335   19.4643 C   0  0  0  0  0  0
  -29.5080  -12.5005   18.2289 C   0  0  0  0  0  0
  -28.0327  -12.3307   18.6419 C   0  0  0  0  0  0
  -27.6435  -13.2255   19.8496 C   0  0  2  0  0  0
  -28.6869  -13.1418   20.9839 C   0  0  0  0  0  0
  -25.2526  -13.8185   20.5675 C   0  0  0  0  0  0
  -24.1808  -13.0436   20.9191 C   0  0  0  0  0  0
  -24.6389  -11.6914   20.8726 C   0  0  0  0  0  0
  -23.9056  -10.4294   21.0394 C   0  0  0  0  0  0
  -24.3610   -9.4215   21.9177 C   0  0  0  0  0  0
  -23.6289   -8.2250   22.0750 C   0  0  0  0  0  0
  -22.4273   -8.0285   21.3546 C   0  0  0  0  0  0
  -21.9908   -9.0248   20.4642 C   0  0  0  0  0  0
  -22.7228  -10.2130   20.3046 C   0  0  0  0  0  0
  -21.6855   -6.0737   22.5282 C   0  0  0  0  0  0
  -21.4013   -6.5636   23.8213 C   0  0  0  0  0  0
  -21.3663   -5.6789   24.9175 C   0  0  0  0  0  0
  -21.6047   -4.3051   24.7224 C   0  0  0  0  0  0
  -21.8818   -3.8148   23.4343 C   0  0  0  0  0  0
  -21.9191   -4.6965   22.3401 C   0  0  0  0  0  0
  -22.7835  -13.5232   21.1847 C   0  0  0  0  0  0
  -22.1666   -4.2152   21.0982 F   0  0  0  0  0  0
  -21.5622   -3.4533   25.7737 F   0  0  0  0  0  0
  -29.9898  -13.4863   20.4037 N   0  0  0  0  0  0
  -26.2941  -12.9376   20.3261 N   0  0  0  0  0  0
  -25.9316  -11.6521   20.5735 N   0  0  0  0  0  0
  -22.0477  -12.8227   22.0406 N   0  0  0  0  0  0
  -25.4223  -15.1907   20.4104 N   0  0  0  0  0  0
  -31.8139  -14.8014   20.1649 O   0  0  0  0  0  0
  -21.6646   -6.8879   21.4245 O   0  0  0  0  0  0
  -22.3529  -14.5539   20.6694 O   0  0  0  0  0  0
  -24.6284  -31.8575   23.1983 C   0  0  0  0  0  0
  -25.9116  -32.4770   23.8339 C   0  0  1  0  0  0
  -27.2256  -27.2955   20.1351 C   0  0  0  0  0  0
  -25.5920  -33.8570   24.2268 N   0  0  0  0  0  0
  -23.4234  -30.4767   21.5427 C   0  0  2  0  0  0
  -24.8715  -28.9200   20.1182 C   0  0  0  0  0  0
  -22.7480  -29.4602   22.4944 C   0  0  0  0  0  0
  -18.0285  -28.1389   22.8504 C   0  0  0  0  0  0
  -24.1485  -36.7284   23.2644 C   0  0  0  0  0  0
  -25.9647  -30.7819   21.3706 C   0  0  0  0  0  0
  -26.0407  -29.4036   20.7199 C   0  0  0  0  0  0
  -27.2246  -28.6051   20.7123 C   0  0  0  0  0  0
  -26.0363  -26.8594   19.5190 C   0  0  0  0  0  0
  -24.8712  -27.6541   19.5072 C   0  0  0  0  0  0
  -23.6404  -29.8033   20.1614 C   0  0  0  0  0  0
  -25.4115  -36.3078   24.0326 C   0  0  1  0  0  0
  -20.5880  -28.3697   23.1283 C   0  0  2  0  0  0
  -20.6774  -26.9423   22.5407 C   0  0  0  0  0  0
  -19.5740  -26.6381   21.5215 C   0  0  0  0  0  0
  -18.1928  -26.7938   22.1633 C   0  0  0  0  0  0
  -19.1537  -28.8864   23.2887 C   0  0  0  0  0  0
  -18.9453  -30.1470   23.8897 C   0  0  0  0  0  0
  -17.6452  -30.6595   24.0561 C   0  0  0  0  0  0
  -25.9056  -34.9447   23.5106 C   0  0  0  0  0  0
  -16.5346  -29.9089   23.6330 C   0  0  0  0  0  0
  -16.7272  -28.6510   23.0357 C   0  0  0  0  0  0
  -26.4497  -31.6584   25.0715 C   0  0  0  0  0  0
  -25.3720  -31.3708   26.1429 C   0  0  0  0  0  0
  -27.0355  -30.3016   24.6174 C   0  0  0  0  0  0
  -27.6066  -32.4315   25.7481 C   0  0  0  0  0  0
  -27.5575  -37.1798   24.8468 C   0  0  0  0  0  0
  -21.4191  -29.3039   22.3686 N   0  0  0  0  0  0
  -26.4292  -37.3776   23.9406 N   0  0  0  0  0  0
  -24.6911  -31.0560   22.0945 N   0  0  0  0  0  0
  -23.4194  -28.8152   23.3044 O   0  0  0  0  0  0
  -28.3412  -26.4451   20.1145 O   0  0  0  0  0  0
  -26.5631  -34.8921   22.4675 O   0  0  0  0  0  0
  -23.5441  -32.1384   23.7294 O   0  0  0  0  0  0
  -27.6495  -20.5261   19.6804 C   0  0  0  0  0  0
  -29.6636  -19.8505   20.7957 C   0  0  0  0  0  0
  -28.7794  -20.9296   20.4184 C   0  0  0  0  0  0
  -27.4477  -19.1602   19.3745 C   0  0  0  0  0  0
  -29.3974  -18.4732   20.4477 C   0  0  0  0  0  0
  -26.2208  -18.7324   18.5968 C   0  0  0  0  0  0
  -28.9393  -22.4362   20.8957 C   0  0  0  0  0  0
  -30.3524  -17.2643   20.8015 C   0  0  0  0  0  0
  -28.4951  -23.7139   20.0105 C   0  0  0  0  0  0
  -28.2589  -25.1124   20.7780 C   0  0  0  0  0  0
  -28.2891  -18.1625   19.7423 N   0  0  0  0  0  0
  -29.8707  -15.8268   20.7254 N   0  0  0  0  0  0
  -31.4708  -12.5615   19.1586 H   0  0  0  0  0  0
  -30.3761  -11.4523   19.9381 H   0  0  0  0  0  0
  -29.7878  -11.7305   17.5087 H   0  0  0  0  0  0
  -29.6397  -13.4576   17.7208 H   0  0  0  0  0  0
  -27.8805  -11.2816   18.8971 H   0  0  0  0  0  0
  -27.3771  -12.5346   17.7950 H   0  0  0  0  0  0
  -27.6438  -14.2502   19.4780 H   0  0  0  0  0  0
  -28.7147  -12.1390   21.4133 H   0  0  0  0  0  0
  -28.4252  -13.8159   21.8015 H   0  0  0  0  0  0
  -25.2755   -9.5698   22.4739 H   0  0  0  0  0  0
  -24.0001   -7.4648   22.7469 H   0  0  0  0  0  0
  -21.0840   -8.8747   19.8953 H   0  0  0  0  0  0
  -22.3670  -10.9657   19.6143 H   0  0  0  0  0  0
  -21.2006   -7.6146   23.9716 H   0  0  0  0  0  0
  -21.1487   -6.0520   25.9075 H   0  0  0  0  0  0
  -22.0599   -2.7610   23.2839 H   0  0  0  0  0  0
  -22.4098  -11.9892   22.4797 H   0  0  0  0  0  0
  -21.1080  -13.1242   22.2587 H   0  0  0  0  0  0
  -24.6544  -15.8421   20.5253 H   0  0  0  0  0  0
  -26.2735  -15.6370   20.0919 H   0  0  0  0  0  0
  -26.7181  -32.5444   23.1093 H   0  0  0  0  0  0
  -25.0057  -33.9709   25.0406 H   0  0  0  0  0  0
  -22.7198  -31.2977   21.3942 H   0  0  0  0  0  0
  -23.3748  -35.9614   23.3315 H   0  0  0  0  0  0
  -24.3578  -36.8907   22.2058 H   0  0  0  0  0  0
  -23.7225  -37.6484   23.6664 H   0  0  0  0  0  0
  -26.0950  -31.5389   20.5962 H   0  0  0  0  0  0
  -26.8451  -30.8381   21.9987 H   0  0  0  0  0  0
  -28.1282  -28.9752   21.1780 H   0  0  0  0  0  0
  -26.0098  -25.8875   19.0469 H   0  0  0  0  0  0
  -23.9743  -27.2774   19.0344 H   0  0  0  0  0  0
  -23.7622  -30.5753   19.4007 H   0  0  0  0  0  0
  -22.7606  -29.2319   19.8606 H   0  0  0  0  0  0
  -25.1293  -36.1940   25.0816 H   0  0  0  0  0  0
  -20.9974  -28.3262   24.1398 H   0  0  0  0  0  0
  -20.5693  -26.2314   23.3611 H   0  0  0  0  0  0
  -21.6647  -26.7463   22.1191 H   0  0  0  0  0  0
  -19.6663  -27.3195   20.6743 H   0  0  0  0  0  0
  -19.6910  -25.6290   21.1249 H   0  0  0  0  0  0
  -17.4221  -26.6720   21.4010 H   0  0  0  0  0  0
  -18.0294  -26.0082   22.9019 H   0  0  0  0  0  0
  -19.7924  -30.7295   24.2260 H   0  0  0  0  0  0
  -17.4984  -31.6270   24.5160 H   0  0  0  0  0  0
  -15.5345  -30.2982   23.7645 H   0  0  0  0  0  0
  -15.8672  -28.0838   22.7057 H   0  0  0  0  0  0
  -24.5907  -30.7057   25.7733 H   0  0  0  0  0  0
  -24.8894  -32.2870   26.4849 H   0  0  0  0  0  0
  -25.8031  -30.8878   27.0207 H   0  0  0  0  0  0
  -26.2942  -29.6757   24.1198 H   0  0  0  0  0  0
  -27.4067  -29.7280   25.4677 H   0  0  0  0  0  0
  -27.8796  -30.4321   23.9399 H   0  0  0  0  0  0
  -27.2701  -33.3628   26.2048 H   0  0  0  0  0  0
  -28.3879  -32.6854   25.0302 H   0  0  0  0  0  0
  -28.0735  -31.8442   26.5401 H   0  0  0  0  0  0
  -28.2599  -38.0091   24.7519 H   0  0  0  0  0  0
  -28.1068  -36.2624   24.6297 H   0  0  0  0  0  0
  -27.2296  -37.1454   25.8874 H   0  0  0  0  0  0
  -20.9377  -29.8767   21.6903 H   0  0  0  0  0  0
  -26.0175  -38.2854   24.1401 H   0  0  0  0  0  0
  -26.9131  -21.2562   19.3727 H   0  0  0  0  0  0
  -30.5487  -20.0742   21.3768 H   0  0  0  0  0  0
  -25.3741  -19.3811   18.8207 H   0  0  0  0  0  0
  -25.9313  -17.7101   18.8410 H   0  0  0  0  0  0
  -26.4136  -18.7863   17.5260 H   0  0  0  0  0  0
  -29.9819  -22.5788   21.1815 H   0  0  0  0  0  0
  -28.3879  -22.4930   21.8343 H   0  0  0  0  0  0
  -30.7204  -17.4261   21.8147 H   0  0  0  0  0  0
  -31.2268  -17.3664   20.1575 H   0  0  0  0  0  0
  -27.5708  -23.4793   19.4839 H   0  0  0  0  0  0
  -29.2433  -23.8583   19.2316 H   0  0  0  0  0  0
  -29.0197  -25.1627   21.5574 H   0  0  0  0  0  0
  -27.3180  -25.0413   21.3258 H   0  0  0  0  0  0
  -28.8825  -15.6991   20.8742 H   0  0  0  0  0  0
  1 25  1  0  0  0
  1 30  2  0  0  0
  1 82  1  0  0  0
  2  3  1  0  0  0
  2 25  1  0  0  0
  2 83  1  0  0  0
  2 84  1  0  0  0
  3  4  1  0  0  0
  3 85  1  0  0  0
  3 86  1  0  0  0
  4  5  1  0  0  0
  4 87  1  0  0  0
  4 88  1  0  0  0
  5  6  1  0  0  0
  5 26  1  0  0  0
  5 89  1  0  0  0
  6 25  1  0  0  0
  6 90  1  0  0  0
  6 91  1  0  0  0
  7  8  2  0  0  0
  7 26  1  0  0  0
  7 29  1  0  0  0
  8  9  1  0  0  0
  8 22  1  0  0  0
  9 10  1  0  0  0
  9 27  2  0  0  0
 10 11  2  0  0  0
 10 15  1  0  0  0
 11 12  1  0  0  0
 11 92  1  0  0  0
 12 13  2  0  0  0
 12 93  1  0  0  0
 13 14  1  0  0  0
 13 31  1  0  0  0
 14 15  2  0  0  0
 14 94  1  0  0  0
 15 95  1  0  0  0
 16 17  2  0  0  0
 16 21  1  0  0  0
 16 31  1  0  0  0
 17 18  1  0  0  0
 17 96  1  0  0  0
 18 19  2  0  0  0
 18 97  1  0  0  0
 19 20  1  0  0  0
 19 24  1  0  0  0
 20 21  2  0  0  0
 20 98  1  0  0  0
 21 23  1  0  0  0
 22 28  1  0  0  0
 22 32  2  0  0  0
 26 27  1  0  0  0
 28 99  1  0  0  0
 28100  1  0  0  0
 29101  1  0  0  0
 29102  1  0  0  0
 33 34  1  0  0  0
 33 66  1  0  0  0
 33 70  2  0  0  0
 34 36  1  0  0  0
 34 59  1  0  0  0
 34103  1  0  0  0
 35 44  2  0  0  0
 35 45  1  0  0  0
 35 68  1  0  0  0
 36 56  1  0  0  0
 36104  1  0  0  0
 37 39  1  0  0  0
 37 47  1  0  0  0
 37 66  1  0  0  0
 37105  1  0  0  0
 38 43  2  0  0  0
 38 46  1  0  0  0
 38 47  1  0  0  0
 39 64  1  0  0  0
 39 67  2  0  0  0
 40 52  1  0  0  0
 40 53  2  0  0  0
 40 58  1  0  0  0
 41106  1  0  0  0
 41107  1  0  0  0
 41108  1  0  0  0
 41 48  1  0  0  0
 42 43  1  0  0  0
 42 66  1  0  0  0
 42109  1  0  0  0
 42110  1  0  0  0
 43 44  1  0  0  0
 44111  1  0  0  0
 45 46  2  0  0  0
 45112  1  0  0  0
 46113  1  0  0  0
 47114  1  0  0  0
 47115  1  0  0  0
 48 56  1  0  0  0
 48 65  1  0  0  0
 48116  1  0  0  0
 49 50  1  0  0  0
 49 53  1  0  0  0
 49 64  1  0  0  0
 49117  1  0  0  0
 50 51  1  0  0  0
 50118  1  0  0  0
 50119  1  0  0  0
 51 52  1  0  0  0
 51120  1  0  0  0
 51121  1  0  0  0
 52122  1  0  0  0
 52123  1  0  0  0
 53 54  1  0  0  0
 54 55  2  0  0  0
 54124  1  0  0  0
 55 57  1  0  0  0
 55125  1  0  0  0
 56 69  2  0  0  0
 57 58  2  0  0  0
 57126  1  0  0  0
 58127  1  0  0  0
 59 60  1  0  0  0
 59 61  1  0  0  0
 59 62  1  0  0  0
 60128  1  0  0  0
 60129  1  0  0  0
 60130  1  0  0  0
 61131  1  0  0  0
 61132  1  0  0  0
 61133  1  0  0  0
 62134  1  0  0  0
 62135  1  0  0  0
 62136  1  0  0  0
 63 65  1  0  0  0
 63137  1  0  0  0
 63138  1  0  0  0
 63139  1  0  0  0
 64140  1  0  0  0
 65141  1  0  0  0
 68 80  1  0  0  0
 71 73  2  0  0  0
 71 74  1  0  0  0
 71142  1  0  0  0
 72 73  1  0  0  0
 72 75  2  0  0  0
 72143  1  0  0  0
 73 77  1  0  0  0
 74 76  1  0  0  0
 74 81  2  0  0  0
 75 78  1  0  0  0
 75 81  1  0  0  0
 76144  1  0  0  0
 76145  1  0  0  0
 76146  1  0  0  0
 77 79  1  0  0  0
 77147  1  0  0  0
 77148  1  0  0  0
 78 82  1  0  0  0
 78149  1  0  0  0
 78150  1  0  0  0
 79 80  1  0  0  0
 79151  1  0  0  0
 79152  1  0  0  0
 80153  1  0  0  0
 80154  1  0  0  0
 82155  1  0  0  0
M  ISO  4   1 100  68 101  80 101  82 100
M  END
> <chiral flag>
0

> <version>
0

> <s_m_source_file>
/data/baiqing/PycharmProjects/Reinvent-master-3.2/result/LINK_invent/BTK/process_docking_weight1_custom_sum_contain_oxygen_bond_distance_aromatic_linkinvent_7_9_3/rearranged_h_0125.sdf

> <i_m_source_file_index>
65

> <r_mmod_Potential_Energy-OPLS-2005>
-200.405410766602

> <r_mmod_Stretch_Energy-OPLS-2005>
97.7890625

> <r_mmod_Bend_Energy-OPLS-2005>
147.979263305664

> <r_mmod_Torsional_Energy-OPLS-2005>
224.029296875

> <r_mmod_Improper_Torsional_Energy-OPLS-2005>
4.35896015167236

> <r_mmod_Van_der_Waal_Energy-OPLS-2005>
133.065307617188

> <r_mmod_Electrostatic_Energy-OPLS-2005>
-661.16796875

> <r_mmod_Solvation_Energy-OPLS-2005>
-211.352844238281

> <b_mmod_Minimization_Converged-OPLS-2005>
0

> <r_mmod_RMS_Derivative-OPLS-2005>
1.60270059108734

$$$$
66
                    3D
 Structure written by MMmdl.
159167  0  0  1  0            999 V2000
  -30.5313  -14.9703   20.4146 C   0  0  0  0  0  0
  -30.4424  -12.6045   19.4882 C   0  0  0  0  0  0
  -29.5182  -12.5229   18.2511 C   0  0  0  0  0  0
  -28.0547  -12.3028   18.6784 C   0  0  0  0  0  0
  -27.6265  -13.2456   19.8328 C   0  0  2  0  0  0
  -28.6728  -13.2906   20.9658 C   0  0  0  0  0  0
  -25.2454  -13.8204   20.5699 C   0  0  0  0  0  0
  -24.1769  -13.0432   20.9218 C   0  0  0  0  0  0
  -24.6390  -11.6919   20.8760 C   0  0  0  0  0  0
  -23.9077  -10.4285   21.0410 C   0  0  0  0  0  0
  -24.3628   -9.4198   21.9187 C   0  0  0  0  0  0
  -23.6289   -8.2240   22.0762 C   0  0  0  0  0  0
  -22.4273   -8.0278   21.3550 C   0  0  0  0  0  0
  -21.9913   -9.0253   20.4654 C   0  0  0  0  0  0
  -22.7250  -10.2125   20.3057 C   0  0  0  0  0  0
  -21.6854   -6.0729   22.5273 C   0  0  0  0  0  0
  -21.4019   -6.5639   23.8205 C   0  0  0  0  0  0
  -21.3658   -5.6789   24.9164 C   0  0  0  0  0  0
  -21.6041   -4.3051   24.7218 C   0  0  0  0  0  0
  -21.8823   -3.8142   23.4342 C   0  0  0  0  0  0
  -21.9192   -4.6954   22.3396 C   0  0  0  0  0  0
  -22.7788  -13.5200   21.1870 C   0  0  0  0  0  0
  -22.1659   -4.2138   21.0976 F   0  0  0  0  0  0
  -21.5623   -3.4539   25.7731 F   0  0  0  0  0  0
  -29.9399  -13.7084   20.3542 N   0  0  0  0  0  0
  -26.2876  -12.9431   20.3246 N   0  0  0  0  0  0
  -25.9323  -11.6566   20.5758 N   0  0  0  0  0  0
  -22.0458  -12.8182   22.0435 N   0  0  0  0  0  0
  -25.4116  -15.1934   20.4098 N   0  0  0  0  0  0
  -31.7499  -15.0181   20.2027 O   0  0  0  0  0  0
  -21.6643   -6.8874   21.4237 O   0  0  0  0  0  0
  -22.3459  -14.5501   20.6712 O   0  0  0  0  0  0
  -24.6452  -31.8422   23.1875 C   0  0  0  0  0  0
  -25.9207  -32.4695   23.8268 C   0  0  1  0  0  0
  -27.2089  -27.1138   20.1508 C   0  0  0  0  0  0
  -25.5953  -33.8498   24.2195 N   0  0  0  0  0  0
  -23.4495  -30.4627   21.5336 C   0  0  2  0  0  0
  -24.8969  -28.8859   20.1080 C   0  0  0  0  0  0
  -22.7577  -29.4545   22.4859 C   0  0  0  0  0  0
  -18.0310  -28.1410   22.8480 C   0  0  0  0  0  0
  -24.1484  -36.7244   23.2648 C   0  0  0  0  0  0
  -26.0065  -30.7082   21.3888 C   0  0  0  0  0  0
  -26.0748  -29.3171   20.7303 C   0  0  0  0  0  0
  -27.2313  -28.4462   20.7348 C   0  0  0  0  0  0
  -26.0066  -26.7920   19.4825 C   0  0  0  0  0  0
  -24.8760  -27.6380   19.4684 C   0  0  0  0  0  0
  -23.6770  -29.7936   20.1517 C   0  0  0  0  0  0
  -25.4116  -36.3018   24.0324 C   0  0  1  0  0  0
  -20.5923  -28.3732   23.1239 C   0  0  2  0  0  0
  -20.6797  -26.9438   22.5407 C   0  0  0  0  0  0
  -19.5767  -26.6384   21.5225 C   0  0  0  0  0  0
  -18.1944  -26.7953   22.1622 C   0  0  0  0  0  0
  -19.1568  -28.8889   23.2852 C   0  0  0  0  0  0
  -18.9485  -30.1491   23.8869 C   0  0  0  0  0  0
  -17.6484  -30.6604   24.0566 C   0  0  0  0  0  0
  -25.9066  -34.9403   23.5064 C   0  0  0  0  0  0
  -16.5372  -29.9101   23.6339 C   0  0  0  0  0  0
  -16.7295  -28.6523   23.0348 C   0  0  0  0  0  0
  -26.4530  -31.6564   25.0706 C   0  0  0  0  0  0
  -25.3715  -31.3750   26.1396 C   0  0  0  0  0  0
  -27.0400  -30.2967   24.6276 C   0  0  0  0  0  0
  -27.6061  -32.4326   25.7484 C   0  0  0  0  0  0
  -27.5572  -37.1775   24.8471 C   0  0  0  0  0  0
  -21.4268  -29.3062   22.3615 N   0  0  0  0  0  0
  -26.4273  -37.3739   23.9424 N   0  0  0  0  0  0
  -24.7209  -31.0252   22.0921 N   0  0  0  0  0  0
  -23.4214  -28.8090   23.3014 O   0  0  0  0  0  0
  -28.2509  -26.1112   20.2287 O   0  0  0  0  0  0
  -26.5650  -34.8907   22.4641 O   0  0  0  0  0  0
  -23.5566  -32.1301   23.7090 O   0  0  0  0  0  0
  -29.1140  -18.8192   20.2304 C   0  0  0  0  0  0
  -31.1442  -18.0983   21.2634 C   0  0  0  0  0  0
  -29.9792  -17.6652   20.5990 C   0  0  0  0  0  0
  -29.4259  -20.2503   20.5040 C   0  0  0  0  0  0
  -31.3980  -19.4704   21.5267 C   0  0  0  0  0  0
  -32.2362  -20.4228   23.7083 C   0  0  0  0  0  0
  -28.5282  -21.6020   20.1536 C   0  0  0  0  0  0
  -28.9421  -23.2341   20.3953 C   0  0  0  0  0  0
  -27.9643  -24.5807   20.0443 C   0  0  0  0  0  0
  -33.6152  -20.7856   21.5821 C   0  0  0  0  0  0
  -32.6386  -19.8514   22.3381 C   0  0  2  0  0  0
  -30.5738  -20.4969   21.1686 N   0  0  0  0  0  0
  -29.7240  -16.1522   20.4391 N   0  0  0  0  0  0
  -34.3884  -20.0994   20.6051 O   0  0  0  0  0  0
  -31.4724  -12.7744   19.1690 H   0  0  0  0  0  0
  -30.4496  -11.6593   20.0332 H   0  0  0  0  0  0
  -29.8409  -11.7176   17.5897 H   0  0  0  0  0  0
  -29.5968  -13.4449   17.6729 H   0  0  0  0  0  0
  -27.9621  -11.2653   19.0017 H   0  0  0  0  0  0
  -27.3852  -12.4157   17.8245 H   0  0  0  0  0  0
  -27.5829  -14.2415   19.3918 H   0  0  0  0  0  0
  -28.7711  -12.3206   21.4558 H   0  0  0  0  0  0
  -28.3716  -14.0006   21.7380 H   0  0  0  0  0  0
  -25.2775   -9.5656   22.4758 H   0  0  0  0  0  0
  -23.9988   -7.4629   22.7488 H   0  0  0  0  0  0
  -21.0843   -8.8774   19.8962 H   0  0  0  0  0  0
  -22.3719  -10.9657   19.6161 H   0  0  0  0  0  0
  -21.2029   -7.6151   23.9700 H   0  0  0  0  0  0
  -21.1473   -6.0526   25.9064 H   0  0  0  0  0  0
  -22.0608   -2.7601   23.2844 H   0  0  0  0  0  0
  -22.4090  -11.9836   22.4786 H   0  0  0  0  0  0
  -21.1090  -13.1204   22.2698 H   0  0  0  0  0  0
  -24.6381  -15.8425   20.5049 H   0  0  0  0  0  0
  -26.2524  -15.6339   20.0611 H   0  0  0  0  0  0
  -26.7263  -32.5287   23.0987 H   0  0  0  0  0  0
  -25.0093  -33.9614   25.0339 H   0  0  0  0  0  0
  -22.7539  -31.2906   21.3793 H   0  0  0  0  0  0
  -23.3758  -35.9560   23.3279 H   0  0  0  0  0  0
  -24.3580  -36.8888   22.2066 H   0  0  0  0  0  0
  -23.7220  -37.6431   23.6692 H   0  0  0  0  0  0
  -26.1600  -31.4617   20.6148 H   0  0  0  0  0  0
  -26.8804  -30.7611   22.0270 H   0  0  0  0  0  0
  -28.1269  -28.7697   21.2462 H   0  0  0  0  0  0
  -25.9042  -25.8415   18.9817 H   0  0  0  0  0  0
  -23.9765  -27.3054   18.9667 H   0  0  0  0  0  0
  -23.8228  -30.5705   19.3999 H   0  0  0  0  0  0
  -22.7894  -29.2430   19.8354 H   0  0  0  0  0  0
  -25.1305  -36.1835   25.0813 H   0  0  0  0  0  0
  -21.0006  -28.3303   24.1362 H   0  0  0  0  0  0
  -20.5702  -26.2348   23.3628 H   0  0  0  0  0  0
  -21.6661  -26.7454   22.1200 H   0  0  0  0  0  0
  -19.6929  -25.6286   21.1276 H   0  0  0  0  0  0
  -19.6700  -27.3181   20.6746 H   0  0  0  0  0  0
  -17.4225  -26.6705   21.4014 H   0  0  0  0  0  0
  -18.0322  -26.0114   22.9029 H   0  0  0  0  0  0
  -19.7964  -30.7322   24.2203 H   0  0  0  0  0  0
  -17.5041  -31.6278   24.5182 H   0  0  0  0  0  0
  -15.5373  -30.2997   23.7698 H   0  0  0  0  0  0
  -15.8690  -28.0851   22.7056 H   0  0  0  0  0  0
  -24.5920  -30.7061   25.7728 H   0  0  0  0  0  0
  -24.8877  -32.2931   26.4737 H   0  0  0  0  0  0
  -25.8001  -30.8991   27.0225 H   0  0  0  0  0  0
  -26.3021  -29.6684   24.1274 H   0  0  0  0  0  0
  -27.4036  -29.7250   25.4827 H   0  0  0  0  0  0
  -27.8915  -30.4232   23.9582 H   0  0  0  0  0  0
  -27.2673  -33.3671   26.1973 H   0  0  0  0  0  0
  -28.3921  -32.6805   25.0334 H   0  0  0  0  0  0
  -28.0678  -31.8499   26.5467 H   0  0  0  0  0  0
  -28.2571  -38.0088   24.7526 H   0  0  0  0  0  0
  -28.1073  -36.2615   24.6271 H   0  0  0  0  0  0
  -27.2297  -37.1400   25.8875 H   0  0  0  0  0  0
  -20.9475  -29.8793   21.6815 H   0  0  0  0  0  0
  -26.0124  -38.2796   24.1445 H   0  0  0  0  0  0
  -28.1805  -18.6068   19.7270 H   0  0  0  0  0  0
  -31.8515  -17.3600   21.6151 H   0  0  0  0  0  0
  -31.5929  -19.7218   24.2418 H   0  0  0  0  0  0
  -31.6949  -21.3635   23.6074 H   0  0  0  0  0  0
  -33.1113  -20.6084   24.3319 H   0  0  0  0  0  0
  -27.5801  -21.4500   20.6698 H   0  0  0  0  0  0
  -28.2773  -21.5039   19.0976 H   0  0  0  0  0  0
  -29.8805  -23.3896   19.8633 H   0  0  0  0  0  0
  -29.2078  -23.3195   21.4487 H   0  0  0  0  0  0
  -27.0312  -24.3996   20.5798 H   0  0  0  0  0  0
  -27.7060  -24.4725   18.9899 H   0  0  0  0  0  0
  -34.3209  -21.2237   22.2894 H   0  0  0  0  0  0
  -33.0816  -21.6208   21.1270 H   0  0  0  0  0  0
  -33.1820  -18.9321   22.5615 H   0  0  0  0  0  0
  -28.7461  -15.9261   20.3556 H   0  0  0  0  0  0
  -34.9324  -19.4587   21.0546 H   0  0  0  0  0  0
  1 25  1  0  0  0
  1 30  2  0  0  0
  1 83  1  0  0  0
  2  3  1  0  0  0
  2 25  1  0  0  0
  2 85  1  0  0  0
  2 86  1  0  0  0
  3  4  1  0  0  0
  3 87  1  0  0  0
  3 88  1  0  0  0
  4  5  1  0  0  0
  4 89  1  0  0  0
  4 90  1  0  0  0
  5  6  1  0  0  0
  5 26  1  0  0  0
  5 91  1  0  0  0
  6 25  1  0  0  0
  6 92  1  0  0  0
  6 93  1  0  0  0
  7  8  2  0  0  0
  7 26  1  0  0  0
  7 29  1  0  0  0
  8  9  1  0  0  0
  8 22  1  0  0  0
  9 10  1  0  0  0
  9 27  2  0  0  0
 10 11  2  0  0  0
 10 15  1  0  0  0
 11 12  1  0  0  0
 11 94  1  0  0  0
 12 13  2  0  0  0
 12 95  1  0  0  0
 13 14  1  0  0  0
 13 31  1  0  0  0
 14 15  2  0  0  0
 14 96  1  0  0  0
 15 97  1  0  0  0
 16 17  2  0  0  0
 16 21  1  0  0  0
 16 31  1  0  0  0
 17 18  1  0  0  0
 17 98  1  0  0  0
 18 19  2  0  0  0
 18 99  1  0  0  0
 19 20  1  0  0  0
 19 24  1  0  0  0
 20 21  2  0  0  0
 20100  1  0  0  0
 21 23  1  0  0  0
 22 28  1  0  0  0
 22 32  2  0  0  0
 26 27  1  0  0  0
 28101  1  0  0  0
 28102  1  0  0  0
 29103  1  0  0  0
 29104  1  0  0  0
 33 34  1  0  0  0
 33 66  1  0  0  0
 33 70  2  0  0  0
 34 36  1  0  0  0
 34 59  1  0  0  0
 34105  1  0  0  0
 35 44  2  0  0  0
 35 45  1  0  0  0
 35 68  1  0  0  0
 36 56  1  0  0  0
 36106  1  0  0  0
 37 39  1  0  0  0
 37 47  1  0  0  0
 37 66  1  0  0  0
 37107  1  0  0  0
 38 43  2  0  0  0
 38 46  1  0  0  0
 38 47  1  0  0  0
 39 64  1  0  0  0
 39 67  2  0  0  0
 40 52  1  0  0  0
 40 53  2  0  0  0
 40 58  1  0  0  0
 41108  1  0  0  0
 41109  1  0  0  0
 41110  1  0  0  0
 41 48  1  0  0  0
 42 43  1  0  0  0
 42 66  1  0  0  0
 42111  1  0  0  0
 42112  1  0  0  0
 43 44  1  0  0  0
 44113  1  0  0  0
 45 46  2  0  0  0
 45114  1  0  0  0
 46115  1  0  0  0
 47116  1  0  0  0
 47117  1  0  0  0
 48 56  1  0  0  0
 48 65  1  0  0  0
 48118  1  0  0  0
 49 50  1  0  0  0
 49 53  1  0  0  0
 49 64  1  0  0  0
 49119  1  0  0  0
 50 51  1  0  0  0
 50120  1  0  0  0
 50121  1  0  0  0
 51 52  1  0  0  0
 51122  1  0  0  0
 51123  1  0  0  0
 52124  1  0  0  0
 52125  1  0  0  0
 53 54  1  0  0  0
 54 55  2  0  0  0
 54126  1  0  0  0
 55 57  1  0  0  0
 55127  1  0  0  0
 56 69  2  0  0  0
 57 58  2  0  0  0
 57128  1  0  0  0
 58129  1  0  0  0
 59 60  1  0  0  0
 59 61  1  0  0  0
 59 62  1  0  0  0
 60130  1  0  0  0
 60131  1  0  0  0
 60132  1  0  0  0
 61133  1  0  0  0
 61134  1  0  0  0
 61135  1  0  0  0
 62136  1  0  0  0
 62137  1  0  0  0
 62138  1  0  0  0
 63 65  1  0  0  0
 63139  1  0  0  0
 63140  1  0  0  0
 63141  1  0  0  0
 64142  1  0  0  0
 65143  1  0  0  0
 68 79  1  0  0  0
 71 73  2  0  0  0
 71 74  1  0  0  0
 71144  1  0  0  0
 72 73  1  0  0  0
 72 75  2  0  0  0
 72145  1  0  0  0
 73 83  1  0  0  0
 74 77  1  0  0  0
 74 82  2  0  0  0
 75 81  1  0  0  0
 75 82  1  0  0  0
 76146  1  0  0  0
 76147  1  0  0  0
 76148  1  0  0  0
 76 81  1  0  0  0
 77 78  1  0  0  0
 77149  1  0  0  0
 77150  1  0  0  0
 78 79  1  0  0  0
 78151  1  0  0  0
 78152  1  0  0  0
 79153  1  0  0  0
 79154  1  0  0  0
 80 81  1  0  0  0
 80 84  1  0  0  0
 80155  1  0  0  0
 80156  1  0  0  0
 81157  1  0  0  0
 83158  1  0  0  0
 84159  1  0  0  0
M  ISO  4   1 100  68 101  79 101  83 100
M  END
> <chiral flag>
0

> <version>
0

> <s_m_source_file>
/data/baiqing/PycharmProjects/Reinvent-master-3.2/result/LINK_invent/BTK/process_docking_weight1_custom_sum_contain_oxygen_bond_distance_aromatic_linkinvent_7_9_3/rearranged_h_0125.sdf

> <i_m_source_file_index>
66

> <r_mmod_Potential_Energy-OPLS-2005>
399.708282470703

> <r_mmod_Stretch_Energy-OPLS-2005>
276.922027587891

> <r_mmod_Bend_Energy-OPLS-2005>
252.849365234375

> <r_mmod_Torsional_Energy-OPLS-2005>
211.666152954102

> <r_mmod_Improper_Torsional_Energy-OPLS-2005>
6.67439270019531

> <r_mmod_Van_der_Waal_Energy-OPLS-2005>
130.933975219727

> <r_mmod_Electrostatic_Energy-OPLS-2005>
-445.122375488281

> <r_mmod_Solvation_Energy-OPLS-2005>
-247.21369934082

> <b_mmod_Minimization_Converged-OPLS-2005>
0

> <r_mmod_RMS_Derivative-OPLS-2005>
1.58080697059631

$$$$
67
                    3D
 Structure written by MMmdl.
168176  0  0  1  0            999 V2000
  -30.5980  -14.7188   20.4878 C   0  0  0  0  0  0
  -30.4696  -12.4587   19.4664 C   0  0  0  0  0  0
  -29.5368  -12.5069   18.2372 C   0  0  0  0  0  0
  -28.0513  -12.3536   18.6286 C   0  0  0  0  0  0
  -27.6515  -13.2246   19.8522 C   0  0  2  0  0  0
  -28.6969  -13.1129   20.9888 C   0  0  0  0  0  0
  -25.2575  -13.8189   20.5685 C   0  0  0  0  0  0
  -24.1827  -13.0410   20.9222 C   0  0  0  0  0  0
  -24.6418  -11.6906   20.8682 C   0  0  0  0  0  0
  -23.9048  -10.4292   21.0397 C   0  0  0  0  0  0
  -24.3604   -9.4231   21.9205 C   0  0  0  0  0  0
  -23.6330   -8.2226   22.0751 C   0  0  0  0  0  0
  -22.4308   -8.0253   21.3522 C   0  0  0  0  0  0
  -21.9925   -9.0200   20.4613 C   0  0  0  0  0  0
  -22.7205  -10.2131   20.3066 C   0  0  0  0  0  0
  -21.6818   -6.0761   22.5312 C   0  0  0  0  0  0
  -21.3952   -6.5650   23.8247 C   0  0  0  0  0  0
  -21.3662   -5.6794   24.9211 C   0  0  0  0  0  0
  -21.6060   -4.3054   24.7239 C   0  0  0  0  0  0
  -21.8830   -3.8165   23.4355 C   0  0  0  0  0  0
  -21.9189   -4.6999   22.3418 C   0  0  0  0  0  0
  -22.7869  -13.5237   21.1856 C   0  0  0  0  0  0
  -22.1699   -4.2161   21.0995 F   0  0  0  0  0  0
  -21.5643   -3.4566   25.7775 F   0  0  0  0  0  0
  -30.0073  -13.4784   20.4295 N   0  0  0  0  0  0
  -26.2966  -12.9336   20.3187 N   0  0  0  0  0  0
  -25.9324  -11.6503   20.5638 N   0  0  0  0  0  0
  -22.0432  -12.8214   22.0381 N   0  0  0  0  0  0
  -25.4320  -15.1903   20.4234 N   0  0  0  0  0  0
  -31.7735  -14.8866   20.1563 O   0  0  0  0  0  0
  -21.6625   -6.8900   21.4269 O   0  0  0  0  0  0
  -22.3592  -14.5541   20.6762 O   0  0  0  0  0  0
  -24.6354  -31.8603   23.1955 C   0  0  0  0  0  0
  -25.9207  -32.4749   23.8326 C   0  0  1  0  0  0
  -27.1661  -27.2462   20.1519 C   0  0  0  0  0  0
  -25.6006  -33.8536   24.2292 N   0  0  0  0  0  0
  -23.4299  -30.4906   21.5381 C   0  0  2  0  0  0
  -24.8643  -28.9435   20.0947 C   0  0  0  0  0  0
  -22.7549  -29.4694   22.4872 C   0  0  0  0  0  0
  -18.0327  -28.1378   22.8489 C   0  0  0  0  0  0
  -24.1516  -36.7249   23.2649 C   0  0  0  0  0  0
  -25.9746  -30.7652   21.3794 C   0  0  0  0  0  0
  -26.0317  -29.3852   20.7304 C   0  0  0  0  0  0
  -27.1875  -28.5423   20.7613 C   0  0  0  0  0  0
  -26.0069  -26.8969   19.4375 C   0  0  0  0  0  0
  -24.8617  -27.7096   19.4287 C   0  0  0  0  0  0
  -23.6419  -29.8389   20.1446 C   0  0  0  0  0  0
  -25.4137  -36.3054   24.0370 C   0  0  1  0  0  0
  -20.5931  -28.3735   23.1198 C   0  0  2  0  0  0
  -20.6799  -26.9440   22.5364 C   0  0  0  0  0  0
  -19.5748  -26.6395   21.5200 C   0  0  0  0  0  0
  -18.1948  -26.7941   22.1622 C   0  0  0  0  0  0
  -19.1576  -28.8868   23.2852 C   0  0  0  0  0  0
  -18.9497  -30.1452   23.8893 C   0  0  0  0  0  0
  -17.6492  -30.6557   24.0575 C   0  0  0  0  0  0
  -25.9084  -34.9443   23.5124 C   0  0  0  0  0  0
  -16.5387  -29.9057   23.6298 C   0  0  0  0  0  0
  -16.7327  -28.6477   23.0352 C   0  0  0  0  0  0
  -26.4547  -31.6510   25.0687 C   0  0  0  0  0  0
  -25.3733  -31.3639   26.1368 C   0  0  0  0  0  0
  -27.0485  -30.2962   24.6163 C   0  0  0  0  0  0
  -27.6141  -32.4227   25.7401 C   0  0  0  0  0  0
  -27.5630  -37.1782   24.8491 C   0  0  0  0  0  0
  -21.4260  -29.3083   22.3596 N   0  0  0  0  0  0
  -26.4319  -37.3754   23.9443 N   0  0  0  0  0  0
  -24.7001  -31.0624   22.0911 N   0  0  0  0  0  0
  -23.4257  -28.8247   23.2992 O   0  0  0  0  0  0
  -28.2063  -26.3041   20.2196 O   0  0  0  0  0  0
  -26.5628  -34.8948   22.4656 O   0  0  0  0  0  0
  -23.5515  -32.1433   23.7257 O   0  0  0  0  0  0
  -31.2150  -22.7030   19.6350 C   0  0  0  0  0  0
  -30.9277  -21.4808   20.5468 C   0  0  0  0  0  0
  -28.6015  -22.2724   20.8766 C   0  0  0  0  0  0
  -30.2655  -23.9512   19.7747 C   0  0  2  0  0  0
  -28.7663  -23.6176   20.0391 C   0  0  2  0  0  0
  -29.4656  -21.0197   20.3880 C   0  0  2  0  0  0
  -31.8668  -25.4426   18.4385 C   0  0  0  0  0  0
  -29.8621  -24.4302   17.2123 C   0  0  0  0  0  0
  -27.8669  -24.8699   20.5463 C   0  0  0  0  0  0
  -29.7426  -17.2168   20.1815 C   0  0  0  0  0  0
  -29.9626  -18.4373   21.1943 C   0  0  0  0  0  0
  -30.4295  -24.9317   18.5611 C   0  0  0  0  0  0
  -29.7468  -15.7787   20.6818 N   0  0  0  0  0  0
  -29.0875  -19.6915   21.0459 N   0  3  0  0  0  0
  -31.4935  -12.6631   19.1419 H   0  0  0  0  0  0
  -30.5039  -11.4718   19.9245 H   0  0  0  0  0  0
  -29.8172  -11.7296   17.5248 H   0  0  0  0  0  0
  -29.6877  -13.4539   17.7163 H   0  0  0  0  0  0
  -27.8753  -11.3003   18.8426 H   0  0  0  0  0  0
  -27.4275  -12.5999   17.7706 H   0  0  0  0  0  0
  -27.6482  -14.2511   19.4923 H   0  0  0  0  0  0
  -28.7277  -12.0914   21.3800 H   0  0  0  0  0  0
  -28.4190  -13.7462   21.8346 H   0  0  0  0  0  0
  -25.2757   -9.5731   22.4774 H   0  0  0  0  0  0
  -24.0039   -7.4623   22.7483 H   0  0  0  0  0  0
  -21.0843   -8.8726   19.8918 H   0  0  0  0  0  0
  -22.3676  -10.9656   19.6182 H   0  0  0  0  0  0
  -21.1903   -7.6153   23.9755 H   0  0  0  0  0  0
  -21.1472   -6.0528   25.9109 H   0  0  0  0  0  0
  -22.0603   -2.7623   23.2866 H   0  0  0  0  0  0
  -22.3988  -11.9876   22.4790 H   0  0  0  0  0  0
  -21.1047  -13.1292   22.2484 H   0  0  0  0  0  0
  -24.6638  -15.8437   20.5434 H   0  0  0  0  0  0
  -26.2729  -15.6307   20.0713 H   0  0  0  0  0  0
  -26.7339  -32.5417   23.1139 H   0  0  0  0  0  0
  -25.0239  -33.9598   25.0508 H   0  0  0  0  0  0
  -22.7321  -31.3173   21.3995 H   0  0  0  0  0  0
  -23.3820  -35.9529   23.3236 H   0  0  0  0  0  0
  -24.3679  -36.8892   22.2080 H   0  0  0  0  0  0
  -23.7204  -37.6428   23.6656 H   0  0  0  0  0  0
  -26.1314  -31.5237   20.6084 H   0  0  0  0  0  0
  -26.8497  -30.8003   22.0164 H   0  0  0  0  0  0
  -28.0683  -28.8565   21.3030 H   0  0  0  0  0  0
  -25.9749  -25.9751   18.8759 H   0  0  0  0  0  0
  -23.9940  -27.3847   18.8748 H   0  0  0  0  0  0
  -23.7464  -30.6175   19.3870 H   0  0  0  0  0  0
  -22.7606  -29.2743   19.8434 H   0  0  0  0  0  0
  -25.1295  -36.1933   25.0866 H   0  0  0  0  0  0
  -21.0104  -28.3347   24.1290 H   0  0  0  0  0  0
  -20.5677  -26.2410   23.3617 H   0  0  0  0  0  0
  -21.6679  -26.7408   22.1178 H   0  0  0  0  0  0
  -19.6899  -25.6308   21.1213 H   0  0  0  0  0  0
  -19.6639  -27.3210   20.6726 H   0  0  0  0  0  0
  -17.4225  -26.6742   21.4001 H   0  0  0  0  0  0
  -18.0294  -26.0055   22.8969 H   0  0  0  0  0  0
  -19.7968  -30.7261   24.2307 H   0  0  0  0  0  0
  -17.5027  -31.6237   24.5159 H   0  0  0  0  0  0
  -15.5382  -30.2950   23.7575 H   0  0  0  0  0  0
  -15.8762  -28.0772   22.7056 H   0  0  0  0  0  0
  -24.5901  -30.7030   25.7637 H   0  0  0  0  0  0
  -24.8930  -32.2789   26.4815 H   0  0  0  0  0  0
  -25.7973  -30.8762   27.0134 H   0  0  0  0  0  0
  -26.3121  -29.6597   24.1263 H   0  0  0  0  0  0
  -27.4341  -29.7297   25.4644 H   0  0  0  0  0  0
  -27.8882  -30.4327   23.9354 H   0  0  0  0  0  0
  -27.2818  -33.3529   26.1999 H   0  0  0  0  0  0
  -28.3869  -32.6750   25.0127 H   0  0  0  0  0  0
  -28.0902  -31.8334   26.5240 H   0  0  0  0  0  0
  -28.2598  -38.0133   24.7610 H   0  0  0  0  0  0
  -28.1168  -36.2667   24.6196 H   0  0  0  0  0  0
  -27.2372  -37.1301   25.8898 H   0  0  0  0  0  0
  -20.9463  -29.9023   21.6969 H   0  0  0  0  0  0
  -26.0222  -38.2838   24.1386 H   0  0  0  0  0  0
  -31.2411  -22.3532   18.6048 H   0  0  0  0  0  0
  -32.2383  -23.0224   19.8423 H   0  0  0  0  0  0
  -31.1429  -21.7325   21.5855 H   0  0  0  0  0  0
  -31.6227  -20.6839   20.2803 H   0  0  0  0  0  0
  -27.5432  -22.0044   20.8771 H   0  0  0  0  0  0
  -28.8356  -22.4819   21.9261 H   0  0  0  0  0  0
  -30.6022  -24.4897   20.6589 H   0  0  0  0  0  0
  -28.3725  -23.3161   19.0744 H   0  0  0  0  0  0
  -29.2986  -20.8754   19.3178 H   0  0  0  0  0  0
  -32.1571  -25.9790   19.3457 H   0  0  0  0  0  0
  -31.9847  -26.1327   17.6032 H   0  0  0  0  0  0
  -32.5630  -24.6199   18.2910 H   0  0  0  0  0  0
  -28.7706  -24.3650   17.2284 H   0  0  0  0  0  0
  -30.2463  -23.4504   16.9281 H   0  0  0  0  0  0
  -30.0939  -25.1319   16.4114 H   0  0  0  0  0  0
  -27.8401  -24.8404   21.6411 H   0  0  0  0  0  0
  -26.8368  -24.5994   20.2733 H   0  0  0  0  0  0
  -30.4257  -17.3228   19.3365 H   0  0  0  0  0  0
  -28.7490  -17.3286   19.7467 H   0  0  0  0  0  0
  -31.0209  -18.6988   21.2432 H   0  0  0  0  0  0
  -29.7260  -18.0568   22.1880 H   0  0  0  0  0  0
  -29.8709  -25.8394   18.7578 H   0  0  0  0  0  0
  -28.8160  -15.4552   20.9004 H   0  0  0  0  0  0
  -28.2300  -19.3911   20.6147 H   0  0  0  0  0  0
  -28.8316  -19.9231   21.9942 H   0  0  0  0  0  0
  1 25  1  0  0  0
  1 30  2  0  0  0
  1 83  1  0  0  0
  2  3  1  0  0  0
  2 25  1  0  0  0
  2 85  1  0  0  0
  2 86  1  0  0  0
  3  4  1  0  0  0
  3 87  1  0  0  0
  3 88  1  0  0  0
  4  5  1  0  0  0
  4 89  1  0  0  0
  4 90  1  0  0  0
  5  6  1  0  0  0
  5 26  1  0  0  0
  5 91  1  0  0  0
  6 25  1  0  0  0
  6 92  1  0  0  0
  6 93  1  0  0  0
  7  8  2  0  0  0
  7 26  1  0  0  0
  7 29  1  0  0  0
  8  9  1  0  0  0
  8 22  1  0  0  0
  9 10  1  0  0  0
  9 27  2  0  0  0
 10 11  2  0  0  0
 10 15  1  0  0  0
 11 12  1  0  0  0
 11 94  1  0  0  0
 12 13  2  0  0  0
 12 95  1  0  0  0
 13 14  1  0  0  0
 13 31  1  0  0  0
 14 15  2  0  0  0
 14 96  1  0  0  0
 15 97  1  0  0  0
 16 17  2  0  0  0
 16 21  1  0  0  0
 16 31  1  0  0  0
 17 18  1  0  0  0
 17 98  1  0  0  0
 18 19  2  0  0  0
 18 99  1  0  0  0
 19 20  1  0  0  0
 19 24  1  0  0  0
 20 21  2  0  0  0
 20100  1  0  0  0
 21 23  1  0  0  0
 22 28  1  0  0  0
 22 32  2  0  0  0
 26 27  1  0  0  0
 28101  1  0  0  0
 28102  1  0  0  0
 29103  1  0  0  0
 29104  1  0  0  0
 33 34  1  0  0  0
 33 66  1  0  0  0
 33 70  2  0  0  0
 34 36  1  0  0  0
 34 59  1  0  0  0
 34105  1  0  0  0
 35 44  2  0  0  0
 35 45  1  0  0  0
 35 68  1  0  0  0
 36 56  1  0  0  0
 36106  1  0  0  0
 37 39  1  0  0  0
 37 47  1  0  0  0
 37 66  1  0  0  0
 37107  1  0  0  0
 38 43  2  0  0  0
 38 46  1  0  0  0
 38 47  1  0  0  0
 39 64  1  0  0  0
 39 67  2  0  0  0
 40 52  1  0  0  0
 40 53  2  0  0  0
 40 58  1  0  0  0
 41108  1  0  0  0
 41109  1  0  0  0
 41110  1  0  0  0
 41 48  1  0  0  0
 42 43  1  0  0  0
 42 66  1  0  0  0
 42111  1  0  0  0
 42112  1  0  0  0
 43 44  1  0  0  0
 44113  1  0  0  0
 45 46  2  0  0  0
 45114  1  0  0  0
 46115  1  0  0  0
 47116  1  0  0  0
 47117  1  0  0  0
 48 56  1  0  0  0
 48 65  1  0  0  0
 48118  1  0  0  0
 49 50  1  0  0  0
 49 53  1  0  0  0
 49 64  1  0  0  0
 49119  1  0  0  0
 50 51  1  0  0  0
 50120  1  0  0  0
 50121  1  0  0  0
 51 52  1  0  0  0
 51122  1  0  0  0
 51123  1  0  0  0
 52124  1  0  0  0
 52125  1  0  0  0
 53 54  1  0  0  0
 54 55  2  0  0  0
 54126  1  0  0  0
 55 57  1  0  0  0
 55127  1  0  0  0
 56 69  2  0  0  0
 57 58  2  0  0  0
 57128  1  0  0  0
 58129  1  0  0  0
 59 60  1  0  0  0
 59 61  1  0  0  0
 59 62  1  0  0  0
 60130  1  0  0  0
 60131  1  0  0  0
 60132  1  0  0  0
 61133  1  0  0  0
 61134  1  0  0  0
 61135  1  0  0  0
 62136  1  0  0  0
 62137  1  0  0  0
 62138  1  0  0  0
 63 65  1  0  0  0
 63139  1  0  0  0
 63140  1  0  0  0
 63141  1  0  0  0
 64142  1  0  0  0
 65143  1  0  0  0
 68 79  1  0  0  0
 71 72  1  0  0  0
 71144  1  0  0  0
 71145  1  0  0  0
 71 74  1  0  0  0
 72 76  1  0  0  0
 72146  1  0  0  0
 72147  1  0  0  0
 73 75  1  0  0  0
 73 76  1  0  0  0
 73148  1  0  0  0
 73149  1  0  0  0
 74 75  1  0  0  0
 74 82  1  0  0  0
 74150  1  0  0  0
 75 79  1  0  0  0
 75151  1  0  0  0
 76 84  1  0  0  0
 76152  1  0  0  0
 77153  1  0  0  0
 77154  1  0  0  0
 77155  1  0  0  0
 77 82  1  0  0  0
 78 82  1  0  0  0
 78156  1  0  0  0
 78157  1  0  0  0
 78158  1  0  0  0
 79159  1  0  0  0
 79160  1  0  0  0
 80 81  1  0  0  0
 80 83  1  0  0  0
 80161  1  0  0  0
 80162  1  0  0  0
 81 84  1  0  0  0
 81163  1  0  0  0
 81164  1  0  0  0
 82165  1  0  0  0
 83166  1  0  0  0
 84167  1  0  0  0
 84168  1  0  0  0
M  CHG  1  84   1
M  ISO  4   1 100  68 101  79 101  83 100
M  END
> <chiral flag>
0

> <version>
0

> <s_m_source_file>
/data/baiqing/PycharmProjects/Reinvent-master-3.2/result/LINK_invent/BTK/process_docking_weight1_custom_sum_contain_oxygen_bond_distance_aromatic_linkinvent_7_9_3/rearranged_h_0125.sdf

> <i_m_source_file_index>
67

> <r_mmod_Potential_Energy-OPLS-2005>
71.4819259643555

> <r_mmod_Stretch_Energy-OPLS-2005>
107.815231323242

> <r_mmod_Bend_Energy-OPLS-2005>
199.095138549805

> <r_mmod_Torsional_Energy-OPLS-2005>
309.105560302734

> <r_mmod_Improper_Torsional_Energy-OPLS-2005>
7.51569080352783

> <r_mmod_Van_der_Waal_Energy-OPLS-2005>
129.139083862305

> <r_mmod_Electrostatic_Energy-OPLS-2005>
-296.468566894531

> <r_mmod_Solvation_Energy-OPLS-2005>
-478.223236083984

> <b_mmod_Minimization_Converged-OPLS-2005>
0

> <r_mmod_RMS_Derivative-OPLS-2005>
10.2272996902466

$$$$
68
                    3D
 Structure written by MMmdl.
171180  0  0  1  0            999 V2000
  -29.7742  -14.9712   21.5986 C   0  0  0  0  0  0
  -31.1399  -13.6926   19.3115 C   0  0  0  0  0  0
  -30.2753  -13.2368   17.4835 C   0  0  0  0  0  0
  -28.3069  -12.8108   17.4559 C   0  0  0  0  0  0
  -27.3971  -13.0055   19.1114 C   0  0  2  0  0  0
  -28.5212  -13.4271   20.8745 C   0  0  0  0  0  0
  -26.1322  -14.1255   20.4941 C   0  0  0  0  0  0
  -24.3485  -13.2775   21.8349 C   0  0  0  0  0  0
  -24.1744  -11.8181   20.8508 C   0  0  0  0  0  0
  -23.6103  -10.5089   21.0877 C   0  0  0  0  0  0
  -24.1646   -9.5472   21.9717 C   0  0  0  0  0  0
  -23.5578   -8.2800   22.0923 C   0  0  0  0  0  0
  -22.3892   -8.0024   21.3433 C   0  0  0  0  0  0
  -21.9032   -8.9444   20.4253 C   0  0  0  0  0  0
  -22.5243  -10.1832   20.2794 C   0  0  0  0  0  0
  -21.6908   -6.0499   22.5281 C   0  0  0  0  0  0
  -21.4020   -6.5531   23.8151 C   0  0  0  0  0  0
  -21.3651   -5.6752   24.9167 C   0  0  0  0  0  0
  -21.6046   -4.2999   24.7290 C   0  0  0  0  0  0
  -21.8843   -3.8005   23.4448 C   0  0  0  0  0  0
  -21.9235   -4.6751   22.3470 C   0  0  0  0  0  0
  -22.7783  -13.5507   22.0630 C   0  0  0  0  0  0
  -22.1710   -4.1928   21.1052 F   0  0  0  0  0  0
  -21.5611   -3.4534   25.7836 F   0  0  0  0  0  0
  -30.0594  -13.8568   20.8332 N   0  0  0  0  0  0
  -26.1798  -12.9458   19.4203 N   0  0  0  0  0  0
  -25.1742  -11.7327   19.6235 N   0  0  0  0  0  0
  -22.1093  -12.6206   22.6965 N   0  0  0  0  0  0
  -26.6337  -15.3691   19.9242 N   0  0  0  0  0  0
  -30.8470  -15.5891   21.3991 O   0  0  0  0  0  0
  -21.6774   -6.8368   21.4104 O   0  0  0  0  0  0
  -22.0508  -14.3270   21.4095 O   0  0  0  0  0  0
  -24.7002  -31.7829   23.1418 C   0  0  0  0  0  0
  -25.9517  -32.4371   23.7996 C   0  0  1  0  0  0
  -27.1531  -26.5739   20.0860 C   0  0  0  0  0  0
  -25.6039  -33.8208   24.1868 N   0  0  0  0  0  0
  -23.5226  -30.3917   21.5054 C   0  0  2  0  0  0
  -24.9521  -28.7157   20.1005 C   0  0  0  0  0  0
  -22.7811  -29.4249   22.4691 C   0  0  0  0  0  0
  -18.0344  -28.1419   22.8455 C   0  0  0  0  0  0
  -24.1499  -36.7106   23.2658 C   0  0  0  0  0  0
  -26.1129  -30.4602   21.4201 C   0  0  0  0  0  0
  -26.1574  -29.0198   20.7433 C   0  0  0  0  0  0
  -27.2462  -27.9755   20.7057 C   0  0  0  0  0  0
  -25.9105  -26.5139   19.4164 C   0  0  0  0  0  0
  -24.8722  -27.4906   19.4231 C   0  0  0  0  0  0
  -23.7686  -29.6970   20.1383 C   0  0  0  0  0  0
  -25.4157  -36.2834   24.0268 C   0  0  1  0  0  0
  -20.5985  -28.3780   23.1128 C   0  0  2  0  0  0
  -20.6803  -26.9433   22.5401 C   0  0  0  0  0  0
  -19.5778  -26.6366   21.5215 C   0  0  0  0  0  0
  -18.1963  -26.7947   22.1620 C   0  0  0  0  0  0
  -19.1613  -28.8927   23.2769 C   0  0  0  0  0  0
  -18.9517  -30.1510   23.8817 C   0  0  0  0  0  0
  -17.6505  -30.6602   24.0547 C   0  0  0  0  0  0
  -25.9150  -34.9232   23.4909 C   0  0  0  0  0  0
  -16.5394  -29.9081   23.6353 C   0  0  0  0  0  0
  -16.7324  -28.6502   23.0374 C   0  0  0  0  0  0
  -26.4635  -31.6476   25.0688 C   0  0  0  0  0  0
  -25.3665  -31.3835   26.1280 C   0  0  0  0  0  0
  -27.0585  -30.2800   24.6693 C   0  0  0  0  0  0
  -27.6043  -32.4383   25.7522 C   0  0  0  0  0  0
  -27.5555  -37.1718   24.8471 C   0  0  0  0  0  0
  -21.4448  -29.3014   22.3446 N   0  0  0  0  0  0
  -26.4265  -37.3616   23.9405 N   0  0  0  0  0  0
  -24.8063  -30.9135   22.0742 N   0  0  0  0  0  0
  -23.4214  -28.7846   23.3061 O   0  0  0  0  0  0
  -28.0331  -25.2581   20.0389 O   0  0  0  0  0  0
  -26.5800  -34.8838   22.4535 O   0  0  0  0  0  0
  -23.6000  -32.0985   23.6300 O   0  0  0  0  0  0
  -28.2331  -20.7721   18.3709 C   0  0  0  0  0  0
  -28.4894  -19.2589   18.2078 C   0  0  0  0  0  0
  -24.1536  -13.9493   19.8469 C   0  0  0  0  0  0
  -25.3301  -15.7401   22.0981 C   0  0  0  0  0  0
  -26.6483  -13.3541   22.8433 C   0  0  0  0  0  0
  -28.6232  -20.5612   20.4949 C   0  0  0  0  0  0
  -28.2717  -21.6984   19.5541 C   0  0  0  0  0  0
  -24.2296  -15.4778   20.7664 C   0  0  0  0  0  0
  -26.2487  -12.3465   21.6350 C   0  0  0  0  0  0
  -26.7366  -14.9207   22.6686 C   0  0  0  0  0  0
  -28.8300  -18.1929   19.1997 C   0  0  0  0  0  0
  -23.4435  -16.6678   20.2488 C   0  0  0  0  0  0
  -27.2178  -11.0292   21.2785 C   0  0  0  0  0  0
  -27.6354  -23.5163   19.7254 C   0  0  0  0  0  0
  -29.4603  -16.3815   18.9662 C   0  0  0  0  0  0
  -28.3775  -10.8937   20.0218 C   0  0  0  0  0  0
  -29.4861  -12.0929   19.3231 C   0  0  0  0  0  0
  -28.8917  -19.0920   20.3403 N   0  0  0  0  0  0
  -28.3944  -15.3754   22.3218 N   0  0  0  0  0  0
  -29.0119  -14.6123   18.8705 N   0  3  0  0  0  0
  -31.7121  -14.6121   19.1916 H   0  0  0  0  0  0
  -31.9474  -12.9865   19.5243 H   0  0  0  0  0  0
  -30.8418  -12.4460   16.9867 H   0  0  0  0  0  0
  -30.4499  -14.0845   16.8170 H   0  0  0  0  0  0
  -28.1574  -11.7906   17.0929 H   0  0  0  0  0  0
  -27.8368  -13.4004   16.6632 H   0  0  0  0  0  0
  -27.0124  -13.7651   18.4239 H   0  0  0  0  0  0
  -28.9926  -12.5768   21.3682 H   0  0  0  0  0  0
  -28.4672  -13.0454   21.8477 H   0  0  0  0  0  0
  -25.0190   -9.7902   22.5848 H   0  0  0  0  0  0
  -23.9661   -7.5538   22.7803 H   0  0  0  0  0  0
  -21.0326   -8.7119   19.8279 H   0  0  0  0  0  0
  -22.1362  -10.9001   19.5679 H   0  0  0  0  0  0
  -21.2001   -7.6050   23.9559 H   0  0  0  0  0  0
  -21.1439   -6.0540   25.9040 H   0  0  0  0  0  0
  -22.0620   -2.7457   23.3008 H   0  0  0  0  0  0
  -22.5897  -11.8751   23.1795 H   0  0  0  0  0  0
  -21.1040  -12.6844   22.7610 H   0  0  0  0  0  0
  -25.9724  -15.6208   19.1964 H   0  0  0  0  0  0
  -26.4396  -16.0385   20.6624 H   0  0  0  0  0  0
  -26.7602  -32.4769   23.0697 H   0  0  0  0  0  0
  -25.0090  -33.9224   24.9959 H   0  0  0  0  0  0
  -22.8559  -31.2365   21.3191 H   0  0  0  0  0  0
  -23.3778  -35.9417   23.3270 H   0  0  0  0  0  0
  -24.3555  -36.8825   22.2081 H   0  0  0  0  0  0
  -23.7250  -37.6263   23.6779 H   0  0  0  0  0  0
  -26.3426  -31.1868   20.6398 H   0  0  0  0  0  0
  -26.9560  -30.5097   22.0966 H   0  0  0  0  0  0
  -28.1598  -28.2079   21.2344 H   0  0  0  0  0  0
  -25.6891  -25.6005   18.8831 H   0  0  0  0  0  0
  -23.9595  -27.2540   18.8929 H   0  0  0  0  0  0
  -23.9609  -30.4610   19.3845 H   0  0  0  0  0  0
  -22.8620  -29.1873   19.8076 H   0  0  0  0  0  0
  -25.1376  -36.1572   25.0758 H   0  0  0  0  0  0
  -21.0060  -28.3402   24.1257 H   0  0  0  0  0  0
  -20.5658  -26.2404   23.3667 H   0  0  0  0  0  0
  -21.6663  -26.7361   22.1223 H   0  0  0  0  0  0
  -19.6930  -25.6258   21.1292 H   0  0  0  0  0  0
  -19.6722  -27.3135   20.6712 H   0  0  0  0  0  0
  -17.4232  -26.6694   21.4023 H   0  0  0  0  0  0
  -18.0348  -26.0105   22.9030 H   0  0  0  0  0  0
  -19.7993  -30.7348   24.2149 H   0  0  0  0  0  0
  -17.5055  -31.6276   24.5161 H   0  0  0  0  0  0
  -15.5390  -30.2956   23.7723 H   0  0  0  0  0  0
  -15.8726  -28.0791   22.7137 H   0  0  0  0  0  0
  -24.5893  -30.7130   25.7594 H   0  0  0  0  0  0
  -24.8810  -32.3067   26.4456 H   0  0  0  0  0  0
  -25.7824  -30.9180   27.0225 H   0  0  0  0  0  0
  -26.3319  -29.6370   24.1718 H   0  0  0  0  0  0
  -27.3982  -29.7306   25.5482 H   0  0  0  0  0  0
  -27.9315  -30.3894   24.0256 H   0  0  0  0  0  0
  -27.2544  -33.3763   26.1847 H   0  0  0  0  0  0
  -28.3985  -32.6826   25.0454 H   0  0  0  0  0  0
  -28.0569  -31.8695   26.5655 H   0  0  0  0  0  0
  -28.2541  -38.0039   24.7495 H   0  0  0  0  0  0
  -28.1079  -36.2557   24.6327 H   0  0  0  0  0  0
  -27.2262  -37.1382   25.8870 H   0  0  0  0  0  0
  -20.9767  -29.8684   21.6516 H   0  0  0  0  0  0
  -26.0073  -38.2655   24.1416 H   0  0  0  0  0  0
  -27.9517  -21.2617   17.4498 H   0  0  0  0  0  0
  -28.4244  -18.9024   17.1880 H   0  0  0  0  0  0
  -23.6445  -13.7195   18.9173 H   0  0  0  0  0  0
  -25.3749  -16.7992   22.3127 H   0  0  0  0  0  0
  -27.3881  -12.9422   23.5185 H   0  0  0  0  0  0
  -28.6748  -20.8453   21.5351 H   0  0  0  0  0  0
  -22.7228  -16.3540   19.4942 H   0  0  0  0  0  0
  -24.1168  -17.3937   19.7926 H   0  0  0  0  0  0
  -22.9014  -17.1578   21.0576 H   0  0  0  0  0  0
  -26.5832  -10.1558   21.1617 H   0  0  0  0  0  0
  -27.7448  -10.8138   22.2078 H   0  0  0  0  0  0
  -26.8342  -23.3682   20.4491 H   0  0  0  0  0  0
  -27.0990  -23.6094   18.7811 H   0  0  0  0  0  0
  -30.5008  -16.4504   19.2636 H   0  0  0  0  0  0
  -29.6060  -16.4786   17.8918 H   0  0  0  0  0  0
  -27.8160  -10.4913   19.1778 H   0  0  0  0  0  0
  -28.9927  -10.0353   20.2953 H   0  0  0  0  0  0
  -29.8234  -11.3830   18.5501 H   0  0  0  0  0  0
  -30.2984  -11.7476   19.9842 H   0  0  0  0  0  0
  -28.5393  -16.3222   22.6417 H   0  0  0  0  0  0
  -28.7446  -14.5494   17.9014 H   0  0  0  0  0  0
  -28.1205  -14.7348   19.3614 H   0  0  0  0  0  0
  1 25  1  0  0  0
  1 30  2  0  0  0
  1 89  1  0  0  0
  2  3  1  0  0  0
  2 25  1  0  0  0
  2 91  1  0  0  0
  2 92  1  0  0  0
  3  4  1  0  0  0
  3 93  1  0  0  0
  3 94  1  0  0  0
  4  5  1  0  0  0
  4 95  1  0  0  0
  4 96  1  0  0  0
  5  6  1  0  0  0
  5 26  1  0  0  0
  5 97  1  0  0  0
  6 25  1  0  0  0
  6 98  1  0  0  0
  6 99  1  0  0  0
  7  8  2  0  0  0
  7 26  1  0  0  0
  7 29  1  0  0  0
  8  9  1  0  0  0
  8 22  1  0  0  0
  9 10  1  0  0  0
  9 27  2  0  0  0
 10 11  2  0  0  0
 10 15  1  0  0  0
 11 12  1  0  0  0
 11100  1  0  0  0
 12 13  2  0  0  0
 12101  1  0  0  0
 13 14  1  0  0  0
 13 31  1  0  0  0
 14 15  2  0  0  0
 14102  1  0  0  0
 15103  1  0  0  0
 16 17  2  0  0  0
 16 21  1  0  0  0
 16 31  1  0  0  0
 17 18  1  0  0  0
 17104  1  0  0  0
 18 19  2  0  0  0
 18105  1  0  0  0
 19 20  1  0  0  0
 19 24  1  0  0  0
 20 21  2  0  0  0
 20106  1  0  0  0
 21 23  1  0  0  0
 22 28  1  0  0  0
 22 32  2  0  0  0
 26 27  1  0  0  0
 28107  1  0  0  0
 28108  1  0  0  0
 29109  1  0  0  0
 29110  1  0  0  0
 33 34  1  0  0  0
 33 66  1  0  0  0
 33 70  2  0  0  0
 34 36  1  0  0  0
 34 59  1  0  0  0
 34111  1  0  0  0
 35 44  2  0  0  0
 35 45  1  0  0  0
 35 68  1  0  0  0
 36 56  1  0  0  0
 36112  1  0  0  0
 37 39  1  0  0  0
 37 47  1  0  0  0
 37 66  1  0  0  0
 37113  1  0  0  0
 38 43  2  0  0  0
 38 46  1  0  0  0
 38 47  1  0  0  0
 39 64  1  0  0  0
 39 67  2  0  0  0
 40 52  1  0  0  0
 40 53  2  0  0  0
 40 58  1  0  0  0
 41114  1  0  0  0
 41115  1  0  0  0
 41116  1  0  0  0
 41 48  1  0  0  0
 42 43  1  0  0  0
 42 66  1  0  0  0
 42117  1  0  0  0
 42118  1  0  0  0
 43 44  1  0  0  0
 44119  1  0  0  0
 45 46  2  0  0  0
 45120  1  0  0  0
 46121  1  0  0  0
 47122  1  0  0  0
 47123  1  0  0  0
 48 56  1  0  0  0
 48 65  1  0  0  0
 48124  1  0  0  0
 49 50  1  0  0  0
 49 53  1  0  0  0
 49 64  1  0  0  0
 49125  1  0  0  0
 50 51  1  0  0  0
 50126  1  0  0  0
 50127  1  0  0  0
 51 52  1  0  0  0
 51128  1  0  0  0
 51129  1  0  0  0
 52130  1  0  0  0
 52131  1  0  0  0
 53 54  1  0  0  0
 54 55  2  0  0  0
 54132  1  0  0  0
 55 57  1  0  0  0
 55133  1  0  0  0
 56 69  2  0  0  0
 57 58  2  0  0  0
 57134  1  0  0  0
 58135  1  0  0  0
 59 60  1  0  0  0
 59 61  1  0  0  0
 59 62  1  0  0  0
 60136  1  0  0  0
 60137  1  0  0  0
 60138  1  0  0  0
 61139  1  0  0  0
 61140  1  0  0  0
 61141  1  0  0  0
 62142  1  0  0  0
 62143  1  0  0  0
 62144  1  0  0  0
 63 65  1  0  0  0
 63145  1  0  0  0
 63146  1  0  0  0
 63147  1  0  0  0
 64148  1  0  0  0
 65149  1  0  0  0
 68 84  1  0  0  0
 71 72  2  0  0  0
 71 77  1  0  0  0
 71150  1  0  0  0
 72 81  1  0  0  0
 72151  1  0  0  0
 73 78  2  0  0  0
 73 79  1  0  0  0
 73152  1  0  0  0
 74 78  1  0  0  0
 74 80  2  0  0  0
 74153  1  0  0  0
 75 79  2  0  0  0
 75 80  1  0  0  0
 75154  1  0  0  0
 76 77  2  0  0  0
 76 88  1  0  0  0
 76155  1  0  0  0
 77 84  1  0  0  0
 78 82  1  0  0  0
 79 83  1  0  0  0
 80 89  1  0  0  0
 81 85  1  0  0  0
 81 88  2  0  0  0
 82156  1  0  0  0
 82157  1  0  0  0
 82158  1  0  0  0
 83 86  1  0  0  0
 83159  1  0  0  0
 83160  1  0  0  0
 84161  1  0  0  0
 84162  1  0  0  0
 85 90  1  0  0  0
 85163  1  0  0  0
 85164  1  0  0  0
 86 87  1  0  0  0
 86165  1  0  0  0
 86166  1  0  0  0
 87 90  1  0  0  0
 87167  1  0  0  0
 87168  1  0  0  0
 89169  1  0  0  0
 90170  1  0  0  0
 90171  1  0  0  0
M  CHG  1  90   1
M  ISO  4   1 100  68 101  84 101  89 100
M  END
> <chiral flag>
0

> <version>
0

> <s_m_source_file>
/data/baiqing/PycharmProjects/Reinvent-master-3.2/result/LINK_invent/BTK/process_docking_weight1_custom_sum_contain_oxygen_bond_distance_aromatic_linkinvent_7_9_3/rearranged_h_0125.sdf

> <i_m_source_file_index>
68

> <r_mmod_Potential_Energy-OPLS-2005>
26345.703125

> <r_mmod_Stretch_Energy-OPLS-2005>
15330.9716796875

> <r_mmod_Bend_Energy-OPLS-2005>
2143.25805664062

> <r_mmod_Torsional_Energy-OPLS-2005>
689.139465332031

> <r_mmod_Improper_Torsional_Energy-OPLS-2005>
116.343406677246

> <r_mmod_Van_der_Waal_Energy-OPLS-2005>
6467.576171875

> <r_mmod_Electrostatic_Energy-OPLS-2005>
-619.58349609375

> <r_mmod_Solvation_Energy-OPLS-2005>
-422.621612548828

> <b_mmod_Minimization_Converged-OPLS-2005>
0

> <r_mmod_RMS_Derivative-OPLS-2005>
4.95768451690674

$$$$
69
                    3D
 Structure written by MMmdl.
171180  0  0  1  0            999 V2000
  -30.7948  -14.2823   20.7527 C   0  0  0  0  0  0
  -30.4260  -12.2905   19.3433 C   0  0  0  0  0  0
  -29.4714  -12.5408   18.1639 C   0  0  0  0  0  0
  -28.0033  -12.3914   18.5991 C   0  0  0  0  0  0
  -27.6706  -13.2007   19.8778 C   0  0  2  0  0  0
  -28.7084  -12.8930   20.9716 C   0  0  0  0  0  0
  -25.2669  -13.8126   20.5760 C   0  0  0  0  0  0
  -24.1906  -13.0400   20.9195 C   0  0  0  0  0  0
  -24.6460  -11.6883   20.8692 C   0  0  0  0  0  0
  -23.9132  -10.4275   21.0346 C   0  0  0  0  0  0
  -24.3673   -9.4186   21.9138 C   0  0  0  0  0  0
  -23.6343   -8.2225   22.0734 C   0  0  0  0  0  0
  -22.4324   -8.0285   21.3536 C   0  0  0  0  0  0
  -21.9953   -9.0254   20.4624 C   0  0  0  0  0  0
  -22.7290  -10.2114   20.3024 C   0  0  0  0  0  0
  -21.6871   -6.0723   22.5294 C   0  0  0  0  0  0
  -21.4013   -6.5623   23.8232 C   0  0  0  0  0  0
  -21.3648   -5.6807   24.9187 C   0  0  0  0  0  0
  -21.6040   -4.3070   24.7254 C   0  0  0  0  0  0
  -21.8814   -3.8149   23.4401 C   0  0  0  0  0  0
  -21.9192   -4.6956   22.3428 C   0  0  0  0  0  0
  -22.7905  -13.5166   21.1808 C   0  0  0  0  0  0
  -22.1648   -4.2135   21.1004 F   0  0  0  0  0  0
  -21.5657   -3.4529   25.7766 F   0  0  0  0  0  0
  -30.0581  -13.1894   20.4433 N   0  0  0  0  0  0
  -26.3112  -12.9302   20.3398 N   0  0  0  0  0  0
  -25.9390  -11.6448   20.5736 N   0  0  0  0  0  0
  -22.0546  -12.8163   22.0387 N   0  0  0  0  0  0
  -25.4344  -15.1844   20.4208 N   0  0  0  0  0  0
  -31.7496  -14.6909   20.0837 O   0  0  0  0  0  0
  -21.6676   -6.8883   21.4260 O   0  0  0  0  0  0
  -22.3579  -14.5447   20.6607 O   0  0  0  0  0  0
  -24.6084  -31.8707   23.2161 C   0  0  0  0  0  0
  -25.9013  -32.4812   23.8468 C   0  0  1  0  0  0
  -27.2565  -27.4959   20.0958 C   0  0  0  0  0  0
  -25.5923  -33.8616   24.2394 N   0  0  0  0  0  0
  -23.3974  -30.4966   21.5459 C   0  0  2  0  0  0
  -24.8517  -28.9711   20.1106 C   0  0  0  0  0  0
  -22.7398  -29.4671   22.4936 C   0  0  0  0  0  0
  -18.0297  -28.1367   22.8491 C   0  0  0  0  0  0
  -24.1496  -36.7296   23.2644 C   0  0  0  0  0  0
  -25.9214  -30.8582   21.3656 C   0  0  0  0  0  0
  -26.0031  -29.4997   20.7052 C   0  0  0  0  0  0
  -27.2102  -28.7700   20.6965 C   0  0  0  0  0  0
  -26.0931  -26.9719   19.4936 C   0  0  0  0  0  0
  -24.8875  -27.7013   19.5045 C   0  0  0  0  0  0
  -23.6111  -29.8307   20.1599 C   0  0  0  0  0  0
  -25.4099  -36.3089   24.0350 C   0  0  1  0  0  0
  -20.5870  -28.3641   23.1305 C   0  0  2  0  0  0
  -20.6747  -26.9365   22.5417 C   0  0  0  0  0  0
  -19.5734  -26.6356   21.5219 C   0  0  0  0  0  0
  -18.1911  -26.7908   22.1631 C   0  0  0  0  0  0
  -19.1538  -28.8824   23.2884 C   0  0  0  0  0  0
  -18.9475  -30.1423   23.8896 C   0  0  0  0  0  0
  -17.6465  -30.6555   24.0568 C   0  0  0  0  0  0
  -25.9022  -34.9451   23.5157 C   0  0  0  0  0  0
  -16.5365  -29.9061   23.6311 C   0  0  0  0  0  0
  -16.7284  -28.6483   23.0335 C   0  0  0  0  0  0
  -26.4508  -31.6577   25.0774 C   0  0  0  0  0  0
  -25.3838  -31.3624   26.1580 C   0  0  0  0  0  0
  -27.0390  -30.3053   24.6104 C   0  0  0  0  0  0
  -27.6064  -32.4363   25.7537 C   0  0  0  0  0  0
  -27.5565  -37.1793   24.8464 C   0  0  0  0  0  0
  -21.4123  -29.3030   22.3703 N   0  0  0  0  0  0
  -26.4281  -37.3769   23.9403 N   0  0  0  0  0  0
  -24.6572  -31.0898   22.1004 N   0  0  0  0  0  0
  -23.4196  -28.8169   23.2926 O   0  0  0  0  0  0
  -28.3986  -26.7347   20.0642 O   0  0  0  0  0  0
  -26.5550  -34.8893   22.4690 O   0  0  0  0  0  0
  -23.5283  -32.1432   23.7603 O   0  0  0  0  0  0
  -29.2442  -18.1871   21.4839 C   0  0  0  0  0  0
  -28.8418  -19.4471   20.9966 C   0  0  0  0  0  0
  -29.0557  -19.0127   23.7600 C   0  0  0  0  0  0
  -29.4001  -17.9774   22.8702 C   0  0  0  0  0  0
  -28.5905  -20.5153   21.8845 C   0  0  0  0  0  0
  -28.6602  -20.2770   23.2829 C   0  0  0  0  0  0
  -30.3813  -22.7070   20.5804 C   0  0  0  0  0  0
  -28.6891  -24.2343   21.2802 C   0  0  0  0  0  0
  -31.4792  -23.7555   20.8429 C   0  0  0  0  0  0
  -29.7508  -25.3464   21.4914 C   0  0  2  0  0  0
  -28.3367  -21.3585   24.3023 C   0  0  0  0  0  0
  -29.9223  -16.6635   23.4355 C   0  0  0  0  0  0
  -28.2286  -21.8863   21.3192 C   0  0  0  0  0  0
  -29.1814  -26.7545   21.2579 C   0  0  0  0  0  0
  -31.0167  -15.9776   22.5871 C   0  0  0  0  0  0
  -29.2657  -22.9061   21.5198 N   0  0  0  0  0  0
  -30.4592  -14.8105   21.9303 N   0  0  0  0  0  0
  -30.9360  -25.1114   20.6358 N   0  3  0  0  0  0
  -31.4632  -12.4203   19.0228 H   0  0  0  0  0  0
  -30.3493  -11.2567   19.6743 H   0  0  0  0  0  0
  -29.6831  -11.8518   17.3454 H   0  0  0  0  0  0
  -29.6349  -13.5432   17.7711 H   0  0  0  0  0  0
  -27.8134  -11.3342   18.7827 H   0  0  0  0  0  0
  -27.3420  -12.6817   17.7826 H   0  0  0  0  0  0
  -27.7380  -14.2630   19.6393 H   0  0  0  0  0  0
  -28.6599  -11.8365   21.2429 H   0  0  0  0  0  0
  -28.4443  -13.4326   21.8800 H   0  0  0  0  0  0
  -25.2810   -9.5615   22.4728 H   0  0  0  0  0  0
  -23.9995   -7.4607   22.7481 H   0  0  0  0  0  0
  -21.0871   -8.8808   19.8944 H   0  0  0  0  0  0
  -22.3770  -10.9667   19.6155 H   0  0  0  0  0  0
  -21.2005   -7.6149   23.9724 H   0  0  0  0  0  0
  -21.1458   -6.0538   25.9098 H   0  0  0  0  0  0
  -22.0595   -2.7614   23.2922 H   0  0  0  0  0  0
  -22.4150  -11.9825   22.4776 H   0  0  0  0  0  0
  -21.1127  -13.1086   22.2527 H   0  0  0  0  0  0
  -24.6731  -15.8405   20.5519 H   0  0  0  0  0  0
  -26.3080  -15.6306   20.1714 H   0  0  0  0  0  0
  -26.7083  -32.5589   23.1243 H   0  0  0  0  0  0
  -25.0221  -33.9784   25.0643 H   0  0  0  0  0  0
  -22.6837  -31.3112   21.4029 H   0  0  0  0  0  0
  -23.3751  -35.9643   23.3323 H   0  0  0  0  0  0
  -24.3588  -36.8893   22.2061 H   0  0  0  0  0  0
  -23.7261  -37.6494   23.6662 H   0  0  0  0  0  0
  -26.0521  -31.6420   20.6176 H   0  0  0  0  0  0
  -26.7970  -30.8901   21.9999 H   0  0  0  0  0  0
  -28.0952  -29.1983   21.1451 H   0  0  0  0  0  0
  -26.1242  -25.9953   19.0287 H   0  0  0  0  0  0
  -24.0005  -27.2808   19.0450 H   0  0  0  0  0  0
  -23.7197  -30.6111   19.4048 H   0  0  0  0  0  0
  -22.7414  -29.2473   19.8543 H   0  0  0  0  0  0
  -25.1264  -36.1960   25.0841 H   0  0  0  0  0  0
  -21.0002  -28.3241   24.1411 H   0  0  0  0  0  0
  -20.5657  -26.2255   23.3608 H   0  0  0  0  0  0
  -21.6609  -26.7382   22.1202 H   0  0  0  0  0  0
  -19.6870  -25.6273   21.1235 H   0  0  0  0  0  0
  -19.6684  -27.3194   20.6763 H   0  0  0  0  0  0
  -17.4169  -26.6734   21.4025 H   0  0  0  0  0  0
  -18.0248  -26.0061   22.9027 H   0  0  0  0  0  0
  -19.7956  -30.7222   24.2302 H   0  0  0  0  0  0
  -17.5027  -31.6256   24.5152 H   0  0  0  0  0  0
  -15.5353  -30.2954   23.7605 H   0  0  0  0  0  0
  -15.8702  -28.0783   22.7034 H   0  0  0  0  0  0
  -24.5992  -30.6974   25.7938 H   0  0  0  0  0  0
  -24.9077  -32.2767   26.5153 H   0  0  0  0  0  0
  -25.8296  -30.8732   27.0256 H   0  0  0  0  0  0
  -26.2913  -29.6743   24.1300 H   0  0  0  0  0  0
  -27.4338  -29.7356   25.4511 H   0  0  0  0  0  0
  -27.8657  -30.4401   23.9137 H   0  0  0  0  0  0
  -27.2627  -33.3644   26.2102 H   0  0  0  0  0  0
  -28.3873  -32.6950   25.0385 H   0  0  0  0  0  0
  -28.0731  -31.8530   26.5473 H   0  0  0  0  0  0
  -28.2555  -38.0109   24.7484 H   0  0  0  0  0  0
  -28.1081  -36.2623   24.6321 H   0  0  0  0  0  0
  -27.2269  -37.1451   25.8864 H   0  0  0  0  0  0
  -20.9250  -29.8803   21.6976 H   0  0  0  0  0  0
  -26.0177  -38.2836   24.1441 H   0  0  0  0  0  0
  -29.4476  -17.3891   20.7850 H   0  0  0  0  0  0
  -28.7366  -19.5891   19.9302 H   0  0  0  0  0  0
  -29.1124  -18.8347   24.8273 H   0  0  0  0  0  0
  -30.8060  -21.7096   20.7004 H   0  0  0  0  0  0
  -30.0315  -22.7807   19.5460 H   0  0  0  0  0  0
  -28.2620  -24.2856   20.2758 H   0  0  0  0  0  0
  -27.8652  -24.4014   21.9760 H   0  0  0  0  0  0
  -32.3304  -23.6024   20.1757 H   0  0  0  0  0  0
  -31.8581  -23.6689   21.8641 H   0  0  0  0  0  0
  -30.0920  -25.3084   22.5287 H   0  0  0  0  0  0
  -28.2213  -20.9258   25.2966 H   0  0  0  0  0  0
  -27.4065  -21.8743   24.0680 H   0  0  0  0  0  0
  -29.1456  -22.0870   24.3539 H   0  0  0  0  0  0
  -29.0768  -15.9970   23.6127 H   0  0  0  0  0  0
  -30.3354  -16.8595   24.4253 H   0  0  0  0  0  0
  -27.2939  -22.2011   21.7849 H   0  0  0  0  0  0
  -28.0002  -21.7940   20.2537 H   0  0  0  0  0  0
  -29.9771  -27.4950   21.1681 H   0  0  0  0  0  0
  -28.5913  -27.0288   22.1333 H   0  0  0  0  0  0
  -31.8182  -15.6284   23.2403 H   0  0  0  0  0  0
  -31.4805  -16.6621   21.8757 H   0  0  0  0  0  0
  -29.7221  -14.3249   22.4207 H   0  0  0  0  0  0
  -30.6805  -25.2236   19.6688 H   0  0  0  0  0  0
  -31.6534  -25.7899   20.8437 H   0  0  0  0  0  0
  1 25  1  0  0  0
  1 30  2  0  0  0
  1 87  1  0  0  0
  2  3  1  0  0  0
  2 25  1  0  0  0
  2 89  1  0  0  0
  2 90  1  0  0  0
  3  4  1  0  0  0
  3 91  1  0  0  0
  3 92  1  0  0  0
  4  5  1  0  0  0
  4 93  1  0  0  0
  4 94  1  0  0  0
  5  6  1  0  0  0
  5 26  1  0  0  0
  5 95  1  0  0  0
  6 25  1  0  0  0
  6 96  1  0  0  0
  6 97  1  0  0  0
  7  8  2  0  0  0
  7 26  1  0  0  0
  7 29  1  0  0  0
  8  9  1  0  0  0
  8 22  1  0  0  0
  9 10  1  0  0  0
  9 27  2  0  0  0
 10 11  2  0  0  0
 10 15  1  0  0  0
 11 12  1  0  0  0
 11 98  1  0  0  0
 12 13  2  0  0  0
 12 99  1  0  0  0
 13 14  1  0  0  0
 13 31  1  0  0  0
 14 15  2  0  0  0
 14100  1  0  0  0
 15101  1  0  0  0
 16 17  2  0  0  0
 16 21  1  0  0  0
 16 31  1  0  0  0
 17 18  1  0  0  0
 17102  1  0  0  0
 18 19  2  0  0  0
 18103  1  0  0  0
 19 20  1  0  0  0
 19 24  1  0  0  0
 20 21  2  0  0  0
 20104  1  0  0  0
 21 23  1  0  0  0
 22 28  1  0  0  0
 22 32  2  0  0  0
 26 27  1  0  0  0
 28105  1  0  0  0
 28106  1  0  0  0
 29107  1  0  0  0
 29108  1  0  0  0
 33 34  1  0  0  0
 33 66  1  0  0  0
 33 70  2  0  0  0
 34 36  1  0  0  0
 34 59  1  0  0  0
 34109  1  0  0  0
 35 44  2  0  0  0
 35 45  1  0  0  0
 35 68  1  0  0  0
 36 56  1  0  0  0
 36110  1  0  0  0
 37 39  1  0  0  0
 37 47  1  0  0  0
 37 66  1  0  0  0
 37111  1  0  0  0
 38 43  2  0  0  0
 38 46  1  0  0  0
 38 47  1  0  0  0
 39 64  1  0  0  0
 39 67  2  0  0  0
 40 52  1  0  0  0
 40 53  2  0  0  0
 40 58  1  0  0  0
 41112  1  0  0  0
 41113  1  0  0  0
 41114  1  0  0  0
 41 48  1  0  0  0
 42 43  1  0  0  0
 42 66  1  0  0  0
 42115  1  0  0  0
 42116  1  0  0  0
 43 44  1  0  0  0
 44117  1  0  0  0
 45 46  2  0  0  0
 45118  1  0  0  0
 46119  1  0  0  0
 47120  1  0  0  0
 47121  1  0  0  0
 48 56  1  0  0  0
 48 65  1  0  0  0
 48122  1  0  0  0
 49 50  1  0  0  0
 49 53  1  0  0  0
 49 64  1  0  0  0
 49123  1  0  0  0
 50 51  1  0  0  0
 50124  1  0  0  0
 50125  1  0  0  0
 51 52  1  0  0  0
 51126  1  0  0  0
 51127  1  0  0  0
 52128  1  0  0  0
 52129  1  0  0  0
 53 54  1  0  0  0
 54 55  2  0  0  0
 54130  1  0  0  0
 55 57  1  0  0  0
 55131  1  0  0  0
 56 69  2  0  0  0
 57 58  2  0  0  0
 57132  1  0  0  0
 58133  1  0  0  0
 59 60  1  0  0  0
 59 61  1  0  0  0
 59 62  1  0  0  0
 60134  1  0  0  0
 60135  1  0  0  0
 60136  1  0  0  0
 61137  1  0  0  0
 61138  1  0  0  0
 61139  1  0  0  0
 62140  1  0  0  0
 62141  1  0  0  0
 62142  1  0  0  0
 63 65  1  0  0  0
 63143  1  0  0  0
 63144  1  0  0  0
 63145  1  0  0  0
 64146  1  0  0  0
 65147  1  0  0  0
 68 84  1  0  0  0
 71 72  2  0  0  0
 71 74  1  0  0  0
 71148  1  0  0  0
 72 75  1  0  0  0
 72149  1  0  0  0
 73 74  2  0  0  0
 73 76  1  0  0  0
 73150  1  0  0  0
 74 82  1  0  0  0
 75 76  2  0  0  0
 75 83  1  0  0  0
 76 81  1  0  0  0
 77 79  1  0  0  0
 77 86  1  0  0  0
 77151  1  0  0  0
 77152  1  0  0  0
 78 80  1  0  0  0
 78 86  1  0  0  0
 78153  1  0  0  0
 78154  1  0  0  0
 79 88  1  0  0  0
 79155  1  0  0  0
 79156  1  0  0  0
 80 84  1  0  0  0
 80 88  1  0  0  0
 80157  1  0  0  0
 81158  1  0  0  0
 81159  1  0  0  0
 81160  1  0  0  0
 82 85  1  0  0  0
 82161  1  0  0  0
 82162  1  0  0  0
 83 86  1  0  0  0
 83163  1  0  0  0
 83164  1  0  0  0
 84165  1  0  0  0
 84166  1  0  0  0
 85 87  1  0  0  0
 85167  1  0  0  0
 85168  1  0  0  0
 87169  1  0  0  0
 88170  1  0  0  0
 88171  1  0  0  0
M  CHG  1  88   1
M  ISO  4   1 100  68 101  84 101  87 100
M  END
> <chiral flag>
0

> <version>
0

> <s_m_source_file>
/data/baiqing/PycharmProjects/Reinvent-master-3.2/result/LINK_invent/BTK/process_docking_weight1_custom_sum_contain_oxygen_bond_distance_aromatic_linkinvent_7_9_3/rearranged_h_0125.sdf

> <i_m_source_file_index>
69

> <r_mmod_Potential_Energy-OPLS-2005>
-177.117446899414

> <r_mmod_Stretch_Energy-OPLS-2005>
34.5307922363281

> <r_mmod_Bend_Energy-OPLS-2005>
91.1494293212891

> <r_mmod_Torsional_Energy-OPLS-2005>
240.284149169922

> <r_mmod_Improper_Torsional_Energy-OPLS-2005>
2.33495783805847

> <r_mmod_Van_der_Waal_Energy-OPLS-2005>
166.295455932617

> <r_mmod_Electrostatic_Energy-OPLS-2005>
-281.397644042969

> <r_mmod_Solvation_Energy-OPLS-2005>
-438.667358398438

> <b_mmod_Minimization_Converged-OPLS-2005>
0

> <r_mmod_RMS_Derivative-OPLS-2005>
5.86883401870728

$$$$
70
                    3D
 Structure written by MMmdl.
156164  0  0  1  0            999 V2000
  -30.4858  -15.0819   20.3858 C   0  0  0  0  0  0
  -30.4375  -12.6689   19.5351 C   0  0  0  0  0  0
  -29.5325  -12.5571   18.2834 C   0  0  0  0  0  0
  -28.0693  -12.3184   18.6949 C   0  0  0  0  0  0
  -27.6250  -13.2627   19.8412 C   0  0  2  0  0  0
  -28.6581  -13.3410   20.9869 C   0  0  0  0  0  0
  -25.2432  -13.8241   20.5732 C   0  0  0  0  0  0
  -24.1762  -13.0446   20.9233 C   0  0  0  0  0  0
  -24.6397  -11.6937   20.8752 C   0  0  0  0  0  0
  -23.9087  -10.4298   21.0405 C   0  0  0  0  0  0
  -24.3633   -9.4211   21.9183 C   0  0  0  0  0  0
  -23.6303   -8.2248   22.0755 C   0  0  0  0  0  0
  -22.4283   -8.0286   21.3546 C   0  0  0  0  0  0
  -21.9922   -9.0261   20.4647 C   0  0  0  0  0  0
  -22.7257  -10.2137   20.3055 C   0  0  0  0  0  0
  -21.6857   -6.0739   22.5281 C   0  0  0  0  0  0
  -21.4017   -6.5643   23.8214 C   0  0  0  0  0  0
  -21.3660   -5.6795   24.9176 C   0  0  0  0  0  0
  -21.6043   -4.3057   24.7226 C   0  0  0  0  0  0
  -21.8818   -3.8149   23.4347 C   0  0  0  0  0  0
  -21.9194   -4.6967   22.3403 C   0  0  0  0  0  0
  -22.7782  -13.5207   21.1887 C   0  0  0  0  0  0
  -22.1663   -4.2153   21.0981 F   0  0  0  0  0  0
  -21.5625   -3.4540   25.7737 F   0  0  0  0  0  0
  -29.9271  -13.7882   20.3966 N   0  0  0  0  0  0
  -26.2861  -12.9497   20.3252 N   0  0  0  0  0  0
  -25.9334  -11.6611   20.5735 N   0  0  0  0  0  0
  -22.0437  -12.8189   22.0441 N   0  0  0  0  0  0
  -25.4099  -15.1975   20.4183 N   0  0  0  0  0  0
  -31.6745  -15.1256   20.0385 O   0  0  0  0  0  0
  -21.6645   -6.8883   21.4243 O   0  0  0  0  0  0
  -22.3463  -14.5511   20.6731 O   0  0  0  0  0  0
  -24.6506  -31.8331   23.1781 C   0  0  0  0  0  0
  -25.9239  -32.4633   23.8207 C   0  0  1  0  0  0
  -27.2233  -27.0432   20.1670 C   0  0  0  0  0  0
  -25.5951  -33.8445   24.2120 N   0  0  0  0  0  0
  -23.4599  -30.4463   21.5239 C   0  0  2  0  0  0
  -24.9126  -28.8518   20.1041 C   0  0  0  0  0  0
  -22.7605  -29.4482   22.4814 C   0  0  0  0  0  0
  -18.0310  -28.1401   22.8472 C   0  0  0  0  0  0
  -24.1494  -36.7231   23.2646 C   0  0  0  0  0  0
  -26.0193  -30.6760   21.3906 C   0  0  0  0  0  0
  -26.0880  -29.2774   20.7337 C   0  0  0  0  0  0
  -27.2359  -28.3880   20.7484 C   0  0  0  0  0  0
  -26.0248  -26.7368   19.4879 C   0  0  0  0  0  0
  -24.8994  -27.5995   19.4641 C   0  0  0  0  0  0
  -23.6917  -29.7646   20.1462 C   0  0  0  0  0  0
  -25.4130  -36.2996   24.0306 C   0  0  1  0  0  0
  -20.5927  -28.3731   23.1218 C   0  0  2  0  0  0
  -20.6789  -26.9423   22.5409 C   0  0  0  0  0  0
  -19.5765  -26.6377   21.5215 C   0  0  0  0  0  0
  -18.1946  -26.7937   22.1623 C   0  0  0  0  0  0
  -19.1569  -28.8886   23.2835 C   0  0  0  0  0  0
  -18.9483  -30.1479   23.8865 C   0  0  0  0  0  0
  -17.6478  -30.6594   24.0558 C   0  0  0  0  0  0
  -25.9085  -34.9374   23.5031 C   0  0  0  0  0  0
  -16.5368  -29.9084   23.6340 C   0  0  0  0  0  0
  -16.7293  -28.6504   23.0358 C   0  0  0  0  0  0
  -26.4535  -31.6545   25.0694 C   0  0  0  0  0  0
  -25.3697  -31.3764   26.1375 C   0  0  0  0  0  0
  -27.0419  -30.2928   24.6350 C   0  0  0  0  0  0
  -27.6043  -32.4338   25.7488 C   0  0  0  0  0  0
  -27.5573  -37.1772   24.8465 C   0  0  0  0  0  0
  -21.4286  -29.3034   22.3571 N   0  0  0  0  0  0
  -26.4284  -37.3720   23.9405 N   0  0  0  0  0  0
  -24.7301  -31.0099   22.0854 N   0  0  0  0  0  0
  -23.4206  -28.8052   23.3015 O   0  0  0  0  0  0
  -28.2704  -26.0332   20.3108 O   0  0  0  0  0  0
  -26.5689  -34.8892   22.4623 O   0  0  0  0  0  0
  -23.5606  -32.1249   23.6949 O   0  0  0  0  0  0
  -29.1489  -18.8785   17.9422 C   0  0  0  0  0  0
  -29.4559  -17.7147   18.6765 C   0  0  0  0  0  0
  -28.9977  -20.1561   18.5379 C   0  0  0  0  0  0
  -29.6009  -17.7276   20.0729 C   0  0  0  0  0  0
  -29.1182  -20.2811   19.9450 C   0  0  0  0  0  0
  -27.3018  -21.4534   17.1775 C   0  0  0  0  0  0
  -29.7170  -21.3918   16.4097 C   0  0  0  0  0  0
  -28.3847  -24.5285   19.7755 C   0  0  0  0  0  0
  -28.1980  -22.9292   20.4438 C   0  0  0  0  0  0
  -28.7689  -21.3626   17.6225 C   0  0  0  0  0  0
  -29.4166  -19.0489   20.6569 N   0  0  0  0  0  0
  -29.7374  -16.2895   20.6848 N   0  0  0  0  0  0
  -29.1261  -21.6331   20.5786 O   0  0  0  0  0  0
  -31.4715  -12.8289   19.2261 H   0  0  0  0  0  0
  -30.4439  -11.7295   20.0903 H   0  0  0  0  0  0
  -29.8764  -11.7501   17.6348 H   0  0  0  0  0  0
  -29.6040  -13.4744   17.6971 H   0  0  0  0  0  0
  -27.9853  -11.2810   19.0206 H   0  0  0  0  0  0
  -27.4081  -12.4230   17.8340 H   0  0  0  0  0  0
  -27.5732  -14.2549   19.3915 H   0  0  0  0  0  0
  -28.7682  -12.3775   21.4870 H   0  0  0  0  0  0
  -28.3279  -14.0473   21.7499 H   0  0  0  0  0  0
  -25.2776   -9.5687   22.4763 H   0  0  0  0  0  0
  -24.0011   -7.4639   22.7474 H   0  0  0  0  0  0
  -21.0852   -8.8782   19.8954 H   0  0  0  0  0  0
  -22.3715  -10.9676   19.6166 H   0  0  0  0  0  0
  -21.2013   -7.6151   23.9718 H   0  0  0  0  0  0
  -21.1481   -6.0526   25.9079 H   0  0  0  0  0  0
  -22.0596   -2.7611   23.2847 H   0  0  0  0  0  0
  -22.4068  -11.9860   22.4834 H   0  0  0  0  0  0
  -21.1051  -13.1203   22.2646 H   0  0  0  0  0  0
  -24.6394  -15.8478   20.5287 H   0  0  0  0  0  0
  -26.2523  -15.6388   20.0732 H   0  0  0  0  0  0
  -26.7302  -32.5205   23.0923 H   0  0  0  0  0  0
  -25.0055  -33.9539   25.0240 H   0  0  0  0  0  0
  -22.7671  -31.2744   21.3604 H   0  0  0  0  0  0
  -23.3759  -35.9558   23.3288 H   0  0  0  0  0  0
  -24.3574  -36.8893   22.2065 H   0  0  0  0  0  0
  -23.7247  -37.6416   23.6708 H   0  0  0  0  0  0
  -26.1864  -31.4240   20.6144 H   0  0  0  0  0  0
  -26.8850  -30.7291   22.0393 H   0  0  0  0  0  0
  -28.1255  -28.7048   21.2746 H   0  0  0  0  0  0
  -25.9220  -25.7725   19.0126 H   0  0  0  0  0  0
  -24.0017  -27.2686   18.9600 H   0  0  0  0  0  0
  -23.8333  -30.5346   19.3871 H   0  0  0  0  0  0
  -22.8046  -29.2096   19.8360 H   0  0  0  0  0  0
  -25.1325  -36.1807   25.0798 H   0  0  0  0  0  0
  -21.0019  -28.3333   24.1340 H   0  0  0  0  0  0
  -20.5676  -26.2345   23.3636 H   0  0  0  0  0  0
  -21.6654  -26.7413   22.1212 H   0  0  0  0  0  0
  -19.6925  -25.6280   21.1265 H   0  0  0  0  0  0
  -19.6708  -27.3170   20.6732 H   0  0  0  0  0  0
  -17.4216  -26.6680   21.4025 H   0  0  0  0  0  0
  -18.0342  -26.0088   22.9028 H   0  0  0  0  0  0
  -19.7957  -30.7306   24.2219 H   0  0  0  0  0  0
  -17.5028  -31.6271   24.5165 H   0  0  0  0  0  0
  -15.5367  -30.2974   23.7683 H   0  0  0  0  0  0
  -15.8694  -28.0812   22.7090 H   0  0  0  0  0  0
  -24.5884  -30.7104   25.7694 H   0  0  0  0  0  0
  -24.8879  -32.2954   26.4719 H   0  0  0  0  0  0
  -25.7960  -30.8989   27.0207 H   0  0  0  0  0  0
  -26.3058  -29.6623   24.1349 H   0  0  0  0  0  0
  -27.3985  -29.7265   25.4964 H   0  0  0  0  0  0
  -27.8983  -30.4137   23.9714 H   0  0  0  0  0  0
  -27.2616  -33.3667   26.1978 H   0  0  0  0  0  0
  -28.3898  -32.6856   25.0351 H   0  0  0  0  0  0
  -28.0661  -31.8526   26.5479 H   0  0  0  0  0  0
  -28.2577  -38.0080   24.7507 H   0  0  0  0  0  0
  -28.1082  -36.2606   24.6298 H   0  0  0  0  0  0
  -27.2288  -37.1422   25.8867 H   0  0  0  0  0  0
  -20.9516  -29.8725   21.6717 H   0  0  0  0  0  0
  -26.0141  -38.2783   24.1409 H   0  0  0  0  0  0
  -29.0387  -18.7719   16.8737 H   0  0  0  0  0  0
  -29.5410  -16.7824   18.1350 H   0  0  0  0  0  0
  -26.6260  -21.5051   18.0311 H   0  0  0  0  0  0
  -27.0107  -20.5882   16.5808 H   0  0  0  0  0  0
  -27.1298  -22.3439   16.5718 H   0  0  0  0  0  0
  -30.7602  -21.3370   16.7226 H   0  0  0  0  0  0
  -29.5976  -22.3205   15.8506 H   0  0  0  0  0  0
  -29.5321  -20.5776   15.7095 H   0  0  0  0  0  0
  -27.8222  -24.5167   18.8423 H   0  0  0  0  0  0
  -29.4161  -24.5157   19.4234 H   0  0  0  0  0  0
  -27.2542  -22.5525   20.0511 H   0  0  0  0  0  0
  -27.9555  -23.1274   21.4874 H   0  0  0  0  0  0
  -29.0145  -22.2659   18.1705 H   0  0  0  0  0  0
  -28.9543  -16.0747   21.2817 H   0  0  0  0  0  0
  1 25  1  0  0  0
  1 30  2  0  0  0
  1 82  1  0  0  0
  2  3  1  0  0  0
  2 25  1  0  0  0
  2 84  1  0  0  0
  2 85  1  0  0  0
  3  4  1  0  0  0
  3 86  1  0  0  0
  3 87  1  0  0  0
  4  5  1  0  0  0
  4 88  1  0  0  0
  4 89  1  0  0  0
  5  6  1  0  0  0
  5 26  1  0  0  0
  5 90  1  0  0  0
  6 25  1  0  0  0
  6 91  1  0  0  0
  6 92  1  0  0  0
  7  8  2  0  0  0
  7 26  1  0  0  0
  7 29  1  0  0  0
  8  9  1  0  0  0
  8 22  1  0  0  0
  9 10  1  0  0  0
  9 27  2  0  0  0
 10 11  2  0  0  0
 10 15  1  0  0  0
 11 12  1  0  0  0
 11 93  1  0  0  0
 12 13  2  0  0  0
 12 94  1  0  0  0
 13 14  1  0  0  0
 13 31  1  0  0  0
 14 15  2  0  0  0
 14 95  1  0  0  0
 15 96  1  0  0  0
 16 17  2  0  0  0
 16 21  1  0  0  0
 16 31  1  0  0  0
 17 18  1  0  0  0
 17 97  1  0  0  0
 18 19  2  0  0  0
 18 98  1  0  0  0
 19 20  1  0  0  0
 19 24  1  0  0  0
 20 21  2  0  0  0
 20 99  1  0  0  0
 21 23  1  0  0  0
 22 28  1  0  0  0
 22 32  2  0  0  0
 26 27  1  0  0  0
 28100  1  0  0  0
 28101  1  0  0  0
 29102  1  0  0  0
 29103  1  0  0  0
 33 34  1  0  0  0
 33 66  1  0  0  0
 33 70  2  0  0  0
 34 36  1  0  0  0
 34 59  1  0  0  0
 34104  1  0  0  0
 35 44  2  0  0  0
 35 45  1  0  0  0
 35 68  1  0  0  0
 36 56  1  0  0  0
 36105  1  0  0  0
 37 39  1  0  0  0
 37 47  1  0  0  0
 37 66  1  0  0  0
 37106  1  0  0  0
 38 43  2  0  0  0
 38 46  1  0  0  0
 38 47  1  0  0  0
 39 64  1  0  0  0
 39 67  2  0  0  0
 40 52  1  0  0  0
 40 53  2  0  0  0
 40 58  1  0  0  0
 41107  1  0  0  0
 41108  1  0  0  0
 41109  1  0  0  0
 41 48  1  0  0  0
 42 43  1  0  0  0
 42 66  1  0  0  0
 42110  1  0  0  0
 42111  1  0  0  0
 43 44  1  0  0  0
 44112  1  0  0  0
 45 46  2  0  0  0
 45113  1  0  0  0
 46114  1  0  0  0
 47115  1  0  0  0
 47116  1  0  0  0
 48 56  1  0  0  0
 48 65  1  0  0  0
 48117  1  0  0  0
 49 50  1  0  0  0
 49 53  1  0  0  0
 49 64  1  0  0  0
 49118  1  0  0  0
 50 51  1  0  0  0
 50119  1  0  0  0
 50120  1  0  0  0
 51 52  1  0  0  0
 51121  1  0  0  0
 51122  1  0  0  0
 52123  1  0  0  0
 52124  1  0  0  0
 53 54  1  0  0  0
 54 55  2  0  0  0
 54125  1  0  0  0
 55 57  1  0  0  0
 55126  1  0  0  0
 56 69  2  0  0  0
 57 58  2  0  0  0
 57127  1  0  0  0
 58128  1  0  0  0
 59 60  1  0  0  0
 59 61  1  0  0  0
 59 62  1  0  0  0
 60129  1  0  0  0
 60130  1  0  0  0
 60131  1  0  0  0
 61132  1  0  0  0
 61133  1  0  0  0
 61134  1  0  0  0
 62135  1  0  0  0
 62136  1  0  0  0
 62137  1  0  0  0
 63 65  1  0  0  0
 63138  1  0  0  0
 63139  1  0  0  0
 63140  1  0  0  0
 64141  1  0  0  0
 65142  1  0  0  0
 68 78  1  0  0  0
 71 72  2  0  0  0
 71 73  1  0  0  0
 71143  1  0  0  0
 72 74  1  0  0  0
 72144  1  0  0  0
 73 75  2  0  0  0
 73 80  1  0  0  0
 74 81  2  0  0  0
 74 82  1  0  0  0
 75 81  1  0  0  0
 75 83  1  0  0  0
 76145  1  0  0  0
 76146  1  0  0  0
 76147  1  0  0  0
 76 80  1  0  0  0
 77 80  1  0  0  0
 77148  1  0  0  0
 77149  1  0  0  0
 77150  1  0  0  0
 78 79  1  0  0  0
 78151  1  0  0  0
 78152  1  0  0  0
 79 83  1  0  0  0
 79153  1  0  0  0
 79154  1  0  0  0
 80155  1  0  0  0
 82156  1  0  0  0
M  ISO  4   1 100  68 101  78 101  82 100
M  END
> <chiral flag>
0

> <version>
0

> <s_m_source_file>
/data/baiqing/PycharmProjects/Reinvent-master-3.2/result/LINK_invent/BTK/process_docking_weight1_custom_sum_contain_oxygen_bond_distance_aromatic_linkinvent_7_9_3/rearranged_h_0125.sdf

> <i_m_source_file_index>
70

> <r_mmod_Potential_Energy-OPLS-2005>
718.939331054688

> <r_mmod_Stretch_Energy-OPLS-2005>
386.019287109375

> <r_mmod_Bend_Energy-OPLS-2005>
399.204345703125

> <r_mmod_Torsional_Energy-OPLS-2005>
257.239898681641

> <r_mmod_Improper_Torsional_Energy-OPLS-2005>
4.98481798171997

> <r_mmod_Van_der_Waal_Energy-OPLS-2005>
127.453659057617

> <r_mmod_Electrostatic_Energy-OPLS-2005>
-516.471435546875

> <r_mmod_Solvation_Energy-OPLS-2005>
-230.513732910156

> <b_mmod_Minimization_Converged-OPLS-2005>
0

> <r_mmod_RMS_Derivative-OPLS-2005>
0.37568598985672

$$$$
71
                    3D
 Structure written by MMmdl.
171181  0  0  1  0            999 V2000
  -30.6166  -14.8666   20.4373 C   0  0  0  0  0  0
  -30.4218  -12.5381   19.4906 C   0  0  0  0  0  0
  -29.5098  -12.5173   18.2459 C   0  0  0  0  0  0
  -28.0416  -12.3225   18.6647 C   0  0  0  0  0  0
  -27.6290  -13.2509   19.8389 C   0  0  2  0  0  0
  -28.6736  -13.2709   20.9744 C   0  0  0  0  0  0
  -25.2468  -13.8235   20.5735 C   0  0  0  0  0  0
  -24.1777  -13.0452   20.9221 C   0  0  0  0  0  0
  -24.6395  -11.6936   20.8753 C   0  0  0  0  0  0
  -23.9083  -10.4300   21.0404 C   0  0  0  0  0  0
  -24.3629   -9.4212   21.9182 C   0  0  0  0  0  0
  -23.6303   -8.2248   22.0752 C   0  0  0  0  0  0
  -22.4285   -8.0284   21.3543 C   0  0  0  0  0  0
  -21.9922   -9.0259   20.4645 C   0  0  0  0  0  0
  -22.7254  -10.2138   20.3054 C   0  0  0  0  0  0
  -21.6854   -6.0742   22.5281 C   0  0  0  0  0  0
  -21.4016   -6.5644   23.8215 C   0  0  0  0  0  0
  -21.3659   -5.6795   24.9175 C   0  0  0  0  0  0
  -21.6044   -4.3058   24.7224 C   0  0  0  0  0  0
  -21.8819   -3.8151   23.4344 C   0  0  0  0  0  0
  -21.9193   -4.6969   22.3402 C   0  0  0  0  0  0
  -22.7798  -13.5221   21.1875 C   0  0  0  0  0  0
  -22.1660   -4.2155   21.0978 F   0  0  0  0  0  0
  -21.5627   -3.4540   25.7735 F   0  0  0  0  0  0
  -29.9531  -13.6484   20.3664 N   0  0  0  0  0  0
  -26.2891  -12.9473   20.3275 N   0  0  0  0  0  0
  -25.9331  -11.6596   20.5753 N   0  0  0  0  0  0
  -22.0451  -12.8204   22.0430 N   0  0  0  0  0  0
  -25.4167  -15.1963   20.4197 N   0  0  0  0  0  0
  -31.8229  -14.8543   20.1668 O   0  0  0  0  0  0
  -21.6643   -6.8886   21.4243 O   0  0  0  0  0  0
  -22.3477  -14.5521   20.6716 O   0  0  0  0  0  0
  -24.6402  -31.8479   23.1933 C   0  0  0  0  0  0
  -25.9194  -32.4713   23.8303 C   0  0  1  0  0  0
  -27.2069  -27.1696   20.1407 C   0  0  0  0  0  0
  -25.5958  -33.8519   24.2219 N   0  0  0  0  0  0
  -23.4413  -30.4709   21.5384 C   0  0  2  0  0  0
  -24.8888  -28.9105   20.1065 C   0  0  0  0  0  0
  -22.7551  -29.4568   22.4876 C   0  0  0  0  0  0
  -18.0303  -28.1394   22.8481 C   0  0  0  0  0  0
  -24.1491  -36.7262   23.2641 C   0  0  0  0  0  0
  -25.9961  -30.7311   21.3896 C   0  0  0  0  0  0
  -26.0655  -29.3475   20.7284 C   0  0  0  0  0  0
  -27.2261  -28.4909   20.7347 C   0  0  0  0  0  0
  -26.0097  -26.8394   19.4638 C   0  0  0  0  0  0
  -24.8723  -27.6688   19.4594 C   0  0  0  0  0  0
  -23.6647  -29.8079   20.1547 C   0  0  0  0  0  0
  -25.4122  -36.3043   24.0320 C   0  0  1  0  0  0
  -20.5913  -28.3716   23.1243 C   0  0  2  0  0  0
  -20.6788  -26.9424   22.5404 C   0  0  0  0  0  0
  -19.5761  -26.6382   21.5213 C   0  0  0  0  0  0
  -18.1942  -26.7933   22.1624 C   0  0  0  0  0  0
  -19.1557  -28.8873   23.2855 C   0  0  0  0  0  0
  -18.9474  -30.1470   23.8877 C   0  0  0  0  0  0
  -17.6472  -30.6592   24.0559 C   0  0  0  0  0  0
  -25.9070  -34.9416   23.5074 C   0  0  0  0  0  0
  -16.5362  -29.9084   23.6337 C   0  0  0  0  0  0
  -16.7286  -28.6502   23.0357 C   0  0  0  0  0  0
  -26.4527  -31.6564   25.0727 C   0  0  0  0  0  0
  -25.3718  -31.3741   26.1424 C   0  0  0  0  0  0
  -27.0389  -30.2963   24.6287 C   0  0  0  0  0  0
  -27.6063  -32.4323   25.7509 C   0  0  0  0  0  0
  -27.5577  -37.1789   24.8466 C   0  0  0  0  0  0
  -21.4247  -29.3049   22.3620 N   0  0  0  0  0  0
  -26.4288  -37.3752   23.9407 N   0  0  0  0  0  0
  -24.7121  -31.0366   22.0956 N   0  0  0  0  0  0
  -23.4211  -28.8109   23.3008 O   0  0  0  0  0  0
  -28.2429  -26.1783   20.2352 O   0  0  0  0  0  0
  -26.5648  -34.8905   22.4648 O   0  0  0  0  0  0
  -23.5529  -32.1348   23.7170 O   0  0  0  0  0  0
  -28.5714  -21.9505   20.0496 C   0  0  0  0  0  0
  -28.7218  -23.3630   20.4650 C   0  0  0  0  0  0
  -29.4252  -21.0327   20.6955 C   0  0  0  0  0  0
  -29.6921  -23.2507   21.4287 C   0  0  0  0  0  0
  -30.0641  -24.4053   23.7689 C   0  0  0  0  0  0
  -29.3719  -25.4184   22.8969 C   0  0  0  0  0  0
  -28.9828  -18.3853   21.5566 C   0  0  0  0  0  0
  -29.6869  -18.6054   19.3062 C   0  0  0  0  0  0
  -29.5885  -16.8897   21.6529 C   0  0  0  0  0  0
  -30.3431  -17.1370   19.3643 C   0  0  0  0  0  0
  -29.7323  -19.4201   20.6354 C   0  0  0  0  0  0
  -30.2590  -24.3651   22.2669 C   0  0  0  0  0  0
  -32.5875  -21.3155   21.6396 C   0  0  0  0  0  0
  -30.9715  -20.4478   23.4599 C   0  0  0  0  0  0
  -27.8915  -24.6958   19.9909 C   0  0  0  0  0  0
  -31.2845  -21.5418   22.4257 C   0  0  0  0  0  0
  -30.1505  -21.9070   21.5462 N   0  0  0  0  0  0
  -29.9297  -16.1169   20.4055 N   0  0  0  0  0  0
  -31.4619  -12.6549   19.1826 H   0  0  0  0  0  0
  -30.3767  -11.5850   20.0197 H   0  0  0  0  0  0
  -29.8147  -11.7222   17.5641 H   0  0  0  0  0  0
  -29.6154  -13.4532   17.6949 H   0  0  0  0  0  0
  -27.9239  -11.2797   18.9611 H   0  0  0  0  0  0
  -27.3792  -12.4718   17.8111 H   0  0  0  0  0  0
  -27.5971  -14.2572   19.4196 H   0  0  0  0  0  0
  -28.7435  -12.2998   21.4667 H   0  0  0  0  0  0
  -28.3887  -13.9910   21.7423 H   0  0  0  0  0  0
  -25.2769   -9.5691   22.4765 H   0  0  0  0  0  0
  -24.0011   -7.4640   22.7472 H   0  0  0  0  0  0
  -21.0854   -8.8779   19.8951 H   0  0  0  0  0  0
  -22.3710  -10.9677   19.6166 H   0  0  0  0  0  0
  -21.2008   -7.6152   23.9721 H   0  0  0  0  0  0
  -21.1481   -6.0523   25.9078 H   0  0  0  0  0  0
  -22.0598   -2.7613   23.2842 H   0  0  0  0  0  0
  -22.4073  -11.9869   22.4818 H   0  0  0  0  0  0
  -21.1063  -13.1216   22.2627 H   0  0  0  0  0  0
  -24.6556  -15.8547   20.5436 H   0  0  0  0  0  0
  -26.2806  -15.6382   20.1310 H   0  0  0  0  0  0
  -26.7259  -32.5330   23.1033 H   0  0  0  0  0  0
  -25.0089  -33.9644   25.0356 H   0  0  0  0  0  0
  -22.7423  -31.2965   21.3894 H   0  0  0  0  0  0
  -23.3758  -35.9589   23.3293 H   0  0  0  0  0  0
  -24.3578  -36.8901   22.2058 H   0  0  0  0  0  0
  -23.7242  -37.6455   23.6681 H   0  0  0  0  0  0
  -26.1496  -31.4882   20.6196 H   0  0  0  0  0  0
  -26.8681  -30.7775   22.0302 H   0  0  0  0  0  0
  -28.1183  -28.8136   21.2532 H   0  0  0  0  0  0
  -25.9061  -25.8982   18.9462 H   0  0  0  0  0  0
  -23.9767  -27.3331   18.9547 H   0  0  0  0  0  0
  -23.7973  -30.5857   19.4019 H   0  0  0  0  0  0
  -22.7805  -29.2484   19.8443 H   0  0  0  0  0  0
  -25.1308  -36.1876   25.0812 H   0  0  0  0  0  0
  -21.0006  -28.3301   24.1363 H   0  0  0  0  0  0
  -20.5685  -26.2329   23.3619 H   0  0  0  0  0  0
  -21.6652  -26.7435   22.1195 H   0  0  0  0  0  0
  -19.6920  -25.6288   21.1254 H   0  0  0  0  0  0
  -19.6697  -27.3183   20.6736 H   0  0  0  0  0  0
  -17.4211  -26.6680   21.4029 H   0  0  0  0  0  0
  -18.0341  -26.0078   22.9025 H   0  0  0  0  0  0
  -19.7949  -30.7293   24.2238 H   0  0  0  0  0  0
  -17.5024  -31.6270   24.5163 H   0  0  0  0  0  0
  -15.5362  -30.2979   23.7672 H   0  0  0  0  0  0
  -15.8686  -28.0815   22.7084 H   0  0  0  0  0  0
  -24.5909  -30.7078   25.7745 H   0  0  0  0  0  0
  -24.8896  -32.2917   26.4804 H   0  0  0  0  0  0
  -25.8008  -30.8947   27.0232 H   0  0  0  0  0  0
  -26.3003  -29.6689   24.1285 H   0  0  0  0  0  0
  -27.4003  -29.7254   25.4852 H   0  0  0  0  0  0
  -27.8912  -30.4207   23.9602 H   0  0  0  0  0  0
  -27.2663  -33.3642   26.2037 H   0  0  0  0  0  0
  -28.3900  -32.6850   25.0354 H   0  0  0  0  0  0
  -28.0700  -31.8477   26.5465 H   0  0  0  0  0  0
  -28.2586  -38.0093   24.7510 H   0  0  0  0  0  0
  -28.1081  -36.2622   24.6294 H   0  0  0  0  0  0
  -27.2291  -37.1435   25.8867 H   0  0  0  0  0  0
  -20.9452  -29.8772   21.6812 H   0  0  0  0  0  0
  -26.0157  -38.2820   24.1409 H   0  0  0  0  0  0
  -27.8607  -21.6262   19.3015 H   0  0  0  0  0  0
  -29.4515  -23.6267   24.2194 H   0  0  0  0  0  0
  -30.9012  -24.7486   24.3736 H   0  0  0  0  0  0
  -29.7445  -26.4408   22.9130 H   0  0  0  0  0  0
  -28.2933  -25.3185   22.7940 H   0  0  0  0  0  0
  -28.9230  -18.7863   22.5672 H   0  0  0  0  0  0
  -27.9430  -18.3221   21.2325 H   0  0  0  0  0  0
  -28.6568  -18.5347   18.9538 H   0  0  0  0  0  0
  -30.2134  -19.1760   18.5404 H   0  0  0  0  0  0
  -28.9005  -16.2812   22.2409 H   0  0  0  0  0  0
  -30.5026  -16.9424   22.2468 H   0  0  0  0  0  0
  -31.4200  -17.2831   19.4634 H   0  0  0  0  0  0
  -30.2089  -16.6714   18.3866 H   0  0  0  0  0  0
  -30.7734  -19.3229   20.9163 H   0  0  0  0  0  0
  -31.2201  -24.6967   21.8778 H   0  0  0  0  0  0
  -33.4240  -21.1564   22.3203 H   0  0  0  0  0  0
  -32.8255  -22.1912   21.0353 H   0  0  0  0  0  0
  -32.5515  -20.4614   20.9680 H   0  0  0  0  0  0
  -31.6666  -20.5115   24.2975 H   0  0  0  0  0  0
  -31.0732  -19.4411   23.0635 H   0  0  0  0  0  0
  -29.9675  -20.5661   23.8685 H   0  0  0  0  0  0
  -26.9064  -24.5313   20.4288 H   0  0  0  0  0  0
  -27.7608  -24.5832   18.9143 H   0  0  0  0  0  0
  -31.5131  -22.3987   23.0509 H   0  0  0  0  0  0
  1 25  1  0  0  0
  1 30  2  0  0  0
  1 88  1  0  0  0
  2  3  1  0  0  0
  2 25  1  0  0  0
  2 89  1  0  0  0
  2 90  1  0  0  0
  3  4  1  0  0  0
  3 91  1  0  0  0
  3 92  1  0  0  0
  4  5  1  0  0  0
  4 93  1  0  0  0
  4 94  1  0  0  0
  5  6  1  0  0  0
  5 26  1  0  0  0
  5 95  1  0  0  0
  6 25  1  0  0  0
  6 96  1  0  0  0
  6 97  1  0  0  0
  7  8  2  0  0  0
  7 26  1  0  0  0
  7 29  1  0  0  0
  8  9  1  0  0  0
  8 22  1  0  0  0
  9 10  1  0  0  0
  9 27  2  0  0  0
 10 11  2  0  0  0
 10 15  1  0  0  0
 11 12  1  0  0  0
 11 98  1  0  0  0
 12 13  2  0  0  0
 12 99  1  0  0  0
 13 14  1  0  0  0
 13 31  1  0  0  0
 14 15  2  0  0  0
 14100  1  0  0  0
 15101  1  0  0  0
 16 17  2  0  0  0
 16 21  1  0  0  0
 16 31  1  0  0  0
 17 18  1  0  0  0
 17102  1  0  0  0
 18 19  2  0  0  0
 18103  1  0  0  0
 19 20  1  0  0  0
 19 24  1  0  0  0
 20 21  2  0  0  0
 20104  1  0  0  0
 21 23  1  0  0  0
 22 28  1  0  0  0
 22 32  2  0  0  0
 26 27  1  0  0  0
 28105  1  0  0  0
 28106  1  0  0  0
 29107  1  0  0  0
 29108  1  0  0  0
 33 34  1  0  0  0
 33 66  1  0  0  0
 33 70  2  0  0  0
 34 36  1  0  0  0
 34 59  1  0  0  0
 34109  1  0  0  0
 35 44  2  0  0  0
 35 45  1  0  0  0
 35 68  1  0  0  0
 36 56  1  0  0  0
 36110  1  0  0  0
 37 39  1  0  0  0
 37 47  1  0  0  0
 37 66  1  0  0  0
 37111  1  0  0  0
 38 43  2  0  0  0
 38 46  1  0  0  0
 38 47  1  0  0  0
 39 64  1  0  0  0
 39 67  2  0  0  0
 40 52  1  0  0  0
 40 53  2  0  0  0
 40 58  1  0  0  0
 41112  1  0  0  0
 41113  1  0  0  0
 41114  1  0  0  0
 41 48  1  0  0  0
 42 43  1  0  0  0
 42 66  1  0  0  0
 42115  1  0  0  0
 42116  1  0  0  0
 43 44  1  0  0  0
 44117  1  0  0  0
 45 46  2  0  0  0
 45118  1  0  0  0
 46119  1  0  0  0
 47120  1  0  0  0
 47121  1  0  0  0
 48 56  1  0  0  0
 48 65  1  0  0  0
 48122  1  0  0  0
 49 50  1  0  0  0
 49 53  1  0  0  0
 49 64  1  0  0  0
 49123  1  0  0  0
 50 51  1  0  0  0
 50124  1  0  0  0
 50125  1  0  0  0
 51 52  1  0  0  0
 51126  1  0  0  0
 51127  1  0  0  0
 52128  1  0  0  0
 52129  1  0  0  0
 53 54  1  0  0  0
 54 55  2  0  0  0
 54130  1  0  0  0
 55 57  1  0  0  0
 55131  1  0  0  0
 56 69  2  0  0  0
 57 58  2  0  0  0
 57132  1  0  0  0
 58133  1  0  0  0
 59 60  1  0  0  0
 59 61  1  0  0  0
 59 62  1  0  0  0
 60134  1  0  0  0
 60135  1  0  0  0
 60136  1  0  0  0
 61137  1  0  0  0
 61138  1  0  0  0
 61139  1  0  0  0
 62140  1  0  0  0
 62141  1  0  0  0
 62142  1  0  0  0
 63 65  1  0  0  0
 63143  1  0  0  0
 63144  1  0  0  0
 63145  1  0  0  0
 64146  1  0  0  0
 65147  1  0  0  0
 68 85  1  0  0  0
 71 72  1  0  0  0
 71 73  2  0  0  0
 71148  1  0  0  0
 72 74  2  0  0  0
 72 85  1  0  0  0
 73 87  1  0  0  0
 73 81  1  0  0  0
 74 87  1  0  0  0
 74 82  1  0  0  0
 75 76  1  0  0  0
 75 82  1  0  0  0
 75149  1  0  0  0
 75150  1  0  0  0
 76 82  1  0  0  0
 76151  1  0  0  0
 76152  1  0  0  0
 77 79  1  0  0  0
 77 81  1  0  0  0
 77153  1  0  0  0
 77154  1  0  0  0
 78 80  1  0  0  0
 78 81  1  0  0  0
 78155  1  0  0  0
 78156  1  0  0  0
 79 88  1  0  0  0
 79157  1  0  0  0
 79158  1  0  0  0
 80 88  1  0  0  0
 80159  1  0  0  0
 80160  1  0  0  0
 81161  1  0  0  0
 82162  1  0  0  0
 83163  1  0  0  0
 83164  1  0  0  0
 83165  1  0  0  0
 83 86  1  0  0  0
 84 86  1  0  0  0
 84166  1  0  0  0
 84167  1  0  0  0
 84168  1  0  0  0
 85169  1  0  0  0
 85170  1  0  0  0
 86 87  1  0  0  0
 86171  1  0  0  0
M  ISO  4   1 100  68 101  85 101  88 100
M  END
> <chiral flag>
0

> <version>
0

> <s_m_source_file>
/data/baiqing/PycharmProjects/Reinvent-master-3.2/result/LINK_invent/BTK/process_docking_weight1_custom_sum_contain_oxygen_bond_distance_aromatic_linkinvent_7_9_3/rearranged_h_0125.sdf

> <i_m_source_file_index>
71

> <r_mmod_Potential_Energy-OPLS-2005>
638.448059082031

> <r_mmod_Stretch_Energy-OPLS-2005>
198.032867431641

> <r_mmod_Bend_Energy-OPLS-2005>
256.566650390625

> <r_mmod_Torsional_Energy-OPLS-2005>
388.139190673828

> <r_mmod_Improper_Torsional_Energy-OPLS-2005>
15.345025062561

> <r_mmod_Van_der_Waal_Energy-OPLS-2005>
122.230415344238

> <r_mmod_Electrostatic_Energy-OPLS-2005>
-306.947998046875

> <r_mmod_Solvation_Energy-OPLS-2005>
-190.677001953125

> <b_mmod_Minimization_Converged-OPLS-2005>
0

> <r_mmod_RMS_Derivative-OPLS-2005>
0.454469293355942

$$$$
72
                    3D
 Structure written by MMmdl.
159168  0  0  1  0            999 V2000
  -30.3907  -15.3649   20.3491 C   0  0  0  0  0  0
  -30.4376  -12.8721   19.5523 C   0  0  0  0  0  0
  -29.5477  -12.6100   18.3086 C   0  0  0  0  0  0
  -28.0997  -12.3118   18.7286 C   0  0  0  0  0  0
  -27.6119  -13.2869   19.8287 C   0  0  2  0  0  0
  -28.6372  -13.4907   20.9681 C   0  0  0  0  0  0
  -25.2391  -13.8274   20.5753 C   0  0  0  0  0  0
  -24.1752  -13.0447   20.9254 C   0  0  0  0  0  0
  -24.6413  -11.6943   20.8738 C   0  0  0  0  0  0
  -23.9106  -10.4297   21.0391 C   0  0  0  0  0  0
  -24.3647   -9.4216   21.9174 C   0  0  0  0  0  0
  -23.6310   -8.2257   22.0746 C   0  0  0  0  0  0
  -22.4290   -8.0286   21.3546 C   0  0  0  0  0  0
  -21.9939   -9.0257   20.4642 C   0  0  0  0  0  0
  -22.7274  -10.2133   20.3049 C   0  0  0  0  0  0
  -21.6863   -6.0738   22.5283 C   0  0  0  0  0  0
  -21.4013   -6.5633   23.8216 C   0  0  0  0  0  0
  -21.3669   -5.6788   24.9178 C   0  0  0  0  0  0
  -21.6060   -4.3052   24.7231 C   0  0  0  0  0  0
  -21.8818   -3.8142   23.4347 C   0  0  0  0  0  0
  -21.9202   -4.6966   22.3405 C   0  0  0  0  0  0
  -22.7766  -13.5195   21.1902 C   0  0  0  0  0  0
  -22.1661   -4.2154   21.0977 F   0  0  0  0  0  0
  -21.5639   -3.4530   25.7740 F   0  0  0  0  0  0
  -29.8649  -14.0272   20.3542 N   0  0  0  0  0  0
  -26.2820  -12.9565   20.3218 N   0  0  0  0  0  0
  -25.9358  -11.6650   20.5693 N   0  0  0  0  0  0
  -22.0420  -12.8172   22.0444 N   0  0  0  0  0  0
  -25.4012  -15.2016   20.4190 N   0  0  0  0  0  0
  -31.5923  -15.3719   20.0366 O   0  0  0  0  0  0
  -21.6657   -6.8879   21.4238 O   0  0  0  0  0  0
  -22.3444  -14.5493   20.6743 O   0  0  0  0  0  0
  -24.6697  -31.8169   23.1620 C   0  0  0  0  0  0
  -25.9343  -32.4557   23.8125 C   0  0  1  0  0  0
  -27.2258  -26.8547   20.1986 C   0  0  0  0  0  0
  -25.5988  -33.8373   24.2034 N   0  0  0  0  0  0
  -23.4884  -30.4223   21.5142 C   0  0  2  0  0  0
  -24.9455  -28.7954   20.1120 C   0  0  0  0  0  0
  -22.7706  -29.4394   22.4766 C   0  0  0  0  0  0
  -18.0324  -28.1416   22.8463 C   0  0  0  0  0  0
  -24.1493  -36.7187   23.2639 C   0  0  0  0  0  0
  -26.0613  -30.5986   21.4033 C   0  0  0  0  0  0
  -26.1297  -29.1801   20.7523 C   0  0  0  0  0  0
  -27.2601  -28.2337   20.7673 C   0  0  0  0  0  0
  -26.0134  -26.6427   19.5010 C   0  0  0  0  0  0
  -24.9176  -27.5494   19.4644 C   0  0  0  0  0  0
  -23.7318  -29.7292   20.1437 C   0  0  0  0  0  0
  -25.4140  -36.2957   24.0293 C   0  0  1  0  0  0
  -20.5953  -28.3764   23.1185 C   0  0  2  0  0  0
  -20.6795  -26.9434   22.5415 C   0  0  0  0  0  0
  -19.5781  -26.6375   21.5219 C   0  0  0  0  0  0
  -18.1957  -26.7949   22.1613 C   0  0  0  0  0  0
  -19.1586  -28.8911   23.2810 C   0  0  0  0  0  0
  -18.9495  -30.1494   23.8852 C   0  0  0  0  0  0
  -17.6489  -30.6601   24.0550 C   0  0  0  0  0  0
  -25.9116  -34.9338   23.4990 C   0  0  0  0  0  0
  -16.5379  -29.9084   23.6342 C   0  0  0  0  0  0
  -16.7306  -28.6504   23.0367 C   0  0  0  0  0  0
  -26.4582  -31.6515   25.0671 C   0  0  0  0  0  0
  -25.3680  -31.3800   26.1307 C   0  0  0  0  0  0
  -27.0460  -30.2859   24.6444 C   0  0  0  0  0  0
  -27.6076  -32.4320   25.7475 C   0  0  0  0  0  0
  -27.5580  -37.1754   24.8462 C   0  0  0  0  0  0
  -21.4366  -29.3034   22.3521 N   0  0  0  0  0  0
  -26.4287  -37.3693   23.9411 N   0  0  0  0  0  0
  -24.7615  -30.9757   22.0794 N   0  0  0  0  0  0
  -23.4221  -28.7972   23.3039 O   0  0  0  0  0  0
  -28.2083  -25.7077   20.3071 O   0  0  0  0  0  0
  -26.5739  -34.8887   22.4595 O   0  0  0  0  0  0
  -23.5757  -32.1168   23.6676 O   0  0  0  0  0  0
  -30.3129  -20.2242   21.5708 C   0  0  0  0  0  0
  -29.8039  -22.6757   21.5148 C   0  0  0  0  0  0
  -30.5235  -21.5582   22.0328 C   0  0  0  0  0  0
  -29.4107  -19.9080   20.5423 C   0  0  0  0  0  0
  -28.8364  -22.5607   20.4974 C   0  0  0  0  0  0
  -32.4125  -21.2192   25.4839 C   0  0  0  0  0  0
  -30.9099  -21.1037   25.4641 C   0  0  0  0  0  0
  -31.7018  -20.8485   24.1982 C   0  0  0  0  0  0
  -29.5220  -18.2406   19.9286 C   0  0  0  0  0  0
  -27.9731  -24.0595   20.0335 C   0  0  0  0  0  0
  -31.6498  -21.8304   23.0299 C   0  0  1  0  0  0
  -28.7073  -21.1350   20.0448 N   0  0  0  0  0  0
  -29.6138  -16.6413   20.5140 N   0  0  0  0  0  0
  -32.9140  -21.8238   22.2889 N   0  3  0  0  0  0
  -31.4552  -13.0815   19.2213 H   0  0  0  0  0  0
  -30.5158  -11.9708   20.1633 H   0  0  0  0  0  0
  -29.9468  -11.7867   17.7163 H   0  0  0  0  0  0
  -29.5679  -13.4910   17.6637 H   0  0  0  0  0  0
  -28.0698  -11.2879   19.1022 H   0  0  0  0  0  0
  -27.4387  -12.3425   17.8617 H   0  0  0  0  0  0
  -27.5186  -14.2489   19.3221 H   0  0  0  0  0  0
  -28.8224  -12.5641   21.5136 H   0  0  0  0  0  0
  -28.2558  -14.2079   21.6956 H   0  0  0  0  0  0
  -25.2791   -9.5694   22.4756 H   0  0  0  0  0  0
  -24.0023   -7.4651   22.7469 H   0  0  0  0  0  0
  -21.0879   -8.8777   19.8932 H   0  0  0  0  0  0
  -22.3737  -10.9667   19.6152 H   0  0  0  0  0  0
  -21.1981   -7.6135   23.9722 H   0  0  0  0  0  0
  -21.1497   -6.0510   25.9085 H   0  0  0  0  0  0
  -22.0588   -2.7598   23.2854 H   0  0  0  0  0  0
  -22.4039  -11.9839   22.4851 H   0  0  0  0  0  0
  -21.1021  -13.1171   22.2620 H   0  0  0  0  0  0
  -24.6288  -15.8494   20.5281 H   0  0  0  0  0  0
  -26.2416  -15.6417   20.0671 H   0  0  0  0  0  0
  -26.7407  -32.5080   23.0834 H   0  0  0  0  0  0
  -25.0073  -33.9440   25.0151 H   0  0  0  0  0  0
  -22.8041  -31.2550   21.3367 H   0  0  0  0  0  0
  -23.3786  -35.9486   23.3268 H   0  0  0  0  0  0
  -24.3556  -36.8872   22.2057 H   0  0  0  0  0  0
  -23.7219  -37.6349   23.6725 H   0  0  0  0  0  0
  -26.2465  -31.3328   20.6180 H   0  0  0  0  0  0
  -26.9183  -30.6623   22.0608 H   0  0  0  0  0  0
  -28.1530  -28.5284   21.2998 H   0  0  0  0  0  0
  -25.8718  -25.6919   19.0073 H   0  0  0  0  0  0
  -24.0215  -27.2494   18.9401 H   0  0  0  0  0  0
  -23.8882  -30.4934   19.3815 H   0  0  0  0  0  0
  -22.8412  -29.1831   19.8289 H   0  0  0  0  0  0
  -25.1340  -36.1746   25.0783 H   0  0  0  0  0  0
  -21.0041  -28.3375   24.1311 H   0  0  0  0  0  0
  -20.5664  -26.2383   23.3665 H   0  0  0  0  0  0
  -21.6662  -26.7391   22.1235 H   0  0  0  0  0  0
  -19.6935  -25.6273   21.1284 H   0  0  0  0  0  0
  -19.6729  -27.3162   20.6737 H   0  0  0  0  0  0
  -17.4232  -26.6709   21.4002 H   0  0  0  0  0  0
  -18.0325  -26.0096   22.9014 H   0  0  0  0  0  0
  -19.7964  -30.7318   24.2212 H   0  0  0  0  0  0
  -17.5033  -31.6281   24.5157 H   0  0  0  0  0  0
  -15.5374  -30.2973   23.7692 H   0  0  0  0  0  0
  -15.8706  -28.0799   22.7130 H   0  0  0  0  0  0
  -24.5935  -30.7057   25.7634 H   0  0  0  0  0  0
  -24.8780  -32.3001   26.4491 H   0  0  0  0  0  0
  -25.7888  -30.9155   27.0230 H   0  0  0  0  0  0
  -26.3123  -29.6539   24.1422 H   0  0  0  0  0  0
  -27.3932  -29.7223   25.5114 H   0  0  0  0  0  0
  -27.9102  -30.4006   23.9894 H   0  0  0  0  0  0
  -27.2668  -33.3695   26.1877 H   0  0  0  0  0  0
  -28.3984  -32.6746   25.0363 H   0  0  0  0  0  0
  -28.0634  -31.8544   26.5529 H   0  0  0  0  0  0
  -28.2574  -38.0075   24.7526 H   0  0  0  0  0  0
  -28.1111  -36.2601   24.6278 H   0  0  0  0  0  0
  -27.2298  -37.1374   25.8865 H   0  0  0  0  0  0
  -20.9645  -29.8706   21.6619 H   0  0  0  0  0  0
  -26.0138  -38.2755   24.1424 H   0  0  0  0  0  0
  -30.9111  -19.4121   21.9615 H   0  0  0  0  0  0
  -30.0004  -23.6660   21.9043 H   0  0  0  0  0  0
  -32.9730  -20.4321   25.9859 H   0  0  0  0  0  0
  -32.8431  -22.2153   25.5638 H   0  0  0  0  0  0
  -30.3349  -22.0257   25.5289 H   0  0  0  0  0  0
  -30.4647  -20.2443   25.9617 H   0  0  0  0  0  0
  -31.8137  -19.8064   23.9092 H   0  0  0  0  0  0
  -30.3815  -18.2945   19.2597 H   0  0  0  0  0  0
  -28.6721  -18.1892   19.2487 H   0  0  0  0  0  0
  -26.9574  -23.8808   20.3859 H   0  0  0  0  0  0
  -27.8943  -23.9857   18.9488 H   0  0  0  0  0  0
  -31.5193  -22.8322   23.4407 H   0  0  0  0  0  0
  -28.7248  -16.4124   20.9337 H   0  0  0  0  0  0
  -33.0681  -20.9218   21.8799 H   0  0  0  0  0  0
  -33.6793  -22.0506   22.8950 H   0  0  0  0  0  0
  -32.8661  -22.5032   21.5524 H   0  0  0  0  0  0
  1 25  1  0  0  0
  1 30  2  0  0  0
  1 83  1  0  0  0
  2  3  1  0  0  0
  2 25  1  0  0  0
  2 85  1  0  0  0
  2 86  1  0  0  0
  3  4  1  0  0  0
  3 87  1  0  0  0
  3 88  1  0  0  0
  4  5  1  0  0  0
  4 89  1  0  0  0
  4 90  1  0  0  0
  5  6  1  0  0  0
  5 26  1  0  0  0
  5 91  1  0  0  0
  6 25  1  0  0  0
  6 92  1  0  0  0
  6 93  1  0  0  0
  7  8  2  0  0  0
  7 26  1  0  0  0
  7 29  1  0  0  0
  8  9  1  0  0  0
  8 22  1  0  0  0
  9 10  1  0  0  0
  9 27  2  0  0  0
 10 11  2  0  0  0
 10 15  1  0  0  0
 11 12  1  0  0  0
 11 94  1  0  0  0
 12 13  2  0  0  0
 12 95  1  0  0  0
 13 14  1  0  0  0
 13 31  1  0  0  0
 14 15  2  0  0  0
 14 96  1  0  0  0
 15 97  1  0  0  0
 16 17  2  0  0  0
 16 21  1  0  0  0
 16 31  1  0  0  0
 17 18  1  0  0  0
 17 98  1  0  0  0
 18 19  2  0  0  0
 18 99  1  0  0  0
 19 20  1  0  0  0
 19 24  1  0  0  0
 20 21  2  0  0  0
 20100  1  0  0  0
 21 23  1  0  0  0
 22 28  1  0  0  0
 22 32  2  0  0  0
 26 27  1  0  0  0
 28101  1  0  0  0
 28102  1  0  0  0
 29103  1  0  0  0
 29104  1  0  0  0
 33 34  1  0  0  0
 33 66  1  0  0  0
 33 70  2  0  0  0
 34 36  1  0  0  0
 34 59  1  0  0  0
 34105  1  0  0  0
 35 44  2  0  0  0
 35 45  1  0  0  0
 35 68  1  0  0  0
 36 56  1  0  0  0
 36106  1  0  0  0
 37 39  1  0  0  0
 37 47  1  0  0  0
 37 66  1  0  0  0
 37107  1  0  0  0
 38 43  2  0  0  0
 38 46  1  0  0  0
 38 47  1  0  0  0
 39 64  1  0  0  0
 39 67  2  0  0  0
 40 52  1  0  0  0
 40 53  2  0  0  0
 40 58  1  0  0  0
 41108  1  0  0  0
 41109  1  0  0  0
 41110  1  0  0  0
 41 48  1  0  0  0
 42 43  1  0  0  0
 42 66  1  0  0  0
 42111  1  0  0  0
 42112  1  0  0  0
 43 44  1  0  0  0
 44113  1  0  0  0
 45 46  2  0  0  0
 45114  1  0  0  0
 46115  1  0  0  0
 47116  1  0  0  0
 47117  1  0  0  0
 48 56  1  0  0  0
 48 65  1  0  0  0
 48118  1  0  0  0
 49 50  1  0  0  0
 49 53  1  0  0  0
 49 64  1  0  0  0
 49119  1  0  0  0
 50 51  1  0  0  0
 50120  1  0  0  0
 50121  1  0  0  0
 51 52  1  0  0  0
 51122  1  0  0  0
 51123  1  0  0  0
 52124  1  0  0  0
 52125  1  0  0  0
 53 54  1  0  0  0
 54 55  2  0  0  0
 54126  1  0  0  0
 55 57  1  0  0  0
 55127  1  0  0  0
 56 69  2  0  0  0
 57 58  2  0  0  0
 57128  1  0  0  0
 58129  1  0  0  0
 59 60  1  0  0  0
 59 61  1  0  0  0
 59 62  1  0  0  0
 60130  1  0  0  0
 60131  1  0  0  0
 60132  1  0  0  0
 61133  1  0  0  0
 61134  1  0  0  0
 61135  1  0  0  0
 62136  1  0  0  0
 62137  1  0  0  0
 62138  1  0  0  0
 63 65  1  0  0  0
 63139  1  0  0  0
 63140  1  0  0  0
 63141  1  0  0  0
 64142  1  0  0  0
 65143  1  0  0  0
 68 80  1  0  0  0
 71 73  2  0  0  0
 71 74  1  0  0  0
 71144  1  0  0  0
 72 73  1  0  0  0
 72 75  2  0  0  0
 72145  1  0  0  0
 73 81  1  0  0  0
 74 79  1  0  0  0
 74 82  2  0  0  0
 75 80  1  0  0  0
 75 82  1  0  0  0
 76 77  1  0  0  0
 76146  1  0  0  0
 76147  1  0  0  0
 76 78  1  0  0  0
 77 78  1  0  0  0
 77148  1  0  0  0
 77149  1  0  0  0
 78 81  1  0  0  0
 78150  1  0  0  0
 79 83  1  0  0  0
 79151  1  0  0  0
 79152  1  0  0  0
 80153  1  0  0  0
 80154  1  0  0  0
 81 84  1  0  0  0
 81155  1  0  0  0
 83156  1  0  0  0
 84157  1  0  0  0
 84158  1  0  0  0
 84159  1  0  0  0
M  CHG  1  84   1
M  ISO  4   1 100  68 101  80 101  83 100
M  END
> <chiral flag>
0

> <version>
0

> <s_m_source_file>
/data/baiqing/PycharmProjects/Reinvent-master-3.2/result/LINK_invent/BTK/process_docking_weight1_custom_sum_contain_oxygen_bond_distance_aromatic_linkinvent_7_9_3/rearranged_h_0125.sdf

> <i_m_source_file_index>
72

> <r_mmod_Potential_Energy-OPLS-2005>
999.159729003906

> <r_mmod_Stretch_Energy-OPLS-2005>
702.261596679688

> <r_mmod_Bend_Energy-OPLS-2005>
489.633483886719

> <r_mmod_Torsional_Energy-OPLS-2005>
259.186492919922

> <r_mmod_Improper_Torsional_Energy-OPLS-2005>
6.28003549575806

> <r_mmod_Van_der_Waal_Energy-OPLS-2005>
121.877517700195

> <r_mmod_Electrostatic_Energy-OPLS-2005>
-625.204467773438

> <r_mmod_Solvation_Energy-OPLS-2005>
-528.532043457031

> <b_mmod_Minimization_Converged-OPLS-2005>
0

> <r_mmod_RMS_Derivative-OPLS-2005>
1.89420068264008

$$$$
73
                    3D
 Structure written by MMmdl.
156164  0  0  1  0            999 V2000
  -30.5625  -14.7721   20.4981 C   0  0  0  0  0  0
  -30.4526  -12.4798   19.4678 C   0  0  0  0  0  0
  -29.5169  -12.4964   18.2361 C   0  0  0  0  0  0
  -28.0442  -12.3033   18.6536 C   0  0  0  0  0  0
  -27.6413  -13.2113   19.8441 C   0  0  2  0  0  0
  -28.6837  -13.1371   20.9789 C   0  0  0  0  0  0
  -25.2522  -13.8144   20.5640 C   0  0  0  0  0  0
  -24.1803  -13.0417   20.9178 C   0  0  0  0  0  0
  -24.6369  -11.6884   20.8732 C   0  0  0  0  0  0
  -23.9042  -10.4273   21.0411 C   0  0  0  0  0  0
  -24.3603   -9.4190   21.9190 C   0  0  0  0  0  0
  -23.6278   -8.2230   22.0752 C   0  0  0  0  0  0
  -22.4265   -8.0269   21.3539 C   0  0  0  0  0  0
  -21.9895   -9.0240   20.4640 C   0  0  0  0  0  0
  -22.7215  -10.2125   20.3056 C   0  0  0  0  0  0
  -21.6852   -6.0723   22.5276 C   0  0  0  0  0  0
  -21.4009   -6.5629   23.8203 C   0  0  0  0  0  0
  -21.3661   -5.6789   24.9166 C   0  0  0  0  0  0
  -21.6052   -4.3054   24.7224 C   0  0  0  0  0  0
  -21.8820   -3.8141   23.4349 C   0  0  0  0  0  0
  -21.9180   -4.6952   22.3398 C   0  0  0  0  0  0
  -22.7833  -13.5219   21.1855 C   0  0  0  0  0  0
  -22.1656   -4.2141   21.0977 F   0  0  0  0  0  0
  -21.5629   -3.4535   25.7734 F   0  0  0  0  0  0
  -29.9766  -13.5272   20.4002 N   0  0  0  0  0  0
  -26.2919  -12.9301   20.3220 N   0  0  0  0  0  0
  -25.9285  -11.6466   20.5726 N   0  0  0  0  0  0
  -22.0498  -12.8208   22.0423 N   0  0  0  0  0  0
  -25.4229  -15.1864   20.4030 N   0  0  0  0  0  0
  -31.7641  -14.9034   20.2370 O   0  0  0  0  0  0
  -21.6635   -6.8868   21.4240 O   0  0  0  0  0  0
  -22.3512  -14.5526   20.6709 O   0  0  0  0  0  0
  -24.6335  -31.8544   23.1937 C   0  0  0  0  0  0
  -25.9155  -32.4744   23.8293 C   0  0  1  0  0  0
  -27.2158  -27.2324   20.1311 C   0  0  0  0  0  0
  -25.5967  -33.8543   24.2215 N   0  0  0  0  0  0
  -23.4334  -30.4754   21.5364 C   0  0  2  0  0  0
  -24.8833  -28.9234   20.1064 C   0  0  0  0  0  0
  -22.7537  -29.4576   22.4858 C   0  0  0  0  0  0
  -18.0315  -28.1376   22.8435 C   0  0  0  0  0  0
  -24.1519  -36.7297   23.2638 C   0  0  0  0  0  0
  -25.9834  -30.7576   21.3812 C   0  0  0  0  0  0
  -26.0568  -29.3782   20.7210 C   0  0  0  0  0  0
  -27.2276  -28.5477   20.7195 C   0  0  0  0  0  0
  -26.0159  -26.8600   19.4821 C   0  0  0  0  0  0
  -24.8700  -27.6737   19.4751 C   0  0  0  0  0  0
  -23.6582  -29.8156   20.1513 C   0  0  0  0  0  0
  -25.4139  -36.3035   24.0300 C   0  0  1  0  0  0
  -20.5916  -28.3697   23.1234 C   0  0  2  0  0  0
  -20.6818  -26.9411   22.5382 C   0  0  0  0  0  0
  -19.5791  -26.6365   21.5201 C   0  0  0  0  0  0
  -18.1961  -26.7902   22.1597 C   0  0  0  0  0  0
  -19.1559  -28.8852   23.2824 C   0  0  0  0  0  0
  -18.9502  -30.1448   23.8857 C   0  0  0  0  0  0
  -17.6493  -30.6568   24.0555 C   0  0  0  0  0  0
  -25.9081  -34.9424   23.5031 C   0  0  0  0  0  0
  -16.5382  -29.9074   23.6319 C   0  0  0  0  0  0
  -16.7294  -28.6497   23.0300 C   0  0  0  0  0  0
  -26.4519  -31.6576   25.0695 C   0  0  0  0  0  0
  -25.3729  -31.3754   26.1410 C   0  0  0  0  0  0
  -27.0387  -30.2986   24.6215 C   0  0  0  0  0  0
  -27.6045  -32.4353   25.7484 C   0  0  0  0  0  0
  -27.5573  -37.1795   24.8446 C   0  0  0  0  0  0
  -21.4236  -29.3058   22.3636 N   0  0  0  0  0  0
  -26.4295  -37.3735   23.9376 N   0  0  0  0  0  0
  -24.7027  -31.0462   22.0928 N   0  0  0  0  0  0
  -23.4216  -28.8094   23.2954 O   0  0  0  0  0  0
  -28.2916  -26.3042   20.1930 O   0  0  0  0  0  0
  -26.5624  -34.8889   22.4584 O   0  0  0  0  0  0
  -23.5469  -32.1407   23.7193 O   0  0  0  0  0  0
  -29.3715  -19.7728   22.3707 C   0  0  0  0  0  0
  -29.5018  -18.6253   23.1728 C   0  0  0  0  0  0
  -29.6995  -17.3537   22.5659 C   0  0  0  0  0  0
  -29.7644  -17.2393   21.1447 C   0  0  0  0  0  0
  -29.4231  -19.6716   20.9750 C   0  0  0  0  0  0
  -29.3917  -18.7926   24.6836 C   0  0  0  0  0  0
  -29.7829  -16.1050   23.4499 C   0  0  0  0  0  0
  -29.0494  -23.6021   20.3255 C   0  0  0  0  0  0
  -27.9757  -24.8188   20.1577 C   0  0  0  0  0  0
  -28.5241  -22.0607   20.4973 C   0  0  0  0  0  0
  -29.6201  -18.4152   20.3939 N   0  0  0  0  0  0
  -29.6913  -15.8560   20.5976 N   0  0  0  0  0  0
  -29.3496  -20.8435   20.1583 O   0  0  0  0  0  0
  -31.4849  -12.6523   19.1560 H   0  0  0  0  0  0
  -30.4399  -11.5016   19.9523 H   0  0  0  0  0  0
  -29.8099  -11.7149   17.5322 H   0  0  0  0  0  0
  -29.6241  -13.4442   17.7060 H   0  0  0  0  0  0
  -27.9201  -11.2567   18.9347 H   0  0  0  0  0  0
  -27.3797  -12.4670   17.8036 H   0  0  0  0  0  0
  -27.6357  -14.2288   19.4534 H   0  0  0  0  0  0
  -28.7317  -12.1282   21.3924 H   0  0  0  0  0  0
  -28.3999  -13.7862   21.8068 H   0  0  0  0  0  0
  -25.2760   -9.5662   22.4735 H   0  0  0  0  0  0
  -23.9992   -7.4622   22.7470 H   0  0  0  0  0  0
  -21.0822   -8.8749   19.8951 H   0  0  0  0  0  0
  -22.3683  -10.9645   19.6151 H   0  0  0  0  0  0
  -21.2020   -7.6143   23.9704 H   0  0  0  0  0  0
  -21.1479   -6.0523   25.9069 H   0  0  0  0  0  0
  -22.0603   -2.7606   23.2847 H   0  0  0  0  0  0
  -22.4139  -11.9869   22.4782 H   0  0  0  0  0  0
  -21.1121  -13.1221   22.2662 H   0  0  0  0  0  0
  -24.6502  -15.8338   20.5038 H   0  0  0  0  0  0
  -26.2520  -15.6255   20.0268 H   0  0  0  0  0  0
  -26.7227  -32.5382   23.1025 H   0  0  0  0  0  0
  -25.0164  -33.9704   25.0393 H   0  0  0  0  0  0
  -22.7303  -31.2971   21.3855 H   0  0  0  0  0  0
  -23.3754  -35.9658   23.3283 H   0  0  0  0  0  0
  -24.3625  -36.8946   22.2062 H   0  0  0  0  0  0
  -23.7318  -37.6499   23.6694 H   0  0  0  0  0  0
  -26.1284  -31.5187   20.6141 H   0  0  0  0  0  0
  -26.8595  -30.8031   22.0146 H   0  0  0  0  0  0
  -28.1243  -28.8864   21.2170 H   0  0  0  0  0  0
  -25.9203  -25.9135   18.9772 H   0  0  0  0  0  0
  -23.9753  -27.3186   18.9815 H   0  0  0  0  0  0
  -23.7983  -30.5986   19.4061 H   0  0  0  0  0  0
  -22.7753  -29.2612   19.8292 H   0  0  0  0  0  0
  -25.1328  -36.1869   25.0794 H   0  0  0  0  0  0
  -21.0004  -28.3296   24.1352 H   0  0  0  0  0  0
  -20.5748  -26.2318   23.3600 H   0  0  0  0  0  0
  -21.6682  -26.7454   22.1160 H   0  0  0  0  0  0
  -19.6976  -25.6270   21.1244 H   0  0  0  0  0  0
  -19.6732  -27.3170   20.6713 H   0  0  0  0  0  0
  -17.4234  -26.6635   21.3993 H   0  0  0  0  0  0
  -18.0357  -26.0058   22.9012 H   0  0  0  0  0  0
  -19.7989  -30.7269   24.2197 H   0  0  0  0  0  0
  -17.5060  -31.6243   24.5187 H   0  0  0  0  0  0
  -15.5372  -30.2966   23.7675 H   0  0  0  0  0  0
  -15.8696  -28.0848   22.6963 H   0  0  0  0  0  0
  -24.5891  -30.7119   25.7732 H   0  0  0  0  0  0
  -24.8967  -32.2959   26.4807 H   0  0  0  0  0  0
  -25.8052  -30.8941   27.0201 H   0  0  0  0  0  0
  -26.2988  -29.6700   24.1261 H   0  0  0  0  0  0
  -27.4078  -29.7267   25.4737 H   0  0  0  0  0  0
  -27.8840  -30.4229   23.9452 H   0  0  0  0  0  0
  -27.2607  -33.3657   26.2019 H   0  0  0  0  0  0
  -28.3883  -32.6934   25.0346 H   0  0  0  0  0  0
  -28.0690  -31.8532   26.5457 H   0  0  0  0  0  0
  -28.2538  -38.0133   24.7482 H   0  0  0  0  0  0
  -28.1122  -36.2651   24.6291 H   0  0  0  0  0  0
  -27.2295  -37.1451   25.8850 H   0  0  0  0  0  0
  -20.9421  -29.8844   21.6909 H   0  0  0  0  0  0
  -26.0163  -38.2783   24.1420 H   0  0  0  0  0  0
  -29.2486  -20.7369   22.8417 H   0  0  0  0  0  0
  -29.2119  -19.8296   24.9679 H   0  0  0  0  0  0
  -30.3098  -18.4779   25.1796 H   0  0  0  0  0  0
  -28.5638  -18.2044   25.0826 H   0  0  0  0  0  0
  -29.8740  -16.3196   24.5135 H   0  0  0  0  0  0
  -30.6542  -15.5043   23.1971 H   0  0  0  0  0  0
  -28.8901  -15.4929   23.3313 H   0  0  0  0  0  0
  -29.6823  -23.8295   21.1826 H   0  0  0  0  0  0
  -29.7167  -23.6420   19.4650 H   0  0  0  0  0  0
  -27.1998  -24.6561   20.9070 H   0  0  0  0  0  0
  -27.5118  -24.6107   19.1942 H   0  0  0  0  0  0
  -27.6536  -21.9632   19.8482 H   0  0  0  0  0  0
  -28.0959  -21.9685   21.4937 H   0  0  0  0  0  0
  -28.7398  -15.5455   20.5071 H   0  0  0  0  0  0
  1 25  1  0  0  0
  1 30  2  0  0  0
  1 82  1  0  0  0
  2  3  1  0  0  0
  2 25  1  0  0  0
  2 84  1  0  0  0
  2 85  1  0  0  0
  3  4  1  0  0  0
  3 86  1  0  0  0
  3 87  1  0  0  0
  4  5  1  0  0  0
  4 88  1  0  0  0
  4 89  1  0  0  0
  5  6  1  0  0  0
  5 26  1  0  0  0
  5 90  1  0  0  0
  6 25  1  0  0  0
  6 91  1  0  0  0
  6 92  1  0  0  0
  7  8  2  0  0  0
  7 26  1  0  0  0
  7 29  1  0  0  0
  8  9  1  0  0  0
  8 22  1  0  0  0
  9 10  1  0  0  0
  9 27  2  0  0  0
 10 11  2  0  0  0
 10 15  1  0  0  0
 11 12  1  0  0  0
 11 93  1  0  0  0
 12 13  2  0  0  0
 12 94  1  0  0  0
 13 14  1  0  0  0
 13 31  1  0  0  0
 14 15  2  0  0  0
 14 95  1  0  0  0
 15 96  1  0  0  0
 16 17  2  0  0  0
 16 21  1  0  0  0
 16 31  1  0  0  0
 17 18  1  0  0  0
 17 97  1  0  0  0
 18 19  2  0  0  0
 18 98  1  0  0  0
 19 20  1  0  0  0
 19 24  1  0  0  0
 20 21  2  0  0  0
 20 99  1  0  0  0
 21 23  1  0  0  0
 22 28  1  0  0  0
 22 32  2  0  0  0
 26 27  1  0  0  0
 28100  1  0  0  0
 28101  1  0  0  0
 29102  1  0  0  0
 29103  1  0  0  0
 33 34  1  0  0  0
 33 66  1  0  0  0
 33 70  2  0  0  0
 34 36  1  0  0  0
 34 59  1  0  0  0
 34104  1  0  0  0
 35 44  2  0  0  0
 35 45  1  0  0  0
 35 68  1  0  0  0
 36 56  1  0  0  0
 36105  1  0  0  0
 37 39  1  0  0  0
 37 47  1  0  0  0
 37 66  1  0  0  0
 37106  1  0  0  0
 38 43  2  0  0  0
 38 46  1  0  0  0
 38 47  1  0  0  0
 39 64  1  0  0  0
 39 67  2  0  0  0
 40 52  1  0  0  0
 40 53  2  0  0  0
 40 58  1  0  0  0
 41107  1  0  0  0
 41108  1  0  0  0
 41109  1  0  0  0
 41 48  1  0  0  0
 42 43  1  0  0  0
 42 66  1  0  0  0
 42110  1  0  0  0
 42111  1  0  0  0
 43 44  1  0  0  0
 44112  1  0  0  0
 45 46  2  0  0  0
 45113  1  0  0  0
 46114  1  0  0  0
 47115  1  0  0  0
 47116  1  0  0  0
 48 56  1  0  0  0
 48 65  1  0  0  0
 48117  1  0  0  0
 49 50  1  0  0  0
 49 53  1  0  0  0
 49 64  1  0  0  0
 49118  1  0  0  0
 50 51  1  0  0  0
 50119  1  0  0  0
 50120  1  0  0  0
 51 52  1  0  0  0
 51121  1  0  0  0
 51122  1  0  0  0
 52123  1  0  0  0
 52124  1  0  0  0
 53 54  1  0  0  0
 54 55  2  0  0  0
 54125  1  0  0  0
 55 57  1  0  0  0
 55126  1  0  0  0
 56 69  2  0  0  0
 57 58  2  0  0  0
 57127  1  0  0  0
 58128  1  0  0  0
 59 60  1  0  0  0
 59 61  1  0  0  0
 59 62  1  0  0  0
 60129  1  0  0  0
 60130  1  0  0  0
 60131  1  0  0  0
 61132  1  0  0  0
 61133  1  0  0  0
 61134  1  0  0  0
 62135  1  0  0  0
 62136  1  0  0  0
 62137  1  0  0  0
 63 65  1  0  0  0
 63138  1  0  0  0
 63139  1  0  0  0
 63140  1  0  0  0
 64141  1  0  0  0
 65142  1  0  0  0
 68 79  1  0  0  0
 71 72  2  0  0  0
 71 75  1  0  0  0
 71143  1  0  0  0
 72 73  1  0  0  0
 72 76  1  0  0  0
 73 74  2  0  0  0
 73 77  1  0  0  0
 74 81  1  0  0  0
 74 82  1  0  0  0
 75 81  2  0  0  0
 75 83  1  0  0  0
 76144  1  0  0  0
 76145  1  0  0  0
 76146  1  0  0  0
 77147  1  0  0  0
 77148  1  0  0  0
 77149  1  0  0  0
 78 79  1  0  0  0
 78 80  1  0  0  0
 78150  1  0  0  0
 78151  1  0  0  0
 79152  1  0  0  0
 79153  1  0  0  0
 80 83  1  0  0  0
 80154  1  0  0  0
 80155  1  0  0  0
 82156  1  0  0  0
M  ISO  4   1 100  68 101  79 101  82 100
M  END
> <chiral flag>
0

> <version>
0

> <s_m_source_file>
/data/baiqing/PycharmProjects/Reinvent-master-3.2/result/LINK_invent/BTK/process_docking_weight1_custom_sum_contain_oxygen_bond_distance_aromatic_linkinvent_7_9_3/rearranged_h_0125.sdf

> <i_m_source_file_index>
73

> <r_mmod_Potential_Energy-OPLS-2005>
99.1728363037109

> <r_mmod_Stretch_Energy-OPLS-2005>
145.499862670898

> <r_mmod_Bend_Energy-OPLS-2005>
192.656433105469

> <r_mmod_Torsional_Energy-OPLS-2005>
260.241607666016

> <r_mmod_Improper_Torsional_Energy-OPLS-2005>
10.2805223464966

> <r_mmod_Van_der_Waal_Energy-OPLS-2005>
147.584396362305

> <r_mmod_Electrostatic_Energy-OPLS-2005>
-532.308349609375

> <r_mmod_Solvation_Energy-OPLS-2005>
-229.380065917969

> <b_mmod_Minimization_Converged-OPLS-2005>
0

> <r_mmod_RMS_Derivative-OPLS-2005>
2.82002234458923

$$$$
74
                    3D
 Structure written by MMmdl.
180189  0  0  1  0            999 V2000
  -30.5658  -14.8362   20.4341 C   0  0  0  0  0  0
  -30.4379  -12.5085   19.4954 C   0  0  0  0  0  0
  -29.5198  -12.5225   18.2501 C   0  0  0  0  0  0
  -28.0484  -12.3283   18.6600 C   0  0  0  0  0  0
  -27.6429  -13.2336   19.8529 C   0  0  2  0  0  0
  -28.6836  -13.2025   20.9951 C   0  0  0  0  0  0
  -25.2527  -13.8171   20.5633 C   0  0  0  0  0  0
  -24.1840  -13.0449   20.9273 C   0  0  0  0  0  0
  -24.6416  -11.6924   20.8812 C   0  0  0  0  0  0
  -23.9087  -10.4292   21.0453 C   0  0  0  0  0  0
  -24.3649   -9.4175   21.9189 C   0  0  0  0  0  0
  -23.6312   -8.2219   22.0730 C   0  0  0  0  0  0
  -22.4276   -8.0284   21.3553 C   0  0  0  0  0  0
  -21.9908   -9.0288   20.4684 C   0  0  0  0  0  0
  -22.7252  -10.2153   20.3104 C   0  0  0  0  0  0
  -21.6848   -6.0741   22.5281 C   0  0  0  0  0  0
  -21.4016   -6.5640   23.8212 C   0  0  0  0  0  0
  -21.3660   -5.6793   24.9175 C   0  0  0  0  0  0
  -21.6044   -4.3060   24.7225 C   0  0  0  0  0  0
  -21.8815   -3.8153   23.4349 C   0  0  0  0  0  0
  -21.9182   -4.6972   22.3405 C   0  0  0  0  0  0
  -22.7873  -13.5251   21.1924 C   0  0  0  0  0  0
  -22.1660   -4.2161   21.0986 F   0  0  0  0  0  0
  -21.5628   -3.4542   25.7740 F   0  0  0  0  0  0
  -29.9781  -13.5825   20.4158 N   0  0  0  0  0  0
  -26.2951  -12.9377   20.3266 N   0  0  0  0  0  0
  -25.9341  -11.6535   20.5782 N   0  0  0  0  0  0
  -22.0522  -12.8281   22.0505 N   0  0  0  0  0  0
  -25.4230  -15.1844   20.3770 N   0  0  0  0  0  0
  -31.7407  -14.9436   20.0694 O   0  0  0  0  0  0
  -21.6629   -6.8893   21.4243 O   0  0  0  0  0  0
  -22.3582  -14.5525   20.6695 O   0  0  0  0  0  0
  -24.6364  -31.8493   23.1927 C   0  0  0  0  0  0
  -25.9167  -32.4725   23.8292 C   0  0  1  0  0  0
  -27.2144  -27.1951   20.1475 C   0  0  0  0  0  0
  -25.5944  -33.8527   24.2233 N   0  0  0  0  0  0
  -23.4359  -30.4696   21.5373 C   0  0  2  0  0  0
  -24.8834  -28.9054   20.1083 C   0  0  0  0  0  0
  -22.7527  -29.4560   22.4877 C   0  0  0  0  0  0
  -18.0301  -28.1372   22.8478 C   0  0  0  0  0  0
  -24.1487  -36.7263   23.2637 C   0  0  0  0  0  0
  -25.9851  -30.7421   21.3814 C   0  0  0  0  0  0
  -26.0557  -29.3570   20.7269 C   0  0  0  0  0  0
  -27.2217  -28.5161   20.7317 C   0  0  0  0  0  0
  -26.0241  -26.8346   19.4780 C   0  0  0  0  0  0
  -24.8775  -27.6565   19.4684 C   0  0  0  0  0  0
  -23.6571  -29.8010   20.1542 C   0  0  0  0  0  0
  -25.4114  -36.3049   24.0326 C   0  0  1  0  0  0
  -20.5904  -28.3690   23.1252 C   0  0  2  0  0  0
  -20.6781  -26.9401   22.5402 C   0  0  0  0  0  0
  -19.5759  -26.6370   21.5199 C   0  0  0  0  0  0
  -18.1939  -26.7915   22.1616 C   0  0  0  0  0  0
  -19.1556  -28.8852   23.2860 C   0  0  0  0  0  0
  -18.9471  -30.1447   23.8886 C   0  0  0  0  0  0
  -17.6468  -30.6575   24.0557 C   0  0  0  0  0  0
  -25.9062  -34.9424   23.5093 C   0  0  0  0  0  0
  -16.5360  -29.9067   23.6326 C   0  0  0  0  0  0
  -16.7286  -28.6481   23.0356 C   0  0  0  0  0  0
  -26.4524  -31.6558   25.0697 C   0  0  0  0  0  0
  -25.3738  -31.3718   26.1411 C   0  0  0  0  0  0
  -27.0368  -30.2962   24.6211 C   0  0  0  0  0  0
  -27.6075  -32.4297   25.7478 C   0  0  0  0  0  0
  -27.5582  -37.1783   24.8466 C   0  0  0  0  0  0
  -21.4228  -29.3034   22.3634 N   0  0  0  0  0  0
  -26.4285  -37.3755   23.9418 N   0  0  0  0  0  0
  -24.7055  -31.0393   22.0937 N   0  0  0  0  0  0
  -23.4202  -28.8115   23.3007 O   0  0  0  0  0  0
  -28.3010  -26.2706   20.2166 O   0  0  0  0  0  0
  -26.5632  -34.8913   22.4661 O   0  0  0  0  0  0
  -23.5502  -32.1352   23.7180 O   0  0  0  0  0  0
  -23.5507  -18.1635   23.8585 C   0  0  0  0  0  0
  -24.8901  -17.6541   24.4112 C   0  0  0  0  0  0
  -23.7344  -19.4709   23.0654 C   0  0  0  0  0  0
  -28.4841  -22.3064   21.3815 C   0  0  0  0  0  0
  -28.7540  -22.4060   18.9609 C   0  0  0  0  0  0
  -25.9403  -17.5062   23.3000 C   0  0  0  0  0  0
  -28.6188  -23.9116   21.4322 C   0  0  0  0  0  0
  -28.8676  -23.9994   19.0142 C   0  0  0  0  0  0
  -24.7781  -19.3343   21.9353 C   0  0  1  0  0  0
  -29.2308  -21.5615   20.2078 C   0  0  2  0  0  0
  -26.1268  -18.8267   22.5171 C   0  0  2  0  0  0
  -28.1252  -24.7431   20.1801 C   0  0  2  0  0  0
  -24.2262  -18.4819   20.7737 C   0  0  0  0  0  0
  -29.8450  -17.4001   20.0153 C   0  0  0  0  0  0
  -28.5625  -18.6947   21.9675 C   0  0  0  0  0  0
  -29.5347  -18.8424   20.7880 C   0  0  2  0  0  0
  -29.7679  -15.9736   20.6388 N   0  0  0  0  0  0
  -29.0378  -20.0468   19.9611 N   0  0  0  0  0  0
  -27.1715  -18.7063   21.4750 N   0  3  0  0  0  0
  -31.4781  -12.6422   19.1932 H   0  0  0  0  0  0
  -30.3979  -11.5389   19.9924 H   0  0  0  0  0  0
  -29.8192  -11.7408   17.5511 H   0  0  0  0  0  0
  -29.6312  -13.4687   17.7177 H   0  0  0  0  0  0
  -27.9171  -11.2794   18.9287 H   0  0  0  0  0  0
  -27.3935  -12.5089   17.8068 H   0  0  0  0  0  0
  -27.6289  -14.2504   19.4607 H   0  0  0  0  0  0
  -28.7391  -12.2118   21.4490 H   0  0  0  0  0  0
  -28.3977  -13.8899   21.7928 H   0  0  0  0  0  0
  -25.2808   -9.5624   22.4748 H   0  0  0  0  0  0
  -24.0019   -7.4581   22.7426 H   0  0  0  0  0  0
  -21.0817   -8.8839   19.9016 H   0  0  0  0  0  0
  -22.3703  -10.9713   19.6242 H   0  0  0  0  0  0
  -21.2012   -7.6143   23.9726 H   0  0  0  0  0  0
  -21.1497   -6.0523   25.9080 H   0  0  0  0  0  0
  -22.0597   -2.7619   23.2844 H   0  0  0  0  0  0
  -22.4204  -12.0048   22.5041 H   0  0  0  0  0  0
  -21.1119  -13.1286   22.2671 H   0  0  0  0  0  0
  -24.5748  -15.7344   20.3173 H   0  0  0  0  0  0
  -26.1270  -15.4878   19.7180 H   0  0  0  0  0  0
  -26.7224  -32.5364   23.1016 H   0  0  0  0  0  0
  -25.0100  -33.9652   25.0389 H   0  0  0  0  0  0
  -22.7351  -31.2930   21.3871 H   0  0  0  0  0  0
  -23.3762  -35.9581   23.3277 H   0  0  0  0  0  0
  -24.3576  -36.8906   22.2054 H   0  0  0  0  0  0
  -23.7215  -37.6449   23.6676 H   0  0  0  0  0  0
  -26.1279  -31.4967   20.6063 H   0  0  0  0  0  0
  -26.8617  -30.7953   22.0155 H   0  0  0  0  0  0
  -28.1178  -28.8552   21.2331 H   0  0  0  0  0  0
  -25.9542  -25.8926   18.9554 H   0  0  0  0  0  0
  -23.9860  -27.3114   18.9629 H   0  0  0  0  0  0
  -23.7862  -30.5758   19.3971 H   0  0  0  0  0  0
  -22.7739  -29.2368   19.8494 H   0  0  0  0  0  0
  -25.1285  -36.1895   25.0814 H   0  0  0  0  0  0
  -21.0004  -28.3271   24.1370 H   0  0  0  0  0  0
  -20.5643  -26.2304   23.3611 H   0  0  0  0  0  0
  -21.6652  -26.7393   22.1217 H   0  0  0  0  0  0
  -19.6917  -25.6278   21.1233 H   0  0  0  0  0  0
  -19.6691  -27.3179   20.6725 H   0  0  0  0  0  0
  -17.4204  -26.6654   21.4027 H   0  0  0  0  0  0
  -18.0344  -26.0056   22.9014 H   0  0  0  0  0  0
  -19.7946  -30.7265   24.2251 H   0  0  0  0  0  0
  -17.5021  -31.6257   24.5151 H   0  0  0  0  0  0
  -15.5362  -30.2966   23.7645 H   0  0  0  0  0  0
  -15.8684  -28.0791   22.7082 H   0  0  0  0  0  0
  -24.5935  -30.7038   25.7744 H   0  0  0  0  0  0
  -24.8911  -32.2888   26.4796 H   0  0  0  0  0  0
  -25.8055  -30.8929   27.0208 H   0  0  0  0  0  0
  -26.2957  -29.6695   24.1236 H   0  0  0  0  0  0
  -27.4032  -29.7233   25.4738 H   0  0  0  0  0  0
  -27.8847  -30.4209   23.9471 H   0  0  0  0  0  0
  -27.2695  -33.3616   26.2016 H   0  0  0  0  0  0
  -28.3916  -32.6814   25.0326 H   0  0  0  0  0  0
  -28.0711  -31.8438   26.5422 H   0  0  0  0  0  0
  -28.2581  -38.0099   24.7533 H   0  0  0  0  0  0
  -28.1095  -36.2630   24.6265 H   0  0  0  0  0  0
  -27.2307  -37.1401   25.8870 H   0  0  0  0  0  0
  -20.9413  -29.8766   21.6847 H   0  0  0  0  0  0
  -26.0163  -38.2825   24.1430 H   0  0  0  0  0  0
  -22.8534  -18.3251   24.6817 H   0  0  0  0  0  0
  -23.0954  -17.3994   23.2266 H   0  0  0  0  0  0
  -24.7452  -16.6965   24.9131 H   0  0  0  0  0  0
  -25.2575  -18.3454   25.1714 H   0  0  0  0  0  0
  -24.0462  -20.2593   23.7528 H   0  0  0  0  0  0
  -22.7758  -19.7966   22.6604 H   0  0  0  0  0  0
  -27.4225  -22.0599   21.3406 H   0  0  0  0  0  0
  -28.8425  -21.9061   22.3303 H   0  0  0  0  0  0
  -29.3053  -22.0651   18.0835 H   0  0  0  0  0  0
  -27.7096  -22.1581   18.7605 H   0  0  0  0  0  0
  -25.6419  -16.7036   22.6261 H   0  0  0  0  0  0
  -26.8809  -17.1899   23.7497 H   0  0  0  0  0  0
  -29.6670  -24.1548   21.6102 H   0  0  0  0  0  0
  -28.0871  -24.2739   22.3126 H   0  0  0  0  0  0
  -28.5036  -24.4021   18.0690 H   0  0  0  0  0  0
  -29.9244  -24.2649   19.0540 H   0  0  0  0  0  0
  -24.9455  -20.3361   21.5352 H   0  0  0  0  0  0
  -30.3030  -21.7289   20.3264 H   0  0  0  0  0  0
  -26.4660  -19.5882   23.2227 H   0  0  0  0  0  0
  -27.0659  -24.5116   20.0927 H   0  0  0  0  0  0
  -24.0231  -17.4569   21.0797 H   0  0  0  0  0  0
  -24.9126  -18.4493   19.9280 H   0  0  0  0  0  0
  -23.2880  -18.8958   20.4012 H   0  0  0  0  0  0
  -30.8292  -17.4909   19.5518 H   0  0  0  0  0  0
  -29.1588  -17.3496   19.1690 H   0  0  0  0  0  0
  -28.7124  -19.5290   22.6534 H   0  0  0  0  0  0
  -28.7770  -17.7887   22.5337 H   0  0  0  0  0  0
  -30.4949  -19.1404   21.2134 H   0  0  0  0  0  0
  -28.8592  -15.7289   21.0024 H   0  0  0  0  0  0
  -29.3925  -19.8849   19.0203 H   0  0  0  0  0  0
  -27.1620  -19.5132   20.8644 H   0  0  0  0  0  0
  -27.0032  -17.8997   20.8992 H   0  0  0  0  0  0
  1 25  1  0  0  0
  1 30  2  0  0  0
  1 87  1  0  0  0
  2  3  1  0  0  0
  2 25  1  0  0  0
  2 90  1  0  0  0
  2 91  1  0  0  0
  3  4  1  0  0  0
  3 92  1  0  0  0
  3 93  1  0  0  0
  4  5  1  0  0  0
  4 94  1  0  0  0
  4 95  1  0  0  0
  5  6  1  0  0  0
  5 26  1  0  0  0
  5 96  1  0  0  0
  6 25  1  0  0  0
  6 97  1  0  0  0
  6 98  1  0  0  0
  7  8  2  0  0  0
  7 26  1  0  0  0
  7 29  1  0  0  0
  8  9  1  0  0  0
  8 22  1  0  0  0
  9 10  1  0  0  0
  9 27  2  0  0  0
 10 11  2  0  0  0
 10 15  1  0  0  0
 11 12  1  0  0  0
 11 99  1  0  0  0
 12 13  2  0  0  0
 12100  1  0  0  0
 13 14  1  0  0  0
 13 31  1  0  0  0
 14 15  2  0  0  0
 14101  1  0  0  0
 15102  1  0  0  0
 16 17  2  0  0  0
 16 21  1  0  0  0
 16 31  1  0  0  0
 17 18  1  0  0  0
 17103  1  0  0  0
 18 19  2  0  0  0
 18104  1  0  0  0
 19 20  1  0  0  0
 19 24  1  0  0  0
 20 21  2  0  0  0
 20105  1  0  0  0
 21 23  1  0  0  0
 22 28  1  0  0  0
 22 32  2  0  0  0
 26 27  1  0  0  0
 28106  1  0  0  0
 28107  1  0  0  0
 29108  1  0  0  0
 29109  1  0  0  0
 33 34  1  0  0  0
 33 66  1  0  0  0
 33 70  2  0  0  0
 34 36  1  0  0  0
 34 59  1  0  0  0
 34110  1  0  0  0
 35 44  2  0  0  0
 35 45  1  0  0  0
 35 68  1  0  0  0
 36 56  1  0  0  0
 36111  1  0  0  0
 37 39  1  0  0  0
 37 47  1  0  0  0
 37 66  1  0  0  0
 37112  1  0  0  0
 38 43  2  0  0  0
 38 46  1  0  0  0
 38 47  1  0  0  0
 39 64  1  0  0  0
 39 67  2  0  0  0
 40 52  1  0  0  0
 40 53  2  0  0  0
 40 58  1  0  0  0
 41113  1  0  0  0
 41114  1  0  0  0
 41115  1  0  0  0
 41 48  1  0  0  0
 42 43  1  0  0  0
 42 66  1  0  0  0
 42116  1  0  0  0
 42117  1  0  0  0
 43 44  1  0  0  0
 44118  1  0  0  0
 45 46  2  0  0  0
 45119  1  0  0  0
 46120  1  0  0  0
 47121  1  0  0  0
 47122  1  0  0  0
 48 56  1  0  0  0
 48 65  1  0  0  0
 48123  1  0  0  0
 49 50  1  0  0  0
 49 53  1  0  0  0
 49 64  1  0  0  0
 49124  1  0  0  0
 50 51  1  0  0  0
 50125  1  0  0  0
 50126  1  0  0  0
 51 52  1  0  0  0
 51127  1  0  0  0
 51128  1  0  0  0
 52129  1  0  0  0
 52130  1  0  0  0
 53 54  1  0  0  0
 54 55  2  0  0  0
 54131  1  0  0  0
 55 57  1  0  0  0
 55132  1  0  0  0
 56 69  2  0  0  0
 57 58  2  0  0  0
 57133  1  0  0  0
 58134  1  0  0  0
 59 60  1  0  0  0
 59 61  1  0  0  0
 59 62  1  0  0  0
 60135  1  0  0  0
 60136  1  0  0  0
 60137  1  0  0  0
 61138  1  0  0  0
 61139  1  0  0  0
 61140  1  0  0  0
 62141  1  0  0  0
 62142  1  0  0  0
 62143  1  0  0  0
 63 65  1  0  0  0
 63144  1  0  0  0
 63145  1  0  0  0
 63146  1  0  0  0
 64147  1  0  0  0
 65148  1  0  0  0
 68 82  1  0  0  0
 71 72  1  0  0  0
 71 73  1  0  0  0
 71149  1  0  0  0
 71150  1  0  0  0
 72 76  1  0  0  0
 72151  1  0  0  0
 72152  1  0  0  0
 73 79  1  0  0  0
 73153  1  0  0  0
 73154  1  0  0  0
 74 77  1  0  0  0
 74 80  1  0  0  0
 74155  1  0  0  0
 74156  1  0  0  0
 75 78  1  0  0  0
 75 80  1  0  0  0
 75157  1  0  0  0
 75158  1  0  0  0
 76 81  1  0  0  0
 76159  1  0  0  0
 76160  1  0  0  0
 77 82  1  0  0  0
 77161  1  0  0  0
 77162  1  0  0  0
 78 82  1  0  0  0
 78163  1  0  0  0
 78164  1  0  0  0
 79 81  1  0  0  0
 79 83  1  0  0  0
 79165  1  0  0  0
 80 88  1  0  0  0
 80166  1  0  0  0
 81 89  1  0  0  0
 81167  1  0  0  0
 82168  1  0  0  0
 83169  1  0  0  0
 83170  1  0  0  0
 83171  1  0  0  0
 84 87  1  0  0  0
 84172  1  0  0  0
 84173  1  0  0  0
 84 86  1  0  0  0
 85 86  1  0  0  0
 85 89  1  0  0  0
 85174  1  0  0  0
 85175  1  0  0  0
 86 88  1  0  0  0
 86176  1  0  0  0
 87177  1  0  0  0
 88178  1  0  0  0
 89179  1  0  0  0
 89180  1  0  0  0
M  CHG  1  89   1
M  ISO  4   1 100  68 101  82 101  87 100
M  END
> <chiral flag>
0

> <version>
0

> <s_m_source_file>
/data/baiqing/PycharmProjects/Reinvent-master-3.2/result/LINK_invent/BTK/process_docking_weight1_custom_sum_contain_oxygen_bond_distance_aromatic_linkinvent_7_9_3/rearranged_h_0125.sdf

> <i_m_source_file_index>
74

> <r_mmod_Potential_Energy-OPLS-2005>
134.648468017578

> <r_mmod_Stretch_Energy-OPLS-2005>
176.136703491211

> <r_mmod_Bend_Energy-OPLS-2005>
250.309432983398

> <r_mmod_Torsional_Energy-OPLS-2005>
303.362579345703

> <r_mmod_Improper_Torsional_Energy-OPLS-2005>
10.0651931762695

> <r_mmod_Van_der_Waal_Energy-OPLS-2005>
111.439468383789

> <r_mmod_Electrostatic_Energy-OPLS-2005>
-410.740539550781

> <r_mmod_Solvation_Energy-OPLS-2005>
-434.938751220703

> <b_mmod_Minimization_Converged-OPLS-2005>
0

> <r_mmod_RMS_Derivative-OPLS-2005>
1.87380564212799

$$$$
75
                    3D
 Structure written by MMmdl.
166175  0  0  1  0            999 V2000
  -30.7377  -14.4492   20.6261 C   0  0  0  0  0  0
  -30.4158  -12.3116   19.4280 C   0  0  0  0  0  0
  -29.4943  -12.5141   18.2081 C   0  0  0  0  0  0
  -28.0157  -12.3690   18.6148 C   0  0  0  0  0  0
  -27.6593  -13.2073   19.8700 C   0  0  2  0  0  0
  -28.6932  -12.9885   20.9941 C   0  0  0  0  0  0
  -25.2588  -13.8166   20.5676 C   0  0  0  0  0  0
  -24.1844  -13.0446   20.9189 C   0  0  0  0  0  0
  -24.6390  -11.6910   20.8732 C   0  0  0  0  0  0
  -23.9056  -10.4296   21.0404 C   0  0  0  0  0  0
  -24.3612   -9.4212   21.9180 C   0  0  0  0  0  0
  -23.6289   -8.2248   22.0754 C   0  0  0  0  0  0
  -22.4271   -8.0283   21.3546 C   0  0  0  0  0  0
  -21.9904   -9.0256   20.4650 C   0  0  0  0  0  0
  -22.7230  -10.2137   20.3055 C   0  0  0  0  0  0
  -21.6856   -6.0734   22.5280 C   0  0  0  0  0  0
  -21.4015   -6.5639   23.8214 C   0  0  0  0  0  0
  -21.3658   -5.6791   24.9175 C   0  0  0  0  0  0
  -21.6043   -4.3054   24.7226 C   0  0  0  0  0  0
  -21.8819   -3.8146   23.4348 C   0  0  0  0  0  0
  -21.9195   -4.6962   22.3404 C   0  0  0  0  0  0
  -22.7871  -13.5252   21.1852 C   0  0  0  0  0  0
  -22.1664   -4.2148   21.0983 F   0  0  0  0  0  0
  -21.5628   -3.4539   25.7739 F   0  0  0  0  0  0
  -30.0314  -13.2940   20.4576 N   0  0  0  0  0  0
  -26.3004  -12.9332   20.3311 N   0  0  0  0  0  0
  -25.9310  -11.6493   20.5733 N   0  0  0  0  0  0
  -22.0506  -12.8241   22.0401 N   0  0  0  0  0  0
  -25.4332  -15.1883   20.4078 N   0  0  0  0  0  0
  -31.8197  -14.6438   20.0621 O   0  0  0  0  0  0
  -21.6638   -6.8877   21.4244 O   0  0  0  0  0  0
  -22.3566  -14.5565   20.6704 O   0  0  0  0  0  0
  -24.6156  -31.8678   23.2108 C   0  0  0  0  0  0
  -25.9048  -32.4818   23.8400 C   0  0  1  0  0  0
  -27.2295  -27.4215   20.0870 C   0  0  0  0  0  0
  -25.5905  -33.8619   24.2329 N   0  0  0  0  0  0
  -23.4028  -30.4931   21.5523 C   0  0  2  0  0  0
  -24.8462  -28.9608   20.1140 C   0  0  0  0  0  0
  -22.7412  -29.4658   22.4991 C   0  0  0  0  0  0
  -18.0272  -28.1375   22.8490 C   0  0  0  0  0  0
  -24.1487  -36.7315   23.2638 C   0  0  0  0  0  0
  -25.9344  -30.8275   21.3673 C   0  0  0  0  0  0
  -26.0085  -29.4624   20.7116 C   0  0  0  0  0  0
  -27.2005  -28.6995   20.6968 C   0  0  0  0  0  0
  -26.0423  -26.9417   19.4816 C   0  0  0  0  0  0
  -24.8586  -27.6998   19.4979 C   0  0  0  0  0  0
  -23.6102  -29.8294   20.1657 C   0  0  0  0  0  0
  -25.4108  -36.3111   24.0336 C   0  0  1  0  0  0
  -20.5862  -28.3662   23.1318 C   0  0  2  0  0  0
  -20.6760  -26.9397   22.5418 C   0  0  0  0  0  0
  -19.5742  -26.6382   21.5210 C   0  0  0  0  0  0
  -18.1920  -26.7924   22.1618 C   0  0  0  0  0  0
  -19.1521  -28.8834   23.2901 C   0  0  0  0  0  0
  -18.9449  -30.1441   23.8909 C   0  0  0  0  0  0
  -17.6452  -30.6582   24.0563 C   0  0  0  0  0  0
  -25.9034  -34.9474   23.5128 C   0  0  0  0  0  0
  -16.5342  -29.9083   23.6326 C   0  0  0  0  0  0
  -16.7261  -28.6499   23.0346 C   0  0  0  0  0  0
  -26.4471  -31.6600   25.0733 C   0  0  0  0  0  0
  -25.3735  -31.3704   26.1480 C   0  0  0  0  0  0
  -27.0302  -30.3041   24.6119 C   0  0  0  0  0  0
  -27.6046  -32.4318   25.7498 C   0  0  0  0  0  0
  -27.5582  -37.1815   24.8462 C   0  0  0  0  0  0
  -21.4139  -29.3033   22.3729 N   0  0  0  0  0  0
  -26.4294  -37.3796   23.9406 N   0  0  0  0  0  0
  -24.6693  -31.0773   22.1013 N   0  0  0  0  0  0
  -23.4184  -28.8193   23.3028 O   0  0  0  0  0  0
  -28.4032  -26.6854   20.1093 O   0  0  0  0  0  0
  -26.5597  -34.8925   22.4689 O   0  0  0  0  0  0
  -23.5348  -32.1435   23.7499 O   0  0  0  0  0  0
  -30.5093  -19.9337   20.8405 C   0  0  0  0  0  0
  -30.6943  -21.2524   20.3731 C   0  0  0  0  0  0
  -28.3920  -21.3046   19.6175 C   0  0  0  0  0  0
  -29.2722  -19.2619   20.6832 C   0  0  0  0  0  0
  -29.6433  -21.9423   19.7355 C   0  0  0  0  0  0
  -28.1962  -19.9807   20.0847 C   0  0  0  0  0  0
  -30.0526  -15.5049   22.7160 C   0  0  0  0  0  0
  -30.2642  -16.8456   20.7037 C   0  0  0  0  0  0
  -28.8811  -16.3867   23.1974 C   0  0  0  0  0  0
  -29.1254  -17.7997   21.1678 C   0  0  1  0  0  0
  -26.8200  -19.3593   19.9001 C   0  0  0  0  0  0
  -29.8990  -23.2999   19.0755 C   0  0  0  0  0  0
  -29.6729  -24.5679   19.9407 C   0  0  0  0  0  0
  -28.3631  -25.3271   19.6357 C   0  0  0  0  0  0
  -30.1054  -15.4775   21.2476 N   0  0  0  0  0  0
  -28.9614  -17.7551   22.6365 N   0  3  0  0  0  0
  -31.4617  -12.4000   19.1290 H   0  0  0  0  0  0
  -30.3096  -11.2996   19.8219 H   0  0  0  0  0  0
  -29.7393  -11.7940   17.4260 H   0  0  0  0  0  0
  -29.6627  -13.5027   17.7777 H   0  0  0  0  0  0
  -27.8277  -11.3126   18.8098 H   0  0  0  0  0  0
  -27.3671  -12.6436   17.7821 H   0  0  0  0  0  0
  -27.7053  -14.2564   19.5767 H   0  0  0  0  0  0
  -28.6667  -11.9542   21.3404 H   0  0  0  0  0  0
  -28.4201  -13.5885   21.8589 H   0  0  0  0  0  0
  -25.2760   -9.5692   22.4748 H   0  0  0  0  0  0
  -24.0003   -7.4641   22.7468 H   0  0  0  0  0  0
  -21.0838   -8.8775   19.8953 H   0  0  0  0  0  0
  -22.3688  -10.9676   19.6162 H   0  0  0  0  0  0
  -21.2006   -7.6146   23.9718 H   0  0  0  0  0  0
  -21.1480   -6.0521   25.9080 H   0  0  0  0  0  0
  -22.0598   -2.7609   23.2850 H   0  0  0  0  0  0
  -22.4108  -11.9891   22.4777 H   0  0  0  0  0  0
  -21.1125  -13.1275   22.2602 H   0  0  0  0  0  0
  -24.6524  -15.8323   20.4744 H   0  0  0  0  0  0
  -26.2564  -15.6040   19.9938 H   0  0  0  0  0  0
  -26.7120  -32.5523   23.1164 H   0  0  0  0  0  0
  -25.0057  -33.9781   25.0475 H   0  0  0  0  0  0
  -22.6915  -31.3104   21.4158 H   0  0  0  0  0  0
  -23.3747  -35.9649   23.3302 H   0  0  0  0  0  0
  -24.3581  -36.8930   22.2052 H   0  0  0  0  0  0
  -23.7240  -37.6521   23.6653 H   0  0  0  0  0  0
  -26.0521  -31.5946   20.6006 H   0  0  0  0  0  0
  -26.8205  -30.8766   21.9883 H   0  0  0  0  0  0
  -28.0973  -29.0839   21.1627 H   0  0  0  0  0  0
  -26.0002  -25.9828   18.9871 H   0  0  0  0  0  0
  -23.9651  -27.3083   19.0312 H   0  0  0  0  0  0
  -23.7191  -30.6061   19.4078 H   0  0  0  0  0  0
  -22.7329  -29.2516   19.8694 H   0  0  0  0  0  0
  -25.1284  -36.1977   25.0831 H   0  0  0  0  0  0
  -20.9951  -28.3226   24.1438 H   0  0  0  0  0  0
  -20.5657  -26.2267   23.3603 H   0  0  0  0  0  0
  -21.6633  -26.7438   22.1215 H   0  0  0  0  0  0
  -19.6901  -25.6296   21.1230 H   0  0  0  0  0  0
  -19.6683  -27.3198   20.6745 H   0  0  0  0  0  0
  -17.4191  -26.6677   21.4016 H   0  0  0  0  0  0
  -18.0314  -26.0060   22.9008 H   0  0  0  0  0  0
  -19.7926  -30.7253   24.2284 H   0  0  0  0  0  0
  -17.5008  -31.6263   24.5162 H   0  0  0  0  0  0
  -15.5343  -30.2987   23.7643 H   0  0  0  0  0  0
  -15.8661  -28.0823   22.7053 H   0  0  0  0  0  0
  -24.5910  -30.7047   25.7819 H   0  0  0  0  0  0
  -24.8921  -32.2855   26.4937 H   0  0  0  0  0  0
  -25.8089  -30.8870   27.0234 H   0  0  0  0  0  0
  -26.2850  -29.6809   24.1159 H   0  0  0  0  0  0
  -27.4052  -29.7273   25.4585 H   0  0  0  0  0  0
  -27.8697  -30.4358   23.9287 H   0  0  0  0  0  0
  -27.2664  -33.3605   26.2109 H   0  0  0  0  0  0
  -28.3840  -32.6898   25.0314 H   0  0  0  0  0  0
  -28.0733  -31.8421   26.5388 H   0  0  0  0  0  0
  -28.2602  -38.0110   24.7512 H   0  0  0  0  0  0
  -28.1076  -36.2643   24.6283 H   0  0  0  0  0  0
  -27.2301  -37.1462   25.8866 H   0  0  0  0  0  0
  -20.9293  -29.8771   21.6968 H   0  0  0  0  0  0
  -26.0184  -38.2875   24.1404 H   0  0  0  0  0  0
  -31.3486  -19.4371   21.3061 H   0  0  0  0  0  0
  -31.6651  -21.7185   20.4729 H   0  0  0  0  0  0
  -27.5820  -21.8272   19.1267 H   0  0  0  0  0  0
  -29.9614  -14.5039   23.1404 H   0  0  0  0  0  0
  -30.9969  -15.8953   23.1008 H   0  0  0  0  0  0
  -31.2425  -17.2214   21.0051 H   0  0  0  0  0  0
  -30.2719  -16.8186   19.6119 H   0  0  0  0  0  0
  -28.8731  -16.4448   24.2866 H   0  0  0  0  0  0
  -27.9314  -15.9369   22.9032 H   0  0  0  0  0  0
  -28.2110  -17.3824   20.7481 H   0  0  0  0  0  0
  -26.0994  -20.0875   19.5259 H   0  0  0  0  0  0
  -26.4294  -18.9782   20.8443 H   0  0  0  0  0  0
  -26.8590  -18.5404   19.1807 H   0  0  0  0  0  0
  -29.3210  -23.3604   18.1524 H   0  0  0  0  0  0
  -30.9384  -23.2976   18.7437 H   0  0  0  0  0  0
  -30.4882  -25.2556   19.7127 H   0  0  0  0  0  0
  -29.7680  -24.3453   21.0039 H   0  0  0  0  0  0
  -27.5371  -24.7761   20.0887 H   0  0  0  0  0  0
  -28.1965  -25.3493   18.5576 H   0  0  0  0  0  0
  -29.7368  -18.2351   23.0624 H   0  0  0  0  0  0
  -28.1286  -18.2628   22.8876 H   0  0  0  0  0  0
  1 25  1  0  0  0
  1 30  2  0  0  0
  1 85  1  0  0  0
  2  3  1  0  0  0
  2 25  1  0  0  0
  2 87  1  0  0  0
  2 88  1  0  0  0
  3  4  1  0  0  0
  3 89  1  0  0  0
  3 90  1  0  0  0
  4  5  1  0  0  0
  4 91  1  0  0  0
  4 92  1  0  0  0
  5  6  1  0  0  0
  5 26  1  0  0  0
  5 93  1  0  0  0
  6 25  1  0  0  0
  6 94  1  0  0  0
  6 95  1  0  0  0
  7  8  2  0  0  0
  7 26  1  0  0  0
  7 29  1  0  0  0
  8  9  1  0  0  0
  8 22  1  0  0  0
  9 10  1  0  0  0
  9 27  2  0  0  0
 10 11  2  0  0  0
 10 15  1  0  0  0
 11 12  1  0  0  0
 11 96  1  0  0  0
 12 13  2  0  0  0
 12 97  1  0  0  0
 13 14  1  0  0  0
 13 31  1  0  0  0
 14 15  2  0  0  0
 14 98  1  0  0  0
 15 99  1  0  0  0
 16 17  2  0  0  0
 16 21  1  0  0  0
 16 31  1  0  0  0
 17 18  1  0  0  0
 17100  1  0  0  0
 18 19  2  0  0  0
 18101  1  0  0  0
 19 20  1  0  0  0
 19 24  1  0  0  0
 20 21  2  0  0  0
 20102  1  0  0  0
 21 23  1  0  0  0
 22 28  1  0  0  0
 22 32  2  0  0  0
 26 27  1  0  0  0
 28103  1  0  0  0
 28104  1  0  0  0
 29105  1  0  0  0
 29106  1  0  0  0
 33 34  1  0  0  0
 33 66  1  0  0  0
 33 70  2  0  0  0
 34 36  1  0  0  0
 34 59  1  0  0  0
 34107  1  0  0  0
 35 44  2  0  0  0
 35 45  1  0  0  0
 35 68  1  0  0  0
 36 56  1  0  0  0
 36108  1  0  0  0
 37 39  1  0  0  0
 37 47  1  0  0  0
 37 66  1  0  0  0
 37109  1  0  0  0
 38 43  2  0  0  0
 38 46  1  0  0  0
 38 47  1  0  0  0
 39 64  1  0  0  0
 39 67  2  0  0  0
 40 52  1  0  0  0
 40 53  2  0  0  0
 40 58  1  0  0  0
 41110  1  0  0  0
 41111  1  0  0  0
 41112  1  0  0  0
 41 48  1  0  0  0
 42 43  1  0  0  0
 42 66  1  0  0  0
 42113  1  0  0  0
 42114  1  0  0  0
 43 44  1  0  0  0
 44115  1  0  0  0
 45 46  2  0  0  0
 45116  1  0  0  0
 46117  1  0  0  0
 47118  1  0  0  0
 47119  1  0  0  0
 48 56  1  0  0  0
 48 65  1  0  0  0
 48120  1  0  0  0
 49 50  1  0  0  0
 49 53  1  0  0  0
 49 64  1  0  0  0
 49121  1  0  0  0
 50 51  1  0  0  0
 50122  1  0  0  0
 50123  1  0  0  0
 51 52  1  0  0  0
 51124  1  0  0  0
 51125  1  0  0  0
 52126  1  0  0  0
 52127  1  0  0  0
 53 54  1  0  0  0
 54 55  2  0  0  0
 54128  1  0  0  0
 55 57  1  0  0  0
 55129  1  0  0  0
 56 69  2  0  0  0
 57 58  2  0  0  0
 57130  1  0  0  0
 58131  1  0  0  0
 59 60  1  0  0  0
 59 61  1  0  0  0
 59 62  1  0  0  0
 60132  1  0  0  0
 60133  1  0  0  0
 60134  1  0  0  0
 61135  1  0  0  0
 61136  1  0  0  0
 61137  1  0  0  0
 62138  1  0  0  0
 62139  1  0  0  0
 62140  1  0  0  0
 63 65  1  0  0  0
 63141  1  0  0  0
 63142  1  0  0  0
 63143  1  0  0  0
 64144  1  0  0  0
 65145  1  0  0  0
 68 84  1  0  0  0
 71 72  2  0  0  0
 71 74  1  0  0  0
 71146  1  0  0  0
 72 75  1  0  0  0
 72147  1  0  0  0
 73 75  2  0  0  0
 73 76  1  0  0  0
 73148  1  0  0  0
 74 76  2  0  0  0
 74 80  1  0  0  0
 75 82  1  0  0  0
 76 81  1  0  0  0
 77 79  1  0  0  0
 77 85  1  0  0  0
 77149  1  0  0  0
 77150  1  0  0  0
 78 80  1  0  0  0
 78 85  1  0  0  0
 78151  1  0  0  0
 78152  1  0  0  0
 79 86  1  0  0  0
 79153  1  0  0  0
 79154  1  0  0  0
 80 86  1  0  0  0
 80155  1  0  0  0
 81156  1  0  0  0
 81157  1  0  0  0
 81158  1  0  0  0
 82 83  1  0  0  0
 82159  1  0  0  0
 82160  1  0  0  0
 83 84  1  0  0  0
 83161  1  0  0  0
 83162  1  0  0  0
 84163  1  0  0  0
 84164  1  0  0  0
 86165  1  0  0  0
 86166  1  0  0  0
M  CHG  1  86   1
M  ISO  4   1 100  68 101  84 101  85 100
M  END
> <chiral flag>
0

> <version>
0

> <s_m_source_file>
/data/baiqing/PycharmProjects/Reinvent-master-3.2/result/LINK_invent/BTK/process_docking_weight1_custom_sum_contain_oxygen_bond_distance_aromatic_linkinvent_7_9_3/rearranged_h_0125.sdf

> <i_m_source_file_index>
75

> <r_mmod_Potential_Energy-OPLS-2005>
-67.4131088256836

> <r_mmod_Stretch_Energy-OPLS-2005>
42.9303398132324

> <r_mmod_Bend_Energy-OPLS-2005>
103.37239074707

> <r_mmod_Torsional_Energy-OPLS-2005>
358.277679443359

> <r_mmod_Improper_Torsional_Energy-OPLS-2005>
9.29754734039307

> <r_mmod_Van_der_Waal_Energy-OPLS-2005>
157.999084472656

> <r_mmod_Electrostatic_Energy-OPLS-2005>
-296.876281738281

> <r_mmod_Solvation_Energy-OPLS-2005>
-454.371032714844

> <b_mmod_Minimization_Converged-OPLS-2005>
0

> <r_mmod_RMS_Derivative-OPLS-2005>
0.488443672657013

$$$$
76
                    3D
 Structure written by MMmdl.
173182  0  0  1  0            999 V2000
  -30.6315  -14.0246   21.0259 C   0  0  0  0  0  0
  -31.2155  -12.8350   18.8123 C   0  0  0  0  0  0
  -30.1393  -12.7942   17.6436 C   0  0  0  0  0  0
  -28.6806  -12.5202   18.0142 C   0  0  0  0  0  0
  -28.4456  -13.1021   19.4730 C   0  0  2  0  0  0
  -29.6971  -12.1599   20.0446 C   0  0  0  0  0  0
  -24.8451  -14.0901   20.9119 C   0  0  0  0  0  0
  -23.8079  -13.2070   20.9734 C   0  0  0  0  0  0
  -24.2976  -11.9019   21.0416 C   0  0  0  0  0  0
  -23.7611  -10.5276   21.0970 C   0  0  0  0  0  0
  -24.2916   -9.5089   21.9320 C   0  0  0  0  0  0
  -23.6264   -8.2652   22.0610 C   0  0  0  0  0  0
  -22.4309   -8.0295   21.3404 C   0  0  0  0  0  0
  -21.9692   -9.0070   20.4431 C   0  0  0  0  0  0
  -22.6333  -10.2353   20.3132 C   0  0  0  0  0  0
  -21.6984   -6.0714   22.5249 C   0  0  0  0  0  0
  -21.4104   -6.5672   23.8153 C   0  0  0  0  0  0
  -21.3690   -5.6867   24.9141 C   0  0  0  0  0  0
  -21.6043   -4.3107   24.7254 C   0  0  0  0  0  0
  -21.8797   -3.8137   23.4387 C   0  0  0  0  0  0
  -21.9232   -4.6924   22.3414 C   0  0  0  0  0  0
  -22.4218  -13.5961   21.1340 C   0  0  0  0  0  0
  -22.1685   -4.2068   21.1011 F   0  0  0  0  0  0
  -21.5629   -3.4613   25.7775 F   0  0  0  0  0  0
  -30.6728  -13.0343   20.1336 N   0  0  0  0  0  0
  -25.9973  -13.3165   20.9307 N   0  0  0  0  0  0
  -25.3560  -12.2364   21.6399 N   0  0  0  0  0  0
  -21.7320  -12.8714   22.0015 N   0  0  0  0  0  0
  -24.8479  -15.4749   20.8589 N   0  0  0  0  0  0
  -31.4383  -14.9429   20.8236 O   0  0  0  0  0  0
  -21.6900   -6.8743   21.4123 O   0  0  0  0  0  0
  -22.0037  -14.6102   20.5938 O   0  0  0  0  0  0
  -24.6437  -31.8441   23.1898 C   0  0  0  0  0  0
  -25.9232  -32.4678   23.8235 C   0  0  1  0  0  0
  -27.1290  -27.1224   20.1066 C   0  0  0  0  0  0
  -25.5982  -33.8483   24.2161 N   0  0  0  0  0  0
  -23.4380  -30.4727   21.5372 C   0  0  2  0  0  0
  -24.8622  -28.8970   20.1086 C   0  0  0  0  0  0
  -22.7520  -29.4562   22.4847 C   0  0  0  0  0  0
  -18.0287  -28.1381   22.8463 C   0  0  0  0  0  0
  -24.1500  -36.7261   23.2639 C   0  0  0  0  0  0
  -25.9969  -30.7091   21.3863 C   0  0  0  0  0  0
  -26.0471  -29.3228   20.7207 C   0  0  0  0  0  0
  -27.1951  -28.4488   20.6982 C   0  0  0  0  0  0
  -25.9213  -26.7866   19.4841 C   0  0  0  0  0  0
  -24.8085  -27.6443   19.4827 C   0  0  0  0  0  0
  -23.6551  -29.8122   20.1525 C   0  0  0  0  0  0
  -25.4137  -36.3030   24.0298 C   0  0  1  0  0  0
  -20.5898  -28.3703   23.1241 C   0  0  2  0  0  0
  -20.6775  -26.9403   22.5408 C   0  0  0  0  0  0
  -19.5765  -26.6371   21.5197 C   0  0  0  0  0  0
  -18.1938  -26.7920   22.1602 C   0  0  0  0  0  0
  -19.1545  -28.8853   23.2848 C   0  0  0  0  0  0
  -18.9470  -30.1442   23.8889 C   0  0  0  0  0  0
  -17.6477  -30.6587   24.0541 C   0  0  0  0  0  0
  -25.9094  -34.9410   23.5047 C   0  0  0  0  0  0
  -16.5364  -29.9085   23.6320 C   0  0  0  0  0  0
  -16.7273  -28.6492   23.0353 C   0  0  0  0  0  0
  -26.4547  -31.6562   25.0697 C   0  0  0  0  0  0
  -25.3727  -31.3801   26.1404 C   0  0  0  0  0  0
  -27.0375  -30.2920   24.6331 C   0  0  0  0  0  0
  -27.6059  -32.4329   25.7492 C   0  0  0  0  0  0
  -27.5577  -37.1792   24.8461 C   0  0  0  0  0  0
  -21.4213  -29.3049   22.3612 N   0  0  0  0  0  0
  -26.4298  -37.3748   23.9396 N   0  0  0  0  0  0
  -24.7131  -31.0317   22.0916 N   0  0  0  0  0  0
  -23.4189  -28.8061   23.2947 O   0  0  0  0  0  0
  -28.1669  -26.1530   20.0281 O   0  0  0  0  0  0
  -26.5668  -34.8912   22.4621 O   0  0  0  0  0  0
  -23.5572  -32.1302   23.7169 O   0  0  0  0  0  0
  -26.6982  -11.6557   19.5389 C   0  0  0  0  0  0
  -26.2878  -13.2430   18.6680 C   0  0  0  0  0  0
  -27.6409  -11.7490   21.1456 C   0  0  0  0  0  0
  -27.7301  -14.8687   20.8427 C   0  0  0  0  0  0
  -26.8738  -14.8371   19.3301 C   0  0  0  0  0  0
  -28.1937  -13.4400   21.7253 C   0  0  0  0  0  0
  -25.2192  -21.3504   20.0986 C   0  0  0  0  0  0
  -24.0168  -20.4530   20.2914 C   0  0  0  0  0  0
  -24.9052  -18.7096   18.8172 C   0  0  0  0  0  0
  -26.5737  -20.6278   19.8788 C   0  0  1  0  0  0
  -26.4161  -19.1113   19.0321 C   0  0  1  0  0  0
  -29.5312  -24.2697   20.4098 C   0  0  0  0  0  0
  -26.6806  -16.3522   18.6922 C   0  0  0  0  0  0
  -27.3105  -23.3827   19.3998 C   0  0  0  0  0  0
  -28.0412  -24.6167   20.2842 C   0  0  1  0  0  0
  -29.6294  -13.8385   22.0201 N   0  0  0  0  0  0
  -23.8516  -19.7212   19.0354 N   0  3  0  0  0  0
  -27.6105  -21.8053   19.5671 N   0  3  0  0  0  0
  -26.8938  -17.6861   19.4886 O   0  0  0  0  0  0
  -31.9285  -13.6336   18.6047 H   0  0  0  0  0  0
  -31.8249  -11.9269   18.8012 H   0  0  0  0  0  0
  -30.4635  -12.0931   16.8716 H   0  0  0  0  0  0
  -30.1729  -13.7696   17.1537 H   0  0  0  0  0  0
  -28.4882  -11.4502   17.8964 H   0  0  0  0  0  0
  -28.1306  -13.0064   17.2088 H   0  0  0  0  0  0
  -28.9223  -14.0458   19.1430 H   0  0  0  0  0  0
  -29.8500  -11.2057   19.5171 H   0  0  0  0  0  0
  -29.8527  -11.6806   21.0218 H   0  0  0  0  0  0
  -25.1777   -9.7006   22.5197 H   0  0  0  0  0  0
  -24.0259   -7.5156   22.7280 H   0  0  0  0  0  0
  -21.0776   -8.8235   19.8599 H   0  0  0  0  0  0
  -22.2311  -10.9854   19.6467 H   0  0  0  0  0  0
  -21.2147   -7.6201   23.9608 H   0  0  0  0  0  0
  -21.1507   -6.0646   25.9035 H   0  0  0  0  0  0
  -22.0514   -2.7589   23.2934 H   0  0  0  0  0  0
  -22.1511  -12.0759   22.4615 H   0  0  0  0  0  0
  -20.7752  -13.1160   22.2161 H   0  0  0  0  0  0
  -24.0011  -16.0288   20.8355 H   0  0  0  0  0  0
  -25.7089  -16.0048   20.8150 H   0  0  0  0  0  0
  -26.7268  -32.5236   23.0913 H   0  0  0  0  0  0
  -25.0068  -33.9562   25.0265 H   0  0  0  0  0  0
  -22.7403  -31.3004   21.3896 H   0  0  0  0  0  0
  -23.3766  -35.9591   23.3294 H   0  0  0  0  0  0
  -24.3591  -36.8903   22.2056 H   0  0  0  0  0  0
  -23.7240  -37.6447   23.6686 H   0  0  0  0  0  0
  -26.1648  -31.4639   20.6176 H   0  0  0  0  0  0
  -26.8670  -30.7440   22.0324 H   0  0  0  0  0  0
  -28.1147  -28.7688   21.1670 H   0  0  0  0  0  0
  -25.8254  -25.8348   18.9844 H   0  0  0  0  0  0
  -23.8961  -27.3218   19.0006 H   0  0  0  0  0  0
  -23.8077  -30.5869   19.4001 H   0  0  0  0  0  0
  -22.7636  -29.2669   19.8374 H   0  0  0  0  0  0
  -25.1323  -36.1855   25.0783 H   0  0  0  0  0  0
  -20.9990  -28.3322   24.1365 H   0  0  0  0  0  0
  -20.5635  -26.2314   23.3620 H   0  0  0  0  0  0
  -21.6643  -26.7377   22.1233 H   0  0  0  0  0  0
  -19.6927  -25.6276   21.1233 H   0  0  0  0  0  0
  -19.6742  -27.3172   20.6722 H   0  0  0  0  0  0
  -17.4207  -26.6641   21.4013 H   0  0  0  0  0  0
  -18.0349  -26.0061   22.8996 H   0  0  0  0  0  0
  -19.7948  -30.7220   24.2305 H   0  0  0  0  0  0
  -17.5041  -31.6271   24.5134 H   0  0  0  0  0  0
  -15.5370  -30.2994   23.7657 H   0  0  0  0  0  0
  -15.8655  -28.0801   22.7115 H   0  0  0  0  0  0
  -24.5975  -30.7036   25.7802 H   0  0  0  0  0  0
  -24.8842  -32.2995   26.4642 H   0  0  0  0  0  0
  -25.8047  -30.9165   27.0284 H   0  0  0  0  0  0
  -26.2985  -29.6646   24.1340 H   0  0  0  0  0  0
  -27.3925  -29.7238   25.4942 H   0  0  0  0  0  0
  -27.8937  -30.4084   23.9684 H   0  0  0  0  0  0
  -27.2653  -33.3680   26.1948 H   0  0  0  0  0  0
  -28.3969  -32.6793   25.0397 H   0  0  0  0  0  0
  -28.0615  -31.8519   26.5522 H   0  0  0  0  0  0
  -28.2596  -38.0088   24.7495 H   0  0  0  0  0  0
  -28.1069  -36.2611   24.6307 H   0  0  0  0  0  0
  -27.2291  -37.1473   25.8865 H   0  0  0  0  0  0
  -20.9411  -29.8815   21.6839 H   0  0  0  0  0  0
  -26.0162  -38.2817   24.1393 H   0  0  0  0  0  0
  -26.3867  -10.7034   19.1358 H   0  0  0  0  0  0
  -25.7296  -13.2204   17.7431 H   0  0  0  0  0  0
  -27.9578  -10.8429   21.6430 H   0  0  0  0  0  0
  -28.1400  -15.8211   21.1479 H   0  0  0  0  0  0
  -25.2954  -22.0405   20.9405 H   0  0  0  0  0  0
  -24.9889  -21.9528   19.2181 H   0  0  0  0  0  0
  -23.1288  -21.0599   20.4748 H   0  0  0  0  0  0
  -24.1265  -19.7841   21.1476 H   0  0  0  0  0  0
  -24.6346  -17.9239   19.5228 H   0  0  0  0  0  0
  -24.7598  -18.3001   17.8182 H   0  0  0  0  0  0
  -26.8730  -20.3015   20.8766 H   0  0  0  0  0  0
  -26.8398  -19.2853   18.0422 H   0  0  0  0  0  0
  -29.6910  -23.2264   20.6779 H   0  0  0  0  0  0
  -30.0113  -24.8775   21.1788 H   0  0  0  0  0  0
  -30.0527  -24.4581   19.4703 H   0  0  0  0  0  0
  -25.6733  -16.3230   18.2820 H   0  0  0  0  0  0
  -27.3276  -16.4113   17.8163 H   0  0  0  0  0  0
  -27.5695  -23.5887   18.3607 H   0  0  0  0  0  0
  -26.2482  -23.5960   19.4367 H   0  0  0  0  0  0
  -27.6138  -24.5440   21.2837 H   0  0  0  0  0  0
  -29.7210  -14.5075   22.7714 H   0  0  0  0  0  0
  -23.8214  -20.3769   18.2687 H   0  0  0  0  0  0
  -22.9585  -19.2540   19.0581 H   0  0  0  0  0  0
  -28.1111  -21.5306   18.7337 H   0  0  0  0  0  0
  -28.3069  -21.7322   20.2928 H   0  0  0  0  0  0
  1 25  1  0  0  0
  1 30  2  0  0  0
  1 86  1  0  0  0
  2  3  1  0  0  0
  2 25  1  0  0  0
  2 90  1  0  0  0
  2 91  1  0  0  0
  3  4  1  0  0  0
  3 92  1  0  0  0
  3 93  1  0  0  0
  4  5  1  0  0  0
  4 94  1  0  0  0
  4 95  1  0  0  0
  5  6  1  0  0  0
  5 26  1  0  0  0
  5 96  1  0  0  0
  6 25  1  0  0  0
  6 97  1  0  0  0
  6 98  1  0  0  0
  7  8  2  0  0  0
  7 26  1  0  0  0
  7 29  1  0  0  0
  8  9  1  0  0  0
  8 22  1  0  0  0
  9 10  1  0  0  0
  9 27  2  0  0  0
 10 11  2  0  0  0
 10 15  1  0  0  0
 11 12  1  0  0  0
 11 99  1  0  0  0
 12 13  2  0  0  0
 12100  1  0  0  0
 13 14  1  0  0  0
 13 31  1  0  0  0
 14 15  2  0  0  0
 14101  1  0  0  0
 15102  1  0  0  0
 16 17  2  0  0  0
 16 21  1  0  0  0
 16 31  1  0  0  0
 17 18  1  0  0  0
 17103  1  0  0  0
 18 19  2  0  0  0
 18104  1  0  0  0
 19 20  1  0  0  0
 19 24  1  0  0  0
 20 21  2  0  0  0
 20105  1  0  0  0
 21 23  1  0  0  0
 22 28  1  0  0  0
 22 32  2  0  0  0
 26 27  1  0  0  0
 28106  1  0  0  0
 28107  1  0  0  0
 29108  1  0  0  0
 29109  1  0  0  0
 33 34  1  0  0  0
 33 66  1  0  0  0
 33 70  2  0  0  0
 34 36  1  0  0  0
 34 59  1  0  0  0
 34110  1  0  0  0
 35 44  2  0  0  0
 35 45  1  0  0  0
 35 68  1  0  0  0
 36 56  1  0  0  0
 36111  1  0  0  0
 37 39  1  0  0  0
 37 47  1  0  0  0
 37 66  1  0  0  0
 37112  1  0  0  0
 38 43  2  0  0  0
 38 46  1  0  0  0
 38 47  1  0  0  0
 39 64  1  0  0  0
 39 67  2  0  0  0
 40 52  1  0  0  0
 40 53  2  0  0  0
 40 58  1  0  0  0
 41113  1  0  0  0
 41114  1  0  0  0
 41115  1  0  0  0
 41 48  1  0  0  0
 42 43  1  0  0  0
 42 66  1  0  0  0
 42116  1  0  0  0
 42117  1  0  0  0
 43 44  1  0  0  0
 44118  1  0  0  0
 45 46  2  0  0  0
 45119  1  0  0  0
 46120  1  0  0  0
 47121  1  0  0  0
 47122  1  0  0  0
 48 56  1  0  0  0
 48 65  1  0  0  0
 48123  1  0  0  0
 49 50  1  0  0  0
 49 53  1  0  0  0
 49 64  1  0  0  0
 49124  1  0  0  0
 50 51  1  0  0  0
 50125  1  0  0  0
 50126  1  0  0  0
 51 52  1  0  0  0
 51127  1  0  0  0
 51128  1  0  0  0
 52129  1  0  0  0
 52130  1  0  0  0
 53 54  1  0  0  0
 54 55  2  0  0  0
 54131  1  0  0  0
 55 57  1  0  0  0
 55132  1  0  0  0
 56 69  2  0  0  0
 57 58  2  0  0  0
 57133  1  0  0  0
 58134  1  0  0  0
 59 60  1  0  0  0
 59 61  1  0  0  0
 59 62  1  0  0  0
 60135  1  0  0  0
 60136  1  0  0  0
 60137  1  0  0  0
 61138  1  0  0  0
 61139  1  0  0  0
 61140  1  0  0  0
 62141  1  0  0  0
 62142  1  0  0  0
 62143  1  0  0  0
 63 65  1  0  0  0
 63144  1  0  0  0
 63145  1  0  0  0
 63146  1  0  0  0
 64147  1  0  0  0
 65148  1  0  0  0
 68 85  1  0  0  0
 71 72  2  0  0  0
 71 73  1  0  0  0
 71149  1  0  0  0
 72 75  1  0  0  0
 72150  1  0  0  0
 73 76  2  0  0  0
 73151  1  0  0  0
 74 75  2  0  0  0
 74 76  1  0  0  0
 74152  1  0  0  0
 75 83  1  0  0  0
 76 86  1  0  0  0
 77 78  1  0  0  0
 77 80  1  0  0  0
 77153  1  0  0  0
 77154  1  0  0  0
 78 87  1  0  0  0
 78155  1  0  0  0
 78156  1  0  0  0
 79 81  1  0  0  0
 79 87  1  0  0  0
 79157  1  0  0  0
 79158  1  0  0  0
 80 81  1  0  0  0
 80 88  1  0  0  0
 80159  1  0  0  0
 81 89  1  0  0  0
 81160  1  0  0  0
 82161  1  0  0  0
 82162  1  0  0  0
 82163  1  0  0  0
 82 85  1  0  0  0
 83 89  1  0  0  0
 83164  1  0  0  0
 83165  1  0  0  0
 84 85  1  0  0  0
 84 88  1  0  0  0
 84166  1  0  0  0
 84167  1  0  0  0
 85168  1  0  0  0
 86169  1  0  0  0
 87170  1  0  0  0
 87171  1  0  0  0
 88172  1  0  0  0
 88173  1  0  0  0
M  CHG  2  87   1  88   1
M  ISO  4   1 100  68 101  85 101  86 100
M  END
> <chiral flag>
0

> <version>
0

> <s_m_source_file>
/data/baiqing/PycharmProjects/Reinvent-master-3.2/result/LINK_invent/BTK/process_docking_weight1_custom_sum_contain_oxygen_bond_distance_aromatic_linkinvent_7_9_3/rearranged_h_0125.sdf

> <i_m_source_file_index>
76

> <r_mmod_Potential_Energy-OPLS-2005>
9704.4736328125

> <r_mmod_Stretch_Energy-OPLS-2005>
5181.400390625

> <r_mmod_Bend_Energy-OPLS-2005>
698.628967285156

> <r_mmod_Torsional_Energy-OPLS-2005>
568.678466796875

> <r_mmod_Improper_Torsional_Energy-OPLS-2005>
32.9684524536133

> <r_mmod_Van_der_Waal_Energy-OPLS-2005>
2821.82934570312

> <r_mmod_Electrostatic_Energy-OPLS-2005>
78.2943496704102

> <r_mmod_Solvation_Energy-OPLS-2005>
-972.372192382812

> <b_mmod_Minimization_Converged-OPLS-2005>
0

> <r_mmod_RMS_Derivative-OPLS-2005>
4.98530578613281

$$$$
77
                    3D
 Structure written by MMmdl.
160168  0  0  1  0            999 V2000
  -30.6572  -14.6272   20.4851 C   0  0  0  0  0  0
  -30.4192  -12.3785   19.4695 C   0  0  0  0  0  0
  -29.5012  -12.4895   18.2334 C   0  0  0  0  0  0
  -28.0245  -12.3361   18.6448 C   0  0  0  0  0  0
  -27.6462  -13.2227   19.8610 C   0  0  2  0  0  0
  -28.6891  -13.1124   20.9964 C   0  0  0  0  0  0
  -25.2526  -13.8199   20.5697 C   0  0  0  0  0  0
  -24.1803  -13.0465   20.9201 C   0  0  0  0  0  0
  -24.6382  -11.6935   20.8766 C   0  0  0  0  0  0
  -23.9059  -10.4313   21.0423 C   0  0  0  0  0  0
  -24.3610   -9.4222   21.9197 C   0  0  0  0  0  0
  -23.6294   -8.2251   22.0760 C   0  0  0  0  0  0
  -22.4275   -8.0286   21.3544 C   0  0  0  0  0  0
  -21.9912   -9.0261   20.4645 C   0  0  0  0  0  0
  -22.7236  -10.2150   20.3062 C   0  0  0  0  0  0
  -21.6848   -6.0744   22.5278 C   0  0  0  0  0  0
  -21.4007   -6.5645   23.8216 C   0  0  0  0  0  0
  -21.3664   -5.6794   24.9179 C   0  0  0  0  0  0
  -21.6040   -4.3060   24.7223 C   0  0  0  0  0  0
  -21.8819   -3.8154   23.4348 C   0  0  0  0  0  0
  -21.9187   -4.6970   22.3403 C   0  0  0  0  0  0
  -22.7827  -13.5247   21.1863 C   0  0  0  0  0  0
  -22.1657   -4.2160   21.0980 F   0  0  0  0  0  0
  -21.5636   -3.4544   25.7739 F   0  0  0  0  0  0
  -30.0047  -13.4254   20.4242 N   0  0  0  0  0  0
  -26.2948  -12.9394   20.3334 N   0  0  0  0  0  0
  -25.9309  -11.6536   20.5791 N   0  0  0  0  0  0
  -22.0466  -12.8235   22.0413 N   0  0  0  0  0  0
  -25.4261  -15.1926   20.4101 N   0  0  0  0  0  0
  -31.8289  -14.7364   20.1139 O   0  0  0  0  0  0
  -21.6635   -6.8889   21.4242 O   0  0  0  0  0  0
  -22.3524  -14.5569   20.6733 O   0  0  0  0  0  0
  -24.6237  -31.8595   23.1988 C   0  0  0  0  0  0
  -25.9090  -32.4771   23.8324 C   0  0  1  0  0  0
  -27.2264  -27.3226   20.1339 C   0  0  0  0  0  0
  -25.5910  -33.8572   24.2261 N   0  0  0  0  0  0
  -23.4183  -30.4805   21.5401 C   0  0  2  0  0  0
  -24.8699  -28.9286   20.1152 C   0  0  0  0  0  0
  -22.7473  -29.4620   22.4922 C   0  0  0  0  0  0
  -18.0298  -28.1364   22.8483 C   0  0  0  0  0  0
  -24.1494  -36.7294   23.2640 C   0  0  0  0  0  0
  -25.9580  -30.7890   21.3715 C   0  0  0  0  0  0
  -26.0361  -29.4138   20.7230 C   0  0  0  0  0  0
  -27.2200  -28.6191   20.7304 C   0  0  0  0  0  0
  -26.0450  -26.8816   19.5062 C   0  0  0  0  0  0
  -24.8744  -27.6644   19.5026 C   0  0  0  0  0  0
  -23.6356  -29.8074   20.1591 C   0  0  0  0  0  0
  -25.4118  -36.3081   24.0331 C   0  0  1  0  0  0
  -20.5894  -28.3671   23.1287 C   0  0  2  0  0  0
  -20.6783  -26.9394   22.5409 C   0  0  0  0  0  0
  -19.5760  -26.6365   21.5209 C   0  0  0  0  0  0
  -18.1934  -26.7902   22.1621 C   0  0  0  0  0  0
  -19.1543  -28.8833   23.2870 C   0  0  0  0  0  0
  -18.9473  -30.1434   23.8887 C   0  0  0  0  0  0
  -17.6479  -30.6561   24.0564 C   0  0  0  0  0  0
  -25.9054  -34.9450   23.5097 C   0  0  0  0  0  0
  -16.5369  -29.9061   23.6329 C   0  0  0  0  0  0
  -16.7288  -28.6486   23.0341 C   0  0  0  0  0  0
  -26.4479  -31.6578   25.0688 C   0  0  0  0  0  0
  -25.3713  -31.3703   26.1419 C   0  0  0  0  0  0
  -27.0327  -30.3009   24.6115 C   0  0  0  0  0  0
  -27.6039  -32.4321   25.7468 C   0  0  0  0  0  0
  -27.5580  -37.1800   24.8468 C   0  0  0  0  0  0
  -21.4188  -29.3031   22.3679 N   0  0  0  0  0  0
  -26.4298  -37.3770   23.9407 N   0  0  0  0  0  0
  -24.6850  -31.0608   22.0937 N   0  0  0  0  0  0
  -23.4202  -28.8168   23.3003 O   0  0  0  0  0  0
  -28.3151  -26.4477   20.1480 O   0  0  0  0  0  0
  -26.5631  -34.8923   22.4672 O   0  0  0  0  0  0
  -23.5409  -32.1410   23.7321 O   0  0  0  0  0  0
  -30.1910  -22.1056   19.9992 C   0  0  0  0  0  0
  -29.8195  -23.4742   20.1002 C   0  0  0  0  0  0
  -29.3628  -21.0449   20.4699 C   0  0  0  0  0  0
  -28.5768  -23.8264   20.6593 C   0  0  0  0  0  0
  -28.1137  -21.5006   21.0153 C   0  0  0  0  0  0
  -25.8258  -20.4793   20.6249 C   0  0  0  0  0  0
  -26.6344  -20.9088   23.0100 C   0  0  0  0  0  0
  -28.1835  -25.3005   21.0688 C   0  0  0  0  0  0
  -29.3779  -18.3606   20.7740 C   0  0  0  0  0  0
  -30.3730  -17.1578   20.4754 C   0  0  0  0  0  0
  -27.0357  -20.5623   21.5655 C   0  0  0  0  0  0
  -27.7550  -22.8257   21.0794 N   0  0  0  0  0  0
  -29.8830  -19.7012   20.3347 N   0  0  0  0  0  0
  -29.9178  -15.7501   20.7437 N   0  0  0  0  0  0
  -31.4655  -12.4712   19.1759 H   0  0  0  0  0  0
  -30.3269  -11.3948   19.9325 H   0  0  0  0  0  0
  -29.7642  -11.7267   17.4998 H   0  0  0  0  0  0
  -29.6497  -13.4528   17.7435 H   0  0  0  0  0  0
  -27.8617  -11.2863   18.8920 H   0  0  0  0  0  0
  -27.3696  -12.5537   17.7997 H   0  0  0  0  0  0
  -27.6580  -14.2514   19.5008 H   0  0  0  0  0  0
  -28.6930  -12.1077   21.4216 H   0  0  0  0  0  0
  -28.4421  -13.7879   21.8170 H   0  0  0  0  0  0
  -25.2756   -9.5698   22.4776 H   0  0  0  0  0  0
  -23.9999   -7.4644   22.7486 H   0  0  0  0  0  0
  -21.0846   -8.8787   19.8948 H   0  0  0  0  0  0
  -22.3700  -10.9693   19.6176 H   0  0  0  0  0  0
  -21.1996   -7.6147   23.9724 H   0  0  0  0  0  0
  -21.1483   -6.0523   25.9082 H   0  0  0  0  0  0
  -22.0589   -2.7613   23.2840 H   0  0  0  0  0  0
  -22.4060  -11.9870   22.4774 H   0  0  0  0  0  0
  -21.1097  -13.1284   22.2653 H   0  0  0  0  0  0
  -24.6629  -15.8514   20.5178 H   0  0  0  0  0  0
  -26.2759  -15.6255   20.0740 H   0  0  0  0  0  0
  -26.7160  -32.5449   23.1078 H   0  0  0  0  0  0
  -25.0047  -33.9719   25.0397 H   0  0  0  0  0  0
  -22.7097  -31.2976   21.3890 H   0  0  0  0  0  0
  -23.3756  -35.9626   23.3309 H   0  0  0  0  0  0
  -24.3581  -36.8916   22.2052 H   0  0  0  0  0  0
  -23.7267  -37.6500   23.6675 H   0  0  0  0  0  0
  -26.0816  -31.5434   20.5945 H   0  0  0  0  0  0
  -26.8415  -30.8463   21.9955 H   0  0  0  0  0  0
  -28.1098  -28.9770   21.2290 H   0  0  0  0  0  0
  -26.0236  -25.9053   19.0420 H   0  0  0  0  0  0
  -23.9789  -27.2773   19.0371 H   0  0  0  0  0  0
  -23.7552  -30.5776   19.3968 H   0  0  0  0  0  0
  -22.7573  -29.2327   19.8587 H   0  0  0  0  0  0
  -25.1298  -36.1922   25.0824 H   0  0  0  0  0  0
  -20.9984  -28.3253   24.1409 H   0  0  0  0  0  0
  -20.5683  -26.2283   23.3604 H   0  0  0  0  0  0
  -21.6648  -26.7409   22.1206 H   0  0  0  0  0  0
  -19.6925  -25.6279   21.1222 H   0  0  0  0  0  0
  -19.6698  -27.3191   20.6750 H   0  0  0  0  0  0
  -17.4205  -26.6671   21.4015 H   0  0  0  0  0  0
  -18.0326  -26.0027   22.9002 H   0  0  0  0  0  0
  -19.7952  -30.7249   24.2248 H   0  0  0  0  0  0
  -17.5034  -31.6242   24.5159 H   0  0  0  0  0  0
  -15.5374  -30.2963   23.7642 H   0  0  0  0  0  0
  -15.8692  -28.0808   22.7043 H   0  0  0  0  0  0
  -24.5931  -30.6995   25.7760 H   0  0  0  0  0  0
  -24.8846  -32.2849   26.4810 H   0  0  0  0  0  0
  -25.8044  -30.8928   27.0215 H   0  0  0  0  0  0
  -26.2889  -29.6753   24.1162 H   0  0  0  0  0  0
  -27.4079  -29.7259   25.4593 H   0  0  0  0  0  0
  -27.8729  -30.4318   23.9292 H   0  0  0  0  0  0
  -27.2655  -33.3652   26.1989 H   0  0  0  0  0  0
  -28.3869  -32.6834   25.0298 H   0  0  0  0  0  0
  -28.0670  -31.8471   26.5422 H   0  0  0  0  0  0
  -28.2586  -38.0099   24.7501 H   0  0  0  0  0  0
  -28.1079  -36.2629   24.6308 H   0  0  0  0  0  0
  -27.2287  -37.1468   25.8865 H   0  0  0  0  0  0
  -20.9361  -29.8773   21.6906 H   0  0  0  0  0  0
  -26.0174  -38.2845   24.1393 H   0  0  0  0  0  0
  -31.1587  -21.8730   19.5766 H   0  0  0  0  0  0
  -30.5070  -24.2503   19.7927 H   0  0  0  0  0  0
  -26.1376  -20.1747   19.6242 H   0  0  0  0  0  0
  -25.3245  -21.4429   20.5386 H   0  0  0  0  0  0
  -25.1010  -19.7484   20.9836 H   0  0  0  0  0  0
  -27.5091  -20.9295   23.6613 H   0  0  0  0  0  0
  -25.9411  -20.1694   23.4112 H   0  0  0  0  0  0
  -26.1518  -21.8837   23.0694 H   0  0  0  0  0  0
  -28.8295  -25.5387   21.9147 H   0  0  0  0  0  0
  -27.1801  -25.2710   21.4963 H   0  0  0  0  0  0
  -29.1825  -18.3782   21.8473 H   0  0  0  0  0  0
  -28.4306  -18.1613   20.2712 H   0  0  0  0  0  0
  -31.2991  -17.3224   21.0291 H   0  0  0  0  0  0
  -30.6452  -17.1985   19.4189 H   0  0  0  0  0  0
  -27.4262  -19.5598   21.6333 H   0  0  0  0  0  0
  -30.7796  -19.6443   19.8558 H   0  0  0  0  0  0
  -28.9586  -15.6160   21.0281 H   0  0  0  0  0  0
  1 25  1  0  0  0
  1 30  2  0  0  0
  1 84  1  0  0  0
  2  3  1  0  0  0
  2 25  1  0  0  0
  2 85  1  0  0  0
  2 86  1  0  0  0
  3  4  1  0  0  0
  3 87  1  0  0  0
  3 88  1  0  0  0
  4  5  1  0  0  0
  4 89  1  0  0  0
  4 90  1  0  0  0
  5  6  1  0  0  0
  5 26  1  0  0  0
  5 91  1  0  0  0
  6 25  1  0  0  0
  6 92  1  0  0  0
  6 93  1  0  0  0
  7  8  2  0  0  0
  7 26  1  0  0  0
  7 29  1  0  0  0
  8  9  1  0  0  0
  8 22  1  0  0  0
  9 10  1  0  0  0
  9 27  2  0  0  0
 10 11  2  0  0  0
 10 15  1  0  0  0
 11 12  1  0  0  0
 11 94  1  0  0  0
 12 13  2  0  0  0
 12 95  1  0  0  0
 13 14  1  0  0  0
 13 31  1  0  0  0
 14 15  2  0  0  0
 14 96  1  0  0  0
 15 97  1  0  0  0
 16 17  2  0  0  0
 16 21  1  0  0  0
 16 31  1  0  0  0
 17 18  1  0  0  0
 17 98  1  0  0  0
 18 19  2  0  0  0
 18 99  1  0  0  0
 19 20  1  0  0  0
 19 24  1  0  0  0
 20 21  2  0  0  0
 20100  1  0  0  0
 21 23  1  0  0  0
 22 28  1  0  0  0
 22 32  2  0  0  0
 26 27  1  0  0  0
 28101  1  0  0  0
 28102  1  0  0  0
 29103  1  0  0  0
 29104  1  0  0  0
 33 34  1  0  0  0
 33 66  1  0  0  0
 33 70  2  0  0  0
 34 36  1  0  0  0
 34 59  1  0  0  0
 34105  1  0  0  0
 35 44  2  0  0  0
 35 45  1  0  0  0
 35 68  1  0  0  0
 36 56  1  0  0  0
 36106  1  0  0  0
 37 39  1  0  0  0
 37 47  1  0  0  0
 37 66  1  0  0  0
 37107  1  0  0  0
 38 43  2  0  0  0
 38 46  1  0  0  0
 38 47  1  0  0  0
 39 64  1  0  0  0
 39 67  2  0  0  0
 40 52  1  0  0  0
 40 53  2  0  0  0
 40 58  1  0  0  0
 41108  1  0  0  0
 41109  1  0  0  0
 41110  1  0  0  0
 41 48  1  0  0  0
 42 43  1  0  0  0
 42 66  1  0  0  0
 42111  1  0  0  0
 42112  1  0  0  0
 43 44  1  0  0  0
 44113  1  0  0  0
 45 46  2  0  0  0
 45114  1  0  0  0
 46115  1  0  0  0
 47116  1  0  0  0
 47117  1  0  0  0
 48 56  1  0  0  0
 48 65  1  0  0  0
 48118  1  0  0  0
 49 50  1  0  0  0
 49 53  1  0  0  0
 49 64  1  0  0  0
 49119  1  0  0  0
 50 51  1  0  0  0
 50120  1  0  0  0
 50121  1  0  0  0
 51 52  1  0  0  0
 51122  1  0  0  0
 51123  1  0  0  0
 52124  1  0  0  0
 52125  1  0  0  0
 53 54  1  0  0  0
 54 55  2  0  0  0
 54126  1  0  0  0
 55 57  1  0  0  0
 55127  1  0  0  0
 56 69  2  0  0  0
 57 58  2  0  0  0
 57128  1  0  0  0
 58129  1  0  0  0
 59 60  1  0  0  0
 59 61  1  0  0  0
 59 62  1  0  0  0
 60130  1  0  0  0
 60131  1  0  0  0
 60132  1  0  0  0
 61133  1  0  0  0
 61134  1  0  0  0
 61135  1  0  0  0
 62136  1  0  0  0
 62137  1  0  0  0
 62138  1  0  0  0
 63 65  1  0  0  0
 63139  1  0  0  0
 63140  1  0  0  0
 63141  1  0  0  0
 64142  1  0  0  0
 65143  1  0  0  0
 68 78  1  0  0  0
 71 72  2  0  0  0
 71 73  1  0  0  0
 71144  1  0  0  0
 72 74  1  0  0  0
 72145  1  0  0  0
 73 75  2  0  0  0
 73 83  1  0  0  0
 74 78  1  0  0  0
 74 82  2  0  0  0
 75 81  1  0  0  0
 75 82  1  0  0  0
 76146  1  0  0  0
 76147  1  0  0  0
 76148  1  0  0  0
 76 81  1  0  0  0
 77 81  1  0  0  0
 77149  1  0  0  0
 77150  1  0  0  0
 77151  1  0  0  0
 78152  1  0  0  0
 78153  1  0  0  0
 79 80  1  0  0  0
 79 83  1  0  0  0
 79154  1  0  0  0
 79155  1  0  0  0
 80 84  1  0  0  0
 80156  1  0  0  0
 80157  1  0  0  0
 81158  1  0  0  0
 83159  1  0  0  0
 84160  1  0  0  0
M  ISO  4   1 100  68 101  78 101  84 100
M  END
> <chiral flag>
0

> <version>
0

> <s_m_source_file>
/data/baiqing/PycharmProjects/Reinvent-master-3.2/result/LINK_invent/BTK/process_docking_weight1_custom_sum_contain_oxygen_bond_distance_aromatic_linkinvent_7_9_3/rearranged_h_0125.sdf

> <i_m_source_file_index>
77

> <r_mmod_Potential_Energy-OPLS-2005>
-44.7333641052246

> <r_mmod_Stretch_Energy-OPLS-2005>
78.036994934082

> <r_mmod_Bend_Energy-OPLS-2005>
170.805587768555

> <r_mmod_Torsional_Energy-OPLS-2005>
216.217742919922

> <r_mmod_Improper_Torsional_Energy-OPLS-2005>
6.50575542449951

> <r_mmod_Van_der_Waal_Energy-OPLS-2005>
143.987365722656

> <r_mmod_Electrostatic_Energy-OPLS-2005>
-484.808441162109

> <r_mmod_Solvation_Energy-OPLS-2005>
-224.761184692383

> <b_mmod_Minimization_Converged-OPLS-2005>
0

> <r_mmod_RMS_Derivative-OPLS-2005>
2.34292602539062

$$$$
78
                    3D
 Structure written by MMmdl.
152160  0  0  1  0            999 V2000
  -30.5901  -14.7820   20.4435 C   0  0  0  0  0  0
  -30.4360  -12.4764   19.4810 C   0  0  0  0  0  0
  -29.5138  -12.5078   18.2414 C   0  0  0  0  0  0
  -28.0399  -12.3282   18.6551 C   0  0  0  0  0  0
  -27.6391  -13.2344   19.8505 C   0  0  2  0  0  0
  -28.6830  -13.1842   20.9871 C   0  0  0  0  0  0
  -25.2482  -13.8198   20.5697 C   0  0  0  0  0  0
  -24.1783  -13.0432   20.9229 C   0  0  0  0  0  0
  -24.6384  -11.6917   20.8762 C   0  0  0  0  0  0
  -23.9057  -10.4291   21.0412 C   0  0  0  0  0  0
  -24.3609   -9.4207   21.9191 C   0  0  0  0  0  0
  -23.6286   -8.2240   22.0751 C   0  0  0  0  0  0
  -22.4269   -8.0278   21.3541 C   0  0  0  0  0  0
  -21.9907   -9.0248   20.4643 C   0  0  0  0  0  0
  -22.7230  -10.2131   20.3058 C   0  0  0  0  0  0
  -21.6849   -6.0734   22.5282 C   0  0  0  0  0  0
  -21.4019   -6.5638   23.8220 C   0  0  0  0  0  0
  -21.3662   -5.6787   24.9179 C   0  0  0  0  0  0
  -21.6041   -4.3048   24.7226 C   0  0  0  0  0  0
  -21.8825   -3.8142   23.4348 C   0  0  0  0  0  0
  -21.9190   -4.6962   22.3405 C   0  0  0  0  0  0
  -22.7801  -13.5216   21.1873 C   0  0  0  0  0  0
  -22.1657   -4.2152   21.0980 F   0  0  0  0  0  0
  -21.5625   -3.4534   25.7737 F   0  0  0  0  0  0
  -29.9799  -13.5454   20.4033 N   0  0  0  0  0  0
  -26.2918  -12.9414   20.3287 N   0  0  0  0  0  0
  -25.9314  -11.6551   20.5763 N   0  0  0  0  0  0
  -22.0425  -12.8213   22.0421 N   0  0  0  0  0  0
  -25.4120  -15.1928   20.4085 N   0  0  0  0  0  0
  -31.7775  -14.8812   20.1215 O   0  0  0  0  0  0
  -21.6632   -6.8874   21.4240 O   0  0  0  0  0  0
  -22.3501  -14.5523   20.6718 O   0  0  0  0  0  0
  -24.6330  -31.8522   23.1940 C   0  0  0  0  0  0
  -25.9151  -32.4734   23.8296 C   0  0  1  0  0  0
  -27.2213  -27.2364   20.1253 C   0  0  0  0  0  0
  -25.5939  -33.8539   24.2223 N   0  0  0  0  0  0
  -23.4302  -30.4722   21.5381 C   0  0  2  0  0  0
  -24.8762  -28.9124   20.1081 C   0  0  0  0  0  0
  -22.7504  -29.4582   22.4898 C   0  0  0  0  0  0
  -18.0291  -28.1388   22.8480 C   0  0  0  0  0  0
  -24.1483  -36.7272   23.2641 C   0  0  0  0  0  0
  -25.9770  -30.7560   21.3771 C   0  0  0  0  0  0
  -26.0475  -29.3761   20.7183 C   0  0  0  0  0  0
  -27.2179  -28.5493   20.7164 C   0  0  0  0  0  0
  -26.0206  -26.8388   19.4959 C   0  0  0  0  0  0
  -24.8688  -27.6532   19.4877 C   0  0  0  0  0  0
  -23.6478  -29.8019   20.1556 C   0  0  0  0  0  0
  -25.4118  -36.3054   24.0315 C   0  0  1  0  0  0
  -20.5894  -28.3701   23.1266 C   0  0  2  0  0  0
  -20.6771  -26.9414   22.5412 C   0  0  0  0  0  0
  -19.5750  -26.6383   21.5211 C   0  0  0  0  0  0
  -18.1932  -26.7934   22.1620 C   0  0  0  0  0  0
  -19.1545  -28.8864   23.2867 C   0  0  0  0  0  0
  -18.9466  -30.1465   23.8883 C   0  0  0  0  0  0
  -17.6465  -30.6589   24.0563 C   0  0  0  0  0  0
  -25.9062  -34.9427   23.5074 C   0  0  0  0  0  0
  -16.5355  -29.9084   23.6335 C   0  0  0  0  0  0
  -16.7280  -28.6504   23.0354 C   0  0  0  0  0  0
  -26.4506  -31.6586   25.0710 C   0  0  0  0  0  0
  -25.3713  -31.3762   26.1420 C   0  0  0  0  0  0
  -27.0370  -30.3000   24.6236 C   0  0  0  0  0  0
  -27.6044  -32.4347   25.7494 C   0  0  0  0  0  0
  -27.5572  -37.1794   24.8466 C   0  0  0  0  0  0
  -21.4208  -29.3045   22.3654 N   0  0  0  0  0  0
  -26.4288  -37.3763   23.9405 N   0  0  0  0  0  0
  -24.6992  -31.0458   22.0925 N   0  0  0  0  0  0
  -23.4199  -28.8128   23.3006 O   0  0  0  0  0  0
  -28.3340  -26.3602   20.2127 O   0  0  0  0  0  0
  -26.5638  -34.8907   22.4645 O   0  0  0  0  0  0
  -23.5479  -32.1360   23.7222 O   0  0  0  0  0  0
  -28.0898  -22.2304   19.5445 C   0  0  0  0  0  0
  -29.4526  -22.6805   21.0255 C   0  0  0  0  0  0
  -28.2768  -23.5594   20.4152 C   0  0  1  0  0  0
  -28.7123  -21.3163   20.6796 C   0  0  2  0  0  0
  -28.4132  -24.9720   19.6106 C   0  0  0  0  0  0
  -30.1571  -17.3946   20.2924 C   0  0  0  0  0  0
  -29.1465  -18.6406   20.6425 C   0  0  0  0  0  0
  -29.8094  -15.9246   20.6157 N   0  0  0  0  0  0
  -29.5171  -20.0816   20.1979 N   0  3  0  0  0  0
  -27.7373  -22.0077   18.3826 O   0  0  0  0  0  0
  -31.4759  -12.6083   19.1765 H   0  0  0  0  0  0
  -30.3909  -11.5032   19.9727 H   0  0  0  0  0  0
  -29.8025  -11.7270   17.5361 H   0  0  0  0  0  0
  -29.6350  -13.4559   17.7153 H   0  0  0  0  0  0
  -27.9005  -11.2806   18.9247 H   0  0  0  0  0  0
  -27.3832  -12.5128   17.8041 H   0  0  0  0  0  0
  -27.6273  -14.2536   19.4637 H   0  0  0  0  0  0
  -28.7255  -12.1901   21.4344 H   0  0  0  0  0  0
  -28.4144  -13.8720   21.7909 H   0  0  0  0  0  0
  -25.2755   -9.5688   22.4765 H   0  0  0  0  0  0
  -24.0002   -7.4641   22.7479 H   0  0  0  0  0  0
  -21.0836   -8.8761   19.8958 H   0  0  0  0  0  0
  -22.3684  -10.9666   19.6166 H   0  0  0  0  0  0
  -21.2009   -7.6146   23.9727 H   0  0  0  0  0  0
  -21.1477   -6.0512   25.9082 H   0  0  0  0  0  0
  -22.0596   -2.7603   23.2846 H   0  0  0  0  0  0
  -22.4010  -11.9873   22.4827 H   0  0  0  0  0  0
  -21.1044  -13.1259   22.2606 H   0  0  0  0  0  0
  -24.6325  -15.8347   20.5091 H   0  0  0  0  0  0
  -26.2422  -15.6354   20.0379 H   0  0  0  0  0  0
  -26.7210  -32.5360   23.1025 H   0  0  0  0  0  0
  -25.0093  -33.9683   25.0371 H   0  0  0  0  0  0
  -22.7284  -31.2955   21.3883 H   0  0  0  0  0  0
  -23.3752  -35.9599   23.3306 H   0  0  0  0  0  0
  -24.3566  -36.8897   22.2054 H   0  0  0  0  0  0
  -23.7226  -37.6465   23.6676 H   0  0  0  0  0  0
  -26.1192  -31.5156   20.6073 H   0  0  0  0  0  0
  -26.8542  -30.8053   22.0112 H   0  0  0  0  0  0
  -28.1139  -28.8989   21.2099 H   0  0  0  0  0  0
  -25.9278  -25.8695   19.0320 H   0  0  0  0  0  0
  -23.9676  -27.2912   19.0122 H   0  0  0  0  0  0
  -23.7720  -30.5753   19.3967 H   0  0  0  0  0  0
  -22.7648  -29.2352   19.8531 H   0  0  0  0  0  0
  -25.1298  -36.1895   25.0808 H   0  0  0  0  0  0
  -20.9990  -28.3277   24.1384 H   0  0  0  0  0  0
  -20.5657  -26.2307   23.3618 H   0  0  0  0  0  0
  -21.6638  -26.7426   22.1205 H   0  0  0  0  0  0
  -19.6907  -25.6291   21.1245 H   0  0  0  0  0  0
  -19.6684  -27.3186   20.6732 H   0  0  0  0  0  0
  -17.4196  -26.6686   21.4025 H   0  0  0  0  0  0
  -18.0327  -26.0078   22.9014 H   0  0  0  0  0  0
  -19.7944  -30.7294   24.2233 H   0  0  0  0  0  0
  -17.5018  -31.6266   24.5174 H   0  0  0  0  0  0
  -15.5358  -30.2983   23.7674 H   0  0  0  0  0  0
  -15.8676  -28.0827   22.7071 H   0  0  0  0  0  0
  -24.5881  -30.7116   25.7753 H   0  0  0  0  0  0
  -24.8912  -32.2944   26.4817 H   0  0  0  0  0  0
  -25.8008  -30.8957   27.0218 H   0  0  0  0  0  0
  -26.2979  -29.6735   24.1232 H   0  0  0  0  0  0
  -27.4009  -29.7277   25.4780 H   0  0  0  0  0  0
  -27.8861  -30.4270   23.9516 H   0  0  0  0  0  0
  -27.2641  -33.3657   26.2042 H   0  0  0  0  0  0
  -28.3879  -32.6901   25.0346 H   0  0  0  0  0  0
  -28.0690  -31.8498   26.5442 H   0  0  0  0  0  0
  -28.2593  -38.0089   24.7512 H   0  0  0  0  0  0
  -28.1061  -36.2617   24.6295 H   0  0  0  0  0  0
  -27.2287  -37.1441   25.8870 H   0  0  0  0  0  0
  -20.9399  -29.8772   21.6858 H   0  0  0  0  0  0
  -26.0155  -38.2828   24.1426 H   0  0  0  0  0  0
  -29.6056  -22.8374   22.0940 H   0  0  0  0  0  0
  -30.3967  -22.8123   20.4887 H   0  0  0  0  0  0
  -27.4569  -23.6192   21.1316 H   0  0  0  0  0  0
  -27.9749  -21.0483   21.4368 H   0  0  0  0  0  0
  -27.7761  -24.9334   18.7293 H   0  0  0  0  0  0
  -29.4072  -24.9643   19.1636 H   0  0  0  0  0  0
  -31.1168  -17.6029   20.7664 H   0  0  0  0  0  0
  -30.3589  -17.4255   19.2206 H   0  0  0  0  0  0
  -29.0070  -18.6628   21.7239 H   0  0  0  0  0  0
  -28.1631  -18.4214   20.2254 H   0  0  0  0  0  0
  -28.8490  -15.7469   20.8691 H   0  0  0  0  0  0
  -29.5039  -20.1115   19.1902 H   0  0  0  0  0  0
  -30.4706  -20.2378   20.4785 H   0  0  0  0  0  0
  1 25  1  0  0  0
  1 30  2  0  0  0
  1 78  1  0  0  0
  2  3  1  0  0  0
  2 25  1  0  0  0
  2 81  1  0  0  0
  2 82  1  0  0  0
  3  4  1  0  0  0
  3 83  1  0  0  0
  3 84  1  0  0  0
  4  5  1  0  0  0
  4 85  1  0  0  0
  4 86  1  0  0  0
  5  6  1  0  0  0
  5 26  1  0  0  0
  5 87  1  0  0  0
  6 25  1  0  0  0
  6 88  1  0  0  0
  6 89  1  0  0  0
  7  8  2  0  0  0
  7 26  1  0  0  0
  7 29  1  0  0  0
  8  9  1  0  0  0
  8 22  1  0  0  0
  9 10  1  0  0  0
  9 27  2  0  0  0
 10 11  2  0  0  0
 10 15  1  0  0  0
 11 12  1  0  0  0
 11 90  1  0  0  0
 12 13  2  0  0  0
 12 91  1  0  0  0
 13 14  1  0  0  0
 13 31  1  0  0  0
 14 15  2  0  0  0
 14 92  1  0  0  0
 15 93  1  0  0  0
 16 17  2  0  0  0
 16 21  1  0  0  0
 16 31  1  0  0  0
 17 18  1  0  0  0
 17 94  1  0  0  0
 18 19  2  0  0  0
 18 95  1  0  0  0
 19 20  1  0  0  0
 19 24  1  0  0  0
 20 21  2  0  0  0
 20 96  1  0  0  0
 21 23  1  0  0  0
 22 28  1  0  0  0
 22 32  2  0  0  0
 26 27  1  0  0  0
 28 97  1  0  0  0
 28 98  1  0  0  0
 29 99  1  0  0  0
 29100  1  0  0  0
 33 34  1  0  0  0
 33 66  1  0  0  0
 33 70  2  0  0  0
 34 36  1  0  0  0
 34 59  1  0  0  0
 34101  1  0  0  0
 35 44  2  0  0  0
 35 45  1  0  0  0
 35 68  1  0  0  0
 36 56  1  0  0  0
 36102  1  0  0  0
 37 39  1  0  0  0
 37 47  1  0  0  0
 37 66  1  0  0  0
 37103  1  0  0  0
 38 43  2  0  0  0
 38 46  1  0  0  0
 38 47  1  0  0  0
 39 64  1  0  0  0
 39 67  2  0  0  0
 40 52  1  0  0  0
 40 53  2  0  0  0
 40 58  1  0  0  0
 41104  1  0  0  0
 41105  1  0  0  0
 41106  1  0  0  0
 41 48  1  0  0  0
 42 43  1  0  0  0
 42 66  1  0  0  0
 42107  1  0  0  0
 42108  1  0  0  0
 43 44  1  0  0  0
 44109  1  0  0  0
 45 46  2  0  0  0
 45110  1  0  0  0
 46111  1  0  0  0
 47112  1  0  0  0
 47113  1  0  0  0
 48 56  1  0  0  0
 48 65  1  0  0  0
 48114  1  0  0  0
 49 50  1  0  0  0
 49 53  1  0  0  0
 49 64  1  0  0  0
 49115  1  0  0  0
 50 51  1  0  0  0
 50116  1  0  0  0
 50117  1  0  0  0
 51 52  1  0  0  0
 51118  1  0  0  0
 51119  1  0  0  0
 52120  1  0  0  0
 52121  1  0  0  0
 53 54  1  0  0  0
 54 55  2  0  0  0
 54122  1  0  0  0
 55 57  1  0  0  0
 55123  1  0  0  0
 56 69  2  0  0  0
 57 58  2  0  0  0
 57124  1  0  0  0
 58125  1  0  0  0
 59 60  1  0  0  0
 59 61  1  0  0  0
 59 62  1  0  0  0
 60126  1  0  0  0
 60127  1  0  0  0
 60128  1  0  0  0
 61129  1  0  0  0
 61130  1  0  0  0
 61131  1  0  0  0
 62132  1  0  0  0
 62133  1  0  0  0
 62134  1  0  0  0
 63 65  1  0  0  0
 63135  1  0  0  0
 63136  1  0  0  0
 63137  1  0  0  0
 64138  1  0  0  0
 65139  1  0  0  0
 68 75  1  0  0  0
 71 73  1  0  0  0
 71 74  1  0  0  0
 71 80  2  0  0  0
 72 73  1  0  0  0
 72 74  1  0  0  0
 72140  1  0  0  0
 72141  1  0  0  0
 73 75  1  0  0  0
 73142  1  0  0  0
 74 79  1  0  0  0
 74143  1  0  0  0
 75144  1  0  0  0
 75145  1  0  0  0
 76 77  1  0  0  0
 76 78  1  0  0  0
 76146  1  0  0  0
 76147  1  0  0  0
 77 79  1  0  0  0
 77148  1  0  0  0
 77149  1  0  0  0
 78150  1  0  0  0
 79151  1  0  0  0
 79152  1  0  0  0
M  CHG  1  79   1
M  ISO  4   1 100  68 101  75 101  78 100
M  END
> <chiral flag>
0

> <version>
0

> <s_m_source_file>
/data/baiqing/PycharmProjects/Reinvent-master-3.2/result/LINK_invent/BTK/process_docking_weight1_custom_sum_contain_oxygen_bond_distance_aromatic_linkinvent_7_9_3/rearranged_h_0125.sdf

> <i_m_source_file_index>
78

> <r_mmod_Potential_Energy-OPLS-2005>
-69.1419372558594

> <r_mmod_Stretch_Energy-OPLS-2005>
140.710052490234

> <r_mmod_Bend_Energy-OPLS-2005>
225.585861206055

> <r_mmod_Torsional_Energy-OPLS-2005>
222.185119628906

> <r_mmod_Improper_Torsional_Energy-OPLS-2005>
6.88351488113403

> <r_mmod_Van_der_Waal_Energy-OPLS-2005>
116.711502075195

> <r_mmod_Electrostatic_Energy-OPLS-2005>
-358.116027832031

> <r_mmod_Solvation_Energy-OPLS-2005>
-523.395751953125

> <b_mmod_Minimization_Converged-OPLS-2005>
0

> <r_mmod_RMS_Derivative-OPLS-2005>
1.12969076633453

$$$$
79
                    3D
 Structure written by MMmdl.
169177  0  0  1  0            999 V2000
  -30.6621  -14.5143   20.5071 C   0  0  0  0  0  0
  -30.4264  -12.3202   19.4208 C   0  0  0  0  0  0
  -29.4950  -12.5067   18.2042 C   0  0  0  0  0  0
  -28.0193  -12.3513   18.6228 C   0  0  0  0  0  0
  -27.6596  -13.1986   19.8722 C   0  0  2  0  0  0
  -28.7060  -13.0028   20.9945 C   0  0  0  0  0  0
  -25.2593  -13.8113   20.5681 C   0  0  0  0  0  0
  -24.1831  -13.0415   20.9169 C   0  0  0  0  0  0
  -24.6394  -11.6878   20.8749 C   0  0  0  0  0  0
  -23.9052  -10.4283   21.0418 C   0  0  0  0  0  0
  -24.3621   -9.4206   21.9210 C   0  0  0  0  0  0
  -23.6319   -8.2232   22.0774 C   0  0  0  0  0  0
  -22.4286   -8.0276   21.3539 C   0  0  0  0  0  0
  -21.9918   -9.0236   20.4639 C   0  0  0  0  0  0
  -22.7226  -10.2139   20.3068 C   0  0  0  0  0  0
  -21.6836   -6.0758   22.5295 C   0  0  0  0  0  0
  -21.3985   -6.5649   23.8243 C   0  0  0  0  0  0
  -21.3658   -5.6790   24.9200 C   0  0  0  0  0  0
  -21.6059   -4.3060   24.7238 C   0  0  0  0  0  0
  -21.8821   -3.8160   23.4347 C   0  0  0  0  0  0
  -21.9190   -4.6981   22.3407 C   0  0  0  0  0  0
  -22.7871  -13.5238   21.1817 C   0  0  0  0  0  0
  -22.1667   -4.2171   21.0979 F   0  0  0  0  0  0
  -21.5643   -3.4558   25.7751 F   0  0  0  0  0  0
  -30.0337  -13.3091   20.4388 N   0  0  0  0  0  0
  -26.3023  -12.9276   20.3359 N   0  0  0  0  0  0
  -25.9320  -11.6445   20.5763 N   0  0  0  0  0  0
  -22.0467  -12.8291   22.0369 N   0  0  0  0  0  0
  -25.4265  -15.1852   20.4113 N   0  0  0  0  0  0
  -31.8093  -14.6946   20.0910 O   0  0  0  0  0  0
  -21.6620   -6.8894   21.4254 O   0  0  0  0  0  0
  -22.3595  -14.5546   20.6641 O   0  0  0  0  0  0
  -24.6142  -31.8676   23.2089 C   0  0  0  0  0  0
  -25.9058  -32.4813   23.8378 C   0  0  1  0  0  0
  -27.2215  -27.4070   20.1350 C   0  0  0  0  0  0
  -25.5924  -33.8614   24.2315 N   0  0  0  0  0  0
  -23.4031  -30.4887   21.5496 C   0  0  2  0  0  0
  -24.8513  -28.9505   20.1131 C   0  0  0  0  0  0
  -22.7410  -29.4663   22.5011 C   0  0  0  0  0  0
  -18.0276  -28.1372   22.8494 C   0  0  0  0  0  0
  -24.1490  -36.7313   23.2642 C   0  0  0  0  0  0
  -25.9305  -30.8253   21.3676 C   0  0  0  0  0  0
  -26.0067  -29.4543   20.7253 C   0  0  0  0  0  0
  -27.1953  -28.6868   20.7445 C   0  0  0  0  0  0
  -26.0627  -26.9326   19.4940 C   0  0  0  0  0  0
  -24.8742  -27.6887   19.4934 C   0  0  0  0  0  0
  -23.6109  -29.8151   20.1650 C   0  0  0  0  0  0
  -25.4112  -36.3101   24.0335 C   0  0  1  0  0  0
  -20.5860  -28.3661   23.1322 C   0  0  2  0  0  0
  -20.6772  -26.9402   22.5416 C   0  0  0  0  0  0
  -19.5754  -26.6379   21.5214 C   0  0  0  0  0  0
  -18.1926  -26.7921   22.1619 C   0  0  0  0  0  0
  -19.1523  -28.8835   23.2904 C   0  0  0  0  0  0
  -18.9456  -30.1447   23.8896 C   0  0  0  0  0  0
  -17.6460  -30.6586   24.0553 C   0  0  0  0  0  0
  -25.9040  -34.9471   23.5120 C   0  0  0  0  0  0
  -16.5349  -29.9073   23.6341 C   0  0  0  0  0  0
  -16.7266  -28.6496   23.0356 C   0  0  0  0  0  0
  -26.4482  -31.6594   25.0706 C   0  0  0  0  0  0
  -25.3736  -31.3734   26.1454 C   0  0  0  0  0  0
  -27.0322  -30.3022   24.6114 C   0  0  0  0  0  0
  -27.6044  -32.4326   25.7484 C   0  0  0  0  0  0
  -27.5587  -37.1805   24.8463 C   0  0  0  0  0  0
  -21.4138  -29.3032   22.3740 N   0  0  0  0  0  0
  -26.4294  -37.3784   23.9414 N   0  0  0  0  0  0
  -24.6671  -31.0748   22.1010 N   0  0  0  0  0  0
  -23.4173  -28.8240   23.3085 O   0  0  0  0  0  0
  -28.3270  -26.5832   20.1241 O   0  0  0  0  0  0
  -26.5591  -34.8928   22.4671 O   0  0  0  0  0  0
  -23.5324  -32.1467   23.7461 O   0  0  0  0  0  0
  -30.0869  -23.2283   19.2594 C   0  0  0  0  0  0
  -29.8596  -22.2000   18.1490 C   0  0  0  0  0  0
  -28.7869  -21.3823   20.5306 C   0  0  0  0  0  0
  -29.4667  -22.7894   20.5979 C   0  0  2  0  0  0
  -30.3415  -20.8158   18.6240 C   0  0  2  0  0  0
  -30.3254  -19.8008   17.4693 C   0  0  0  0  0  0
  -28.7957  -16.9141   19.0904 C   0  0  0  0  0  0
  -29.7620  -18.0839   21.1494 C   0  0  0  0  0  0
  -30.4117  -19.4355   20.7075 C   0  0  0  0  0  0
  -28.9352  -26.3028   21.3941 C   0  0  0  0  0  0
  -28.9439  -24.8133   21.8609 C   0  0  0  0  0  0
  -29.9085  -16.8916   20.1516 C   0  0  1  0  0  0
  -29.8516  -15.5589   20.7969 N   0  0  0  0  0  0
  -29.5802  -20.3155   19.8168 N   0  3  1  0  0  0
  -28.5028  -23.8057   20.9340 O   0  0  0  0  0  0
  -31.4687  -12.4245   19.1131 H   0  0  0  0  0  0
  -30.3357  -11.3081   19.8191 H   0  0  0  0  0  0
  -29.7419  -11.7876   17.4222 H   0  0  0  0  0  0
  -29.6491  -13.4940   17.7659 H   0  0  0  0  0  0
  -27.8435  -11.2946   18.8322 H   0  0  0  0  0  0
  -27.3645  -12.6023   17.7893 H   0  0  0  0  0  0
  -27.6919  -14.2394   19.5588 H   0  0  0  0  0  0
  -28.6919  -11.9713   21.3500 H   0  0  0  0  0  0
  -28.4703  -13.6191   21.8618 H   0  0  0  0  0  0
  -25.2767   -9.5717   22.4802 H   0  0  0  0  0  0
  -24.0042   -7.4619   22.7498 H   0  0  0  0  0  0
  -21.0847   -8.8711   19.8948 H   0  0  0  0  0  0
  -22.3643  -10.9674   19.6184 H   0  0  0  0  0  0
  -21.1944   -7.6154   23.9748 H   0  0  0  0  0  0
  -21.1487   -6.0519   25.9096 H   0  0  0  0  0  0
  -22.0603   -2.7626   23.2833 H   0  0  0  0  0  0
  -22.4026  -11.9989   22.4857 H   0  0  0  0  0  0
  -21.1068  -13.1349   22.2427 H   0  0  0  0  0  0
  -24.6430  -15.8237   20.4998 H   0  0  0  0  0  0
  -26.2704  -15.6312   20.0787 H   0  0  0  0  0  0
  -26.7136  -32.5508   23.1152 H   0  0  0  0  0  0
  -25.0093  -33.9779   25.0474 H   0  0  0  0  0  0
  -22.6918  -31.3051   21.4078 H   0  0  0  0  0  0
  -23.3742  -35.9653   23.3300 H   0  0  0  0  0  0
  -24.3590  -36.8931   22.2057 H   0  0  0  0  0  0
  -23.7251  -37.6525   23.6654 H   0  0  0  0  0  0
  -26.0429  -31.5851   20.5929 H   0  0  0  0  0  0
  -26.8184  -30.8808   21.9867 H   0  0  0  0  0  0
  -28.0794  -29.0682   21.2355 H   0  0  0  0  0  0
  -26.0712  -25.9599   19.0189 H   0  0  0  0  0  0
  -23.9873  -27.2916   19.0194 H   0  0  0  0  0  0
  -23.7044  -30.5846   19.3972 H   0  0  0  0  0  0
  -22.7359  -29.2258   19.8811 H   0  0  0  0  0  0
  -25.1286  -36.1969   25.0821 H   0  0  0  0  0  0
  -20.9933  -28.3215   24.1454 H   0  0  0  0  0  0
  -20.5693  -26.2263   23.3596 H   0  0  0  0  0  0
  -21.6642  -26.7462   22.1202 H   0  0  0  0  0  0
  -19.6916  -25.6291   21.1243 H   0  0  0  0  0  0
  -19.6693  -27.3188   20.6740 H   0  0  0  0  0  0
  -17.4204  -26.6685   21.4010 H   0  0  0  0  0  0
  -18.0317  -26.0046   22.8996 H   0  0  0  0  0  0
  -19.7933  -30.7266   24.2247 H   0  0  0  0  0  0
  -17.5019  -31.6266   24.5150 H   0  0  0  0  0  0
  -15.5353  -30.2974   23.7667 H   0  0  0  0  0  0
  -15.8670  -28.0815   22.7064 H   0  0  0  0  0  0
  -24.5874  -30.7131   25.7805 H   0  0  0  0  0  0
  -24.8969  -32.2891   26.4933 H   0  0  0  0  0  0
  -25.8054  -30.8871   27.0204 H   0  0  0  0  0  0
  -26.2875  -29.6783   24.1152 H   0  0  0  0  0  0
  -27.4069  -29.7284   25.4609 H   0  0  0  0  0  0
  -27.8723  -30.4362   23.9298 H   0  0  0  0  0  0
  -27.2652  -33.3621   26.2086 H   0  0  0  0  0  0
  -28.3834  -32.6903   25.0293 H   0  0  0  0  0  0
  -28.0729  -31.8431   26.5383 H   0  0  0  0  0  0
  -28.2589  -38.0119   24.7513 H   0  0  0  0  0  0
  -28.1088  -36.2640   24.6259 H   0  0  0  0  0  0
  -27.2303  -37.1437   25.8867 H   0  0  0  0  0  0
  -20.9318  -29.8717   21.6926 H   0  0  0  0  0  0
  -26.0178  -38.2867   24.1389 H   0  0  0  0  0  0
  -29.7045  -24.2017   18.9462 H   0  0  0  0  0  0
  -31.1611  -23.3662   19.4027 H   0  0  0  0  0  0
  -30.4140  -22.5059   17.2598 H   0  0  0  0  0  0
  -28.8063  -22.1772   17.8597 H   0  0  0  0  0  0
  -27.8428  -21.4923   19.9994 H   0  0  0  0  0  0
  -28.5163  -21.0452   21.5307 H   0  0  0  0  0  0
  -30.2575  -22.7110   21.3468 H   0  0  0  0  0  0
  -31.3844  -20.9541   18.9210 H   0  0  0  0  0  0
  -29.3209  -19.6567   17.0722 H   0  0  0  0  0  0
  -30.7104  -18.8308   17.7790 H   0  0  0  0  0  0
  -30.9550  -20.1392   16.6472 H   0  0  0  0  0  0
  -28.7150  -17.8681   18.5807 H   0  0  0  0  0  0
  -27.8231  -16.7158   19.5399 H   0  0  0  0  0  0
  -28.9593  -16.1533   18.3258 H   0  0  0  0  0  0
  -28.7204  -18.2346   21.4362 H   0  0  0  0  0  0
  -30.2749  -17.7957   22.0653 H   0  0  0  0  0  0
  -31.3651  -19.1931   20.2337 H   0  0  0  0  0  0
  -30.6904  -20.0093   21.5913 H   0  0  0  0  0  0
  -29.9643  -26.6556   21.3330 H   0  0  0  0  0  0
  -28.4820  -26.8873   22.1978 H   0  0  0  0  0  0
  -28.2896  -24.7232   22.7292 H   0  0  0  0  0  0
  -29.9381  -24.5978   22.2544 H   0  0  0  0  0  0
  -30.8682  -16.9976   19.6413 H   0  0  0  0  0  0
  -28.9595  -15.3006   21.1920 H   0  0  0  0  0  0
  -28.8753  -19.7059   19.4336 H   0  0  0  0  0  0
  1 25  1  0  0  0
  1 30  2  0  0  0
  1 83  1  0  0  0
  2  3  1  0  0  0
  2 25  1  0  0  0
  2 86  1  0  0  0
  2 87  1  0  0  0
  3  4  1  0  0  0
  3 88  1  0  0  0
  3 89  1  0  0  0
  4  5  1  0  0  0
  4 90  1  0  0  0
  4 91  1  0  0  0
  5  6  1  0  0  0
  5 26  1  0  0  0
  5 92  1  0  0  0
  6 25  1  0  0  0
  6 93  1  0  0  0
  6 94  1  0  0  0
  7  8  2  0  0  0
  7 26  1  0  0  0
  7 29  1  0  0  0
  8  9  1  0  0  0
  8 22  1  0  0  0
  9 10  1  0  0  0
  9 27  2  0  0  0
 10 11  2  0  0  0
 10 15  1  0  0  0
 11 12  1  0  0  0
 11 95  1  0  0  0
 12 13  2  0  0  0
 12 96  1  0  0  0
 13 14  1  0  0  0
 13 31  1  0  0  0
 14 15  2  0  0  0
 14 97  1  0  0  0
 15 98  1  0  0  0
 16 17  2  0  0  0
 16 21  1  0  0  0
 16 31  1  0  0  0
 17 18  1  0  0  0
 17 99  1  0  0  0
 18 19  2  0  0  0
 18100  1  0  0  0
 19 20  1  0  0  0
 19 24  1  0  0  0
 20 21  2  0  0  0
 20101  1  0  0  0
 21 23  1  0  0  0
 22 28  1  0  0  0
 22 32  2  0  0  0
 26 27  1  0  0  0
 28102  1  0  0  0
 28103  1  0  0  0
 29104  1  0  0  0
 29105  1  0  0  0
 33 34  1  0  0  0
 33 66  1  0  0  0
 33 70  2  0  0  0
 34 36  1  0  0  0
 34 59  1  0  0  0
 34106  1  0  0  0
 35 44  2  0  0  0
 35 45  1  0  0  0
 35 68  1  0  0  0
 36 56  1  0  0  0
 36107  1  0  0  0
 37 39  1  0  0  0
 37 47  1  0  0  0
 37 66  1  0  0  0
 37108  1  0  0  0
 38 43  2  0  0  0
 38 46  1  0  0  0
 38 47  1  0  0  0
 39 64  1  0  0  0
 39 67  2  0  0  0
 40 52  1  0  0  0
 40 53  2  0  0  0
 40 58  1  0  0  0
 41109  1  0  0  0
 41110  1  0  0  0
 41111  1  0  0  0
 41 48  1  0  0  0
 42 43  1  0  0  0
 42 66  1  0  0  0
 42112  1  0  0  0
 42113  1  0  0  0
 43 44  1  0  0  0
 44114  1  0  0  0
 45 46  2  0  0  0
 45115  1  0  0  0
 46116  1  0  0  0
 47117  1  0  0  0
 47118  1  0  0  0
 48 56  1  0  0  0
 48 65  1  0  0  0
 48119  1  0  0  0
 49 50  1  0  0  0
 49 53  1  0  0  0
 49 64  1  0  0  0
 49120  1  0  0  0
 50 51  1  0  0  0
 50121  1  0  0  0
 50122  1  0  0  0
 51 52  1  0  0  0
 51123  1  0  0  0
 51124  1  0  0  0
 52125  1  0  0  0
 52126  1  0  0  0
 53 54  1  0  0  0
 54 55  2  0  0  0
 54127  1  0  0  0
 55 57  1  0  0  0
 55128  1  0  0  0
 56 69  2  0  0  0
 57 58  2  0  0  0
 57129  1  0  0  0
 58130  1  0  0  0
 59 60  1  0  0  0
 59 61  1  0  0  0
 59 62  1  0  0  0
 60131  1  0  0  0
 60132  1  0  0  0
 60133  1  0  0  0
 61134  1  0  0  0
 61135  1  0  0  0
 61136  1  0  0  0
 62137  1  0  0  0
 62138  1  0  0  0
 62139  1  0  0  0
 63 65  1  0  0  0
 63140  1  0  0  0
 63141  1  0  0  0
 63142  1  0  0  0
 64143  1  0  0  0
 65144  1  0  0  0
 68 80  1  0  0  0
 71 72  1  0  0  0
 71 74  1  0  0  0
 71145  1  0  0  0
 71146  1  0  0  0
 72 75  1  0  0  0
 72147  1  0  0  0
 72148  1  0  0  0
 73 74  1  0  0  0
 73 84  1  0  0  0
 73149  1  0  0  0
 73150  1  0  0  0
 74 85  1  0  0  0
 74151  1  0  0  0
 75 76  1  0  0  0
 75 84  1  0  0  0
 75152  1  0  0  0
 76153  1  0  0  0
 76154  1  0  0  0
 76155  1  0  0  0
 77156  1  0  0  0
 77157  1  0  0  0
 77158  1  0  0  0
 77 82  1  0  0  0
 78 79  1  0  0  0
 78 82  1  0  0  0
 78159  1  0  0  0
 78160  1  0  0  0
 79161  1  0  0  0
 79162  1  0  0  0
 79 84  1  0  0  0
 80 81  1  0  0  0
 80163  1  0  0  0
 80164  1  0  0  0
 81 85  1  0  0  0
 81165  1  0  0  0
 81166  1  0  0  0
 82 83  1  0  0  0
 82167  1  0  0  0
 83168  1  0  0  0
 84169  1  0  0  0
M  CHG  1  84   1
M  ISO  4   1 100  68 101  80 101  83 100
M  END
> <chiral flag>
0

> <version>
0

> <s_m_source_file>
/data/baiqing/PycharmProjects/Reinvent-master-3.2/result/LINK_invent/BTK/process_docking_weight1_custom_sum_contain_oxygen_bond_distance_aromatic_linkinvent_7_9_3/rearranged_h_0125.sdf

> <i_m_source_file_index>
79

> <r_mmod_Potential_Energy-OPLS-2005>
20.6701717376709

> <r_mmod_Stretch_Energy-OPLS-2005>
46.1798973083496

> <r_mmod_Bend_Energy-OPLS-2005>
122.396255493164

> <r_mmod_Torsional_Energy-OPLS-2005>
340.31298828125

> <r_mmod_Improper_Torsional_Energy-OPLS-2005>
8.34931945800781

> <r_mmod_Van_der_Waal_Energy-OPLS-2005>
133.583190917969

> <r_mmod_Electrostatic_Energy-OPLS-2005>
-227.841094970703

> <r_mmod_Solvation_Energy-OPLS-2005>
-422.84033203125

> <b_mmod_Minimization_Converged-OPLS-2005>
0

> <r_mmod_RMS_Derivative-OPLS-2005>
3.82750487327576

$$$$
80
                    3D
 Structure written by MMmdl.
173182  0  0  1  0            999 V2000
  -30.6132  -14.7119   20.4469 C   0  0  0  0  0  0
  -30.4371  -12.4267   19.4549 C   0  0  0  0  0  0
  -29.5124  -12.4902   18.2213 C   0  0  0  0  0  0
  -28.0390  -12.3192   18.6413 C   0  0  0  0  0  0
  -27.6477  -13.2234   19.8410 C   0  0  2  0  0  0
  -28.6940  -13.1445   20.9742 C   0  0  0  0  0  0
  -25.2599  -13.8184   20.5668 C   0  0  0  0  0  0
  -24.1897  -13.0430   20.9195 C   0  0  0  0  0  0
  -24.6484  -11.6903   20.8743 C   0  0  0  0  0  0
  -23.9156  -10.4282   21.0407 C   0  0  0  0  0  0
  -24.3687   -9.4177   21.9181 C   0  0  0  0  0  0
  -23.6335   -8.2233   22.0765 C   0  0  0  0  0  0
  -22.4304   -8.0302   21.3565 C   0  0  0  0  0  0
  -21.9959   -9.0284   20.4668 C   0  0  0  0  0  0
  -22.7324  -10.2142   20.3058 C   0  0  0  0  0  0
  -21.6869   -6.0762   22.5288 C   0  0  0  0  0  0
  -21.4025   -6.5657   23.8221 C   0  0  0  0  0  0
  -21.3643   -5.6796   24.9173 C   0  0  0  0  0  0
  -21.6040   -4.3060   24.7219 C   0  0  0  0  0  0
  -21.8828   -3.8166   23.4333 C   0  0  0  0  0  0
  -21.9205   -4.6995   22.3395 C   0  0  0  0  0  0
  -22.7912  -13.5214   21.1832 C   0  0  0  0  0  0
  -22.1660   -4.2182   21.0969 F   0  0  0  0  0  0
  -21.5610   -3.4539   25.7722 F   0  0  0  0  0  0
  -29.9957  -13.4857   20.3910 N   0  0  0  0  0  0
  -26.3011  -12.9384   20.3232 N   0  0  0  0  0  0
  -25.9408  -11.6525   20.5733 N   0  0  0  0  0  0
  -22.0566  -12.8201   22.0381 N   0  0  0  0  0  0
  -25.4281  -15.1915   20.4043 N   0  0  0  0  0  0
  -31.8000  -14.8241   20.1351 O   0  0  0  0  0  0
  -21.6646   -6.8908   21.4255 O   0  0  0  0  0  0
  -22.3571  -14.5499   20.6662 O   0  0  0  0  0  0
  -24.6251  -31.8559   23.2016 C   0  0  0  0  0  0
  -25.9097  -32.4741   23.8332 C   0  0  1  0  0  0
  -27.2146  -27.3012   20.1147 C   0  0  0  0  0  0
  -25.5911  -33.8539   24.2269 N   0  0  0  0  0  0
  -23.4168  -30.4827   21.5443 C   0  0  2  0  0  0
  -24.8611  -28.9260   20.1157 C   0  0  0  0  0  0
  -22.7441  -29.4625   22.4939 C   0  0  0  0  0  0
  -18.0273  -28.1352   22.8494 C   0  0  0  0  0  0
  -24.1480  -36.7298   23.2649 C   0  0  0  0  0  0
  -25.9592  -30.7788   21.3730 C   0  0  0  0  0  0
  -26.0319  -29.4039   20.7183 C   0  0  0  0  0  0
  -27.2160  -28.6051   20.7038 C   0  0  0  0  0  0
  -26.0234  -26.8770   19.4940 C   0  0  0  0  0  0
  -24.8586  -27.6682   19.4930 C   0  0  0  0  0  0
  -23.6340  -29.8138   20.1614 C   0  0  0  0  0  0
  -25.4103  -36.3070   24.0337 C   0  0  1  0  0  0
  -20.5867  -28.3667   23.1278 C   0  0  2  0  0  0
  -20.6768  -26.9394   22.5410 C   0  0  0  0  0  0
  -19.5757  -26.6373   21.5197 C   0  0  0  0  0  0
  -18.1929  -26.7898   22.1604 C   0  0  0  0  0  0
  -19.1524  -28.8824   23.2884 C   0  0  0  0  0  0
  -18.9461  -30.1417   23.8916 C   0  0  0  0  0  0
  -17.6472  -30.6576   24.0552 C   0  0  0  0  0  0
  -25.9038  -34.9426   23.5109 C   0  0  0  0  0  0
  -16.5353  -29.9080   23.6321 C   0  0  0  0  0  0
  -16.7264  -28.6467   23.0382 C   0  0  0  0  0  0
  -26.4487  -31.6544   25.0699 C   0  0  0  0  0  0
  -25.3748  -31.3675   26.1461 C   0  0  0  0  0  0
  -27.0346  -30.2983   24.6123 C   0  0  0  0  0  0
  -27.6064  -32.4255   25.7450 C   0  0  0  0  0  0
  -27.5570  -37.1808   24.8468 C   0  0  0  0  0  0
  -21.4155  -29.3037   22.3682 N   0  0  0  0  0  0
  -26.4280  -37.3767   23.9407 N   0  0  0  0  0  0
  -24.6863  -31.0563   22.0976 N   0  0  0  0  0  0
  -23.4168  -28.8170   23.3024 O   0  0  0  0  0  0
  -28.3311  -26.4519   20.1024 O   0  0  0  0  0  0
  -26.5616  -34.8908   22.4682 O   0  0  0  0  0  0
  -23.5413  -32.1355   23.7367 O   0  0  0  0  0  0
  -28.5271  -21.0776   20.0448 C   0  0  0  0  0  0
  -29.1011  -22.4119   20.0944 C   0  0  0  0  0  0
  -29.4225  -20.0752   20.4301 C   0  0  0  0  0  0
  -30.3441  -22.1881   20.6311 C   0  0  0  0  0  0
  -32.2211  -19.9589   22.4564 C   0  0  0  0  0  0
  -33.1081  -20.6936   20.1357 C   0  0  0  0  0  0
  -33.0317  -21.1194   23.0627 C   0  0  0  0  0  0
  -34.4015  -20.7847   20.9711 C   0  0  0  0  0  0
  -31.9119  -20.1538   20.9573 C   0  0  0  0  0  0
  -31.2900  -23.2795   21.0586 C   0  0  0  0  0  0
  -27.5062  -23.6104   18.4783 C   0  0  0  0  0  0
  -29.1617  -18.5036   20.6245 C   0  0  0  0  0  0
  -30.2448  -17.2975   20.4802 C   0  0  0  0  0  0
  -28.1878  -25.0326   20.5462 C   0  0  0  0  0  0
  -28.5786  -23.8253   19.5559 C   0  0  1  0  0  0
  -30.6121  -20.7916   20.6812 N   0  0  0  0  0  0
  -29.8278  -15.8368   20.6333 N   0  0  0  0  0  0
  -34.2068  -21.5205   22.2446 N   0  3  0  0  0  0
  -31.4782  -12.5444   19.1472 H   0  0  0  0  0  0
  -30.3730  -11.4450   19.9244 H   0  0  0  0  0  0
  -29.7863  -11.7148   17.5040 H   0  0  0  0  0  0
  -29.6497  -13.4438   17.7098 H   0  0  0  0  0  0
  -27.9016  -11.2716   18.9141 H   0  0  0  0  0  0
  -27.3814  -12.4922   17.7885 H   0  0  0  0  0  0
  -27.6439  -14.2445   19.4582 H   0  0  0  0  0  0
  -28.7247  -12.1421   21.4014 H   0  0  0  0  0  0
  -28.4422  -13.8220   21.7911 H   0  0  0  0  0  0
  -25.2843   -9.5638   22.4748 H   0  0  0  0  0  0
  -24.0046   -7.4621   22.7491 H   0  0  0  0  0  0
  -21.0890   -8.8826   19.8967 H   0  0  0  0  0  0
  -22.3810  -10.9693   19.6161 H   0  0  0  0  0  0
  -21.2011   -7.6160   23.9737 H   0  0  0  0  0  0
  -21.1450   -6.0513   25.9077 H   0  0  0  0  0  0
  -22.0627   -2.7636   23.2824 H   0  0  0  0  0  0
  -22.4175  -11.9851   22.4745 H   0  0  0  0  0  0
  -21.1187  -13.1225   22.2575 H   0  0  0  0  0  0
  -24.6596  -15.8424   20.5264 H   0  0  0  0  0  0
  -26.2598  -15.6311   20.0333 H   0  0  0  0  0  0
  -26.7131  -32.5387   23.1043 H   0  0  0  0  0  0
  -25.0060  -33.9641   25.0421 H   0  0  0  0  0  0
  -22.7095  -31.3033   21.3979 H   0  0  0  0  0  0
  -23.3734  -35.9635   23.3289 H   0  0  0  0  0  0
  -24.3592  -36.8949   22.2073 H   0  0  0  0  0  0
  -23.7220  -37.6493   23.6678 H   0  0  0  0  0  0
  -26.0858  -31.5353   20.5977 H   0  0  0  0  0  0
  -26.8420  -30.8295   21.9988 H   0  0  0  0  0  0
  -28.1175  -28.9697   21.1763 H   0  0  0  0  0  0
  -25.9833  -25.9184   19.0019 H   0  0  0  0  0  0
  -23.9629  -27.2975   19.0128 H   0  0  0  0  0  0
  -23.7599  -30.5866   19.4022 H   0  0  0  0  0  0
  -22.7510  -29.2517   19.8544 H   0  0  0  0  0  0
  -25.1273  -36.1927   25.0825 H   0  0  0  0  0  0
  -20.9943  -28.3242   24.1404 H   0  0  0  0  0  0
  -20.5635  -26.2291   23.3617 H   0  0  0  0  0  0
  -21.6649  -26.7423   22.1230 H   0  0  0  0  0  0
  -19.6934  -25.6285   21.1225 H   0  0  0  0  0  0
  -19.6689  -27.3189   20.6730 H   0  0  0  0  0  0
  -17.4210  -26.6647   21.3991 H   0  0  0  0  0  0
  -18.0341  -26.0003   22.8963 H   0  0  0  0  0  0
  -19.7947  -30.7205   24.2319 H   0  0  0  0  0  0
  -17.5042  -31.6269   24.5132 H   0  0  0  0  0  0
  -15.5364  -30.3012   23.7624 H   0  0  0  0  0  0
  -15.8650  -28.0780   22.7154 H   0  0  0  0  0  0
  -24.5960  -30.6941   25.7855 H   0  0  0  0  0  0
  -24.8895  -32.2833   26.4842 H   0  0  0  0  0  0
  -25.8134  -30.8941   27.0258 H   0  0  0  0  0  0
  -26.2915  -29.6703   24.1200 H   0  0  0  0  0  0
  -27.4153  -29.7236   25.4575 H   0  0  0  0  0  0
  -27.8715  -30.4310   23.9268 H   0  0  0  0  0  0
  -27.2716  -33.3589   26.1971 H   0  0  0  0  0  0
  -28.3904  -32.6737   25.0283 H   0  0  0  0  0  0
  -28.0673  -31.8390   26.5406 H   0  0  0  0  0  0
  -28.2608  -38.0091   24.7504 H   0  0  0  0  0  0
  -28.1046  -36.2628   24.6288 H   0  0  0  0  0  0
  -27.2305  -37.1461   25.8880 H   0  0  0  0  0  0
  -20.9334  -29.8788   21.6915 H   0  0  0  0  0  0
  -26.0164  -38.2840   24.1413 H   0  0  0  0  0  0
  -27.5155  -20.8595   19.7263 H   0  0  0  0  0  0
  -31.3111  -19.7786   23.0306 H   0  0  0  0  0  0
  -32.8136  -19.0484   22.5664 H   0  0  0  0  0  0
  -33.2980  -20.0188   19.3005 H   0  0  0  0  0  0
  -32.8873  -21.6318   19.6341 H   0  0  0  0  0  0
  -33.3856  -20.8360   24.0544 H   0  0  0  0  0  0
  -32.3819  -21.9788   23.2173 H   0  0  0  0  0  0
  -35.1858  -21.2696   20.3906 H   0  0  0  0  0  0
  -34.7616  -19.7781   21.1950 H   0  0  0  0  0  0
  -31.8412  -19.1632   20.5424 H   0  0  0  0  0  0
  -31.2049  -24.1559   20.4180 H   0  0  0  0  0  0
  -32.3379  -23.0180   21.0551 H   0  0  0  0  0  0
  -31.0508  -23.6097   22.0697 H   0  0  0  0  0  0
  -27.8345  -22.8726   17.7463 H   0  0  0  0  0  0
  -27.3192  -24.5316   17.9282 H   0  0  0  0  0  0
  -26.5650  -23.2683   18.9089 H   0  0  0  0  0  0
  -28.3421  -18.2418   19.9538 H   0  0  0  0  0  0
  -28.7223  -18.3945   21.6173 H   0  0  0  0  0  0
  -31.0052  -17.4204   21.2496 H   0  0  0  0  0  0
  -30.7450  -17.3867   19.5130 H   0  0  0  0  0  0
  -28.8558  -24.9682   21.4048 H   0  0  0  0  0  0
  -27.1946  -24.8623   20.9647 H   0  0  0  0  0  0
  -29.4406  -24.2113   19.0114 H   0  0  0  0  0  0
  -28.8533  -15.6659   20.8298 H   0  0  0  0  0  0
  -35.0368  -21.4042   22.8039 H   0  0  0  0  0  0
  -34.1386  -22.5065   22.0488 H   0  0  0  0  0  0
  1 25  1  0  0  0
  1 30  2  0  0  0
  1 87  1  0  0  0
  2  3  1  0  0  0
  2 25  1  0  0  0
  2 89  1  0  0  0
  2 90  1  0  0  0
  3  4  1  0  0  0
  3 91  1  0  0  0
  3 92  1  0  0  0
  4  5  1  0  0  0
  4 93  1  0  0  0
  4 94  1  0  0  0
  5  6  1  0  0  0
  5 26  1  0  0  0
  5 95  1  0  0  0
  6 25  1  0  0  0
  6 96  1  0  0  0
  6 97  1  0  0  0
  7  8  2  0  0  0
  7 26  1  0  0  0
  7 29  1  0  0  0
  8  9  1  0  0  0
  8 22  1  0  0  0
  9 10  1  0  0  0
  9 27  2  0  0  0
 10 11  2  0  0  0
 10 15  1  0  0  0
 11 12  1  0  0  0
 11 98  1  0  0  0
 12 13  2  0  0  0
 12 99  1  0  0  0
 13 14  1  0  0  0
 13 31  1  0  0  0
 14 15  2  0  0  0
 14100  1  0  0  0
 15101  1  0  0  0
 16 17  2  0  0  0
 16 21  1  0  0  0
 16 31  1  0  0  0
 17 18  1  0  0  0
 17102  1  0  0  0
 18 19  2  0  0  0
 18103  1  0  0  0
 19 20  1  0  0  0
 19 24  1  0  0  0
 20 21  2  0  0  0
 20104  1  0  0  0
 21 23  1  0  0  0
 22 28  1  0  0  0
 22 32  2  0  0  0
 26 27  1  0  0  0
 28105  1  0  0  0
 28106  1  0  0  0
 29107  1  0  0  0
 29108  1  0  0  0
 33 34  1  0  0  0
 33 66  1  0  0  0
 33 70  2  0  0  0
 34 36  1  0  0  0
 34 59  1  0  0  0
 34109  1  0  0  0
 35 44  2  0  0  0
 35 45  1  0  0  0
 35 68  1  0  0  0
 36 56  1  0  0  0
 36110  1  0  0  0
 37 39  1  0  0  0
 37 47  1  0  0  0
 37 66  1  0  0  0
 37111  1  0  0  0
 38 43  2  0  0  0
 38 46  1  0  0  0
 38 47  1  0  0  0
 39 64  1  0  0  0
 39 67  2  0  0  0
 40 52  1  0  0  0
 40 53  2  0  0  0
 40 58  1  0  0  0
 41112  1  0  0  0
 41113  1  0  0  0
 41114  1  0  0  0
 41 48  1  0  0  0
 42 43  1  0  0  0
 42 66  1  0  0  0
 42115  1  0  0  0
 42116  1  0  0  0
 43 44  1  0  0  0
 44117  1  0  0  0
 45 46  2  0  0  0
 45118  1  0  0  0
 46119  1  0  0  0
 47120  1  0  0  0
 47121  1  0  0  0
 48 56  1  0  0  0
 48 65  1  0  0  0
 48122  1  0  0  0
 49 50  1  0  0  0
 49 53  1  0  0  0
 49 64  1  0  0  0
 49123  1  0  0  0
 50 51  1  0  0  0
 50124  1  0  0  0
 50125  1  0  0  0
 51 52  1  0  0  0
 51126  1  0  0  0
 51127  1  0  0  0
 52128  1  0  0  0
 52129  1  0  0  0
 53 54  1  0  0  0
 54 55  2  0  0  0
 54130  1  0  0  0
 55 57  1  0  0  0
 55131  1  0  0  0
 56 69  2  0  0  0
 57 58  2  0  0  0
 57132  1  0  0  0
 58133  1  0  0  0
 59 60  1  0  0  0
 59 61  1  0  0  0
 59 62  1  0  0  0
 60134  1  0  0  0
 60135  1  0  0  0
 60136  1  0  0  0
 61137  1  0  0  0
 61138  1  0  0  0
 61139  1  0  0  0
 62140  1  0  0  0
 62141  1  0  0  0
 62142  1  0  0  0
 63 65  1  0  0  0
 63143  1  0  0  0
 63144  1  0  0  0
 63145  1  0  0  0
 64146  1  0  0  0
 65147  1  0  0  0
 68 84  1  0  0  0
 71 72  1  0  0  0
 71 73  2  0  0  0
 71148  1  0  0  0
 72 74  2  0  0  0
 72 85  1  0  0  0
 73 82  1  0  0  0
 73 86  1  0  0  0
 74 80  1  0  0  0
 74 86  1  0  0  0
 75 77  1  0  0  0
 75 79  1  0  0  0
 75149  1  0  0  0
 75150  1  0  0  0
 76 78  1  0  0  0
 76 79  1  0  0  0
 76151  1  0  0  0
 76152  1  0  0  0
 77 88  1  0  0  0
 77153  1  0  0  0
 77154  1  0  0  0
 78 88  1  0  0  0
 78155  1  0  0  0
 78156  1  0  0  0
 79 86  1  0  0  0
 79157  1  0  0  0
 80158  1  0  0  0
 80159  1  0  0  0
 80160  1  0  0  0
 81161  1  0  0  0
 81162  1  0  0  0
 81163  1  0  0  0
 81 85  1  0  0  0
 82 83  1  0  0  0
 82164  1  0  0  0
 82165  1  0  0  0
 83 87  1  0  0  0
 83166  1  0  0  0
 83167  1  0  0  0
 84 85  1  0  0  0
 84168  1  0  0  0
 84169  1  0  0  0
 85170  1  0  0  0
 87171  1  0  0  0
 88172  1  0  0  0
 88173  1  0  0  0
M  CHG  1  88   1
M  ISO  4   1 100  68 101  84 101  87 100
M  END
> <chiral flag>
0

> <version>
0

> <s_m_source_file>
/data/baiqing/PycharmProjects/Reinvent-master-3.2/result/LINK_invent/BTK/process_docking_weight1_custom_sum_contain_oxygen_bond_distance_aromatic_linkinvent_7_9_3/rearranged_h_0125.sdf

> <i_m_source_file_index>
80

> <r_mmod_Potential_Energy-OPLS-2005>
27.1645088195801

> <r_mmod_Stretch_Energy-OPLS-2005>
119.896202087402

> <r_mmod_Bend_Energy-OPLS-2005>
196.744522094727

> <r_mmod_Torsional_Energy-OPLS-2005>
329.378295898438

> <r_mmod_Improper_Torsional_Energy-OPLS-2005>
5.73297214508057

> <r_mmod_Van_der_Waal_Energy-OPLS-2005>
130.368774414062

> <r_mmod_Electrostatic_Energy-OPLS-2005>
-339.502838134766

> <r_mmod_Solvation_Energy-OPLS-2005>
-481.63720703125

> <b_mmod_Minimization_Converged-OPLS-2005>
0

> <r_mmod_RMS_Derivative-OPLS-2005>
3.81789422035217

$$$$
81
                    3D
 Structure written by MMmdl.
181190  0  0  1  0            999 V2000
  -29.4284  -16.2302   20.9298 C   0  0  0  0  0  0
  -30.2051  -13.6974   19.7851 C   0  0  0  0  0  0
  -29.5422  -12.9501   18.5552 C   0  0  0  0  0  0
  -28.1930  -12.3436   18.9147 C   0  0  0  0  0  0
  -27.5105  -13.3204   19.8782 C   0  0  2  0  0  0
  -28.3392  -13.7362   21.1036 C   0  0  0  0  0  0
  -25.1715  -13.8224   20.5675 C   0  0  0  0  0  0
  -24.1280  -13.0305   20.9282 C   0  0  0  0  0  0
  -24.6086  -11.6836   20.8743 C   0  0  0  0  0  0
  -23.8907  -10.4195   21.0435 C   0  0  0  0  0  0
  -24.3532   -9.4151   21.9215 C   0  0  0  0  0  0
  -23.6249   -8.2196   22.0771 C   0  0  0  0  0  0
  -22.4273   -8.0218   21.3506 C   0  0  0  0  0  0
  -21.9821   -9.0182   20.4634 C   0  0  0  0  0  0
  -22.7109  -10.2051   20.3051 C   0  0  0  0  0  0
  -21.6832   -6.0705   22.5289 C   0  0  0  0  0  0
  -21.4003   -6.5621   23.8220 C   0  0  0  0  0  0
  -21.3648   -5.6775   24.9180 C   0  0  0  0  0  0
  -21.6049   -4.3043   24.7234 C   0  0  0  0  0  0
  -21.8825   -3.8124   23.4359 C   0  0  0  0  0  0
  -21.9192   -4.6935   22.3411 C   0  0  0  0  0  0
  -22.7376  -13.5081   21.1983 C   0  0  0  0  0  0
  -22.1665   -4.2124   21.0981 F   0  0  0  0  0  0
  -21.5626   -3.4540   25.7741 F   0  0  0  0  0  0
  -29.2914  -14.7313   20.6073 N   0  0  0  0  0  0
  -26.2019  -12.9474   20.3108 N   0  0  0  0  0  0
  -25.8935  -11.6556   20.5604 N   0  0  0  0  0  0
  -22.0096  -12.8067   22.0557 N   0  0  0  0  0  0
  -25.3431  -15.1990   20.4321 N   0  0  0  0  0  0
  -30.6775  -16.2854   20.6739 O   0  0  0  0  0  0
  -21.6619   -6.8837   21.4255 O   0  0  0  0  0  0
  -22.3060  -14.5427   20.6847 O   0  0  0  0  0  0
  -24.6941  -31.7654   23.2579 C   0  0  0  0  0  0
  -25.9557  -32.4497   23.8792 C   0  0  1  0  0  0
  -26.9096  -27.3632   19.9220 C   0  0  0  0  0  0
  -25.6184  -33.8397   24.2456 N   0  0  0  0  0  0
  -23.7391  -30.0267   21.5581 C   0  0  2  0  0  0
  -25.2471  -29.4889   19.7745 C   0  0  0  0  0  0
  -23.5364  -28.4203   21.8698 C   0  0  0  0  0  0
  -18.0165  -27.8144   23.0005 C   0  0  0  0  0  0
  -24.1477  -36.7234   23.2571 C   0  0  0  0  0  0
  -26.1619  -30.6565   21.6777 C   0  0  0  0  0  0
  -26.2409  -29.5170   20.7283 C   0  0  0  0  0  0
  -27.1180  -28.4232   20.8407 C   0  0  0  0  0  0
  -26.4026  -27.6484   18.6977 C   0  0  0  0  0  0
  -25.4882  -28.6862   18.6698 C   0  0  0  0  0  0
  -24.0694  -30.3788   20.0900 C   0  0  0  0  0  0
  -25.4087  -36.2980   24.0281 C   0  0  1  0  0  0
  -20.6933  -27.2239   22.7487 C   0  0  2  0  0  0
  -20.2393  -25.9359   22.3181 C   0  0  0  0  0  0
  -18.9681  -26.0470   21.5413 C   0  0  0  0  0  0
  -17.8375  -26.4491   22.4376 C   0  0  0  0  0  0
  -19.3389  -28.2079   23.3706 C   0  0  0  0  0  0
  -19.2354  -29.4883   24.1069 C   0  0  0  0  0  0
  -18.0515  -30.3009   24.2519 C   0  0  0  0  0  0
  -25.9030  -34.9260   23.5132 C   0  0  0  0  0  0
  -16.8265  -29.8659   23.7462 C   0  0  0  0  0  0
  -16.8284  -28.6195   23.1084 C   0  0  0  0  0  0
  -26.4734  -31.6705   25.1493 C   0  0  0  0  0  0
  -25.3776  -31.4269   26.2115 C   0  0  0  0  0  0
  -27.0809  -30.2934   24.7995 C   0  0  0  0  0  0
  -27.6128  -32.4817   25.8124 C   0  0  0  0  0  0
  -27.5540  -37.1828   24.8434 C   0  0  0  0  0  0
  -22.3298  -27.4642   21.9611 N   0  0  0  0  0  0
  -26.4259  -37.3690   23.9335 N   0  0  0  0  0  0
  -24.8288  -30.7969   22.2834 N   0  0  0  0  0  0
  -24.4540  -28.1625   22.6236 O   0  0  0  0  0  0
  -26.2427  -26.2343   20.2738 O   0  0  0  0  0  0
  -26.5503  -34.8698   22.4655 O   0  0  0  0  0  0
  -23.5934  -32.0994   23.7311 O   0  0  0  0  0  0
  -22.0476  -28.9108   19.0164 C   0  0  0  0  0  0
  -22.9813  -27.8761   18.5635 C   0  0  0  0  0  0
  -21.9440  -26.3142   19.6269 C   0  0  0  0  0  0
  -21.2336  -28.7296   20.1997 C   0  0  0  0  0  0
  -23.3213  -26.7342   19.3928 C   0  0  0  0  0  0
  -20.8751  -27.3390   19.7609 C   0  0  0  0  0  0
  -19.5745  -29.6987   21.2710 C   0  0  0  0  0  0
  -20.9434  -31.1739   22.0600 C   0  0  0  0  0  0
  -19.1738  -30.4522   19.9527 C   0  0  0  0  0  0
  -20.7561  -32.1154   20.8040 C   0  0  0  0  0  0
  -21.1292  -29.5404   21.9367 C   0  0  0  0  0  0
  -19.8069  -27.1592   18.6295 C   0  0  0  0  0  0
  -24.7770  -25.8559   19.6312 C   0  0  0  0  0  0
  -22.2222  -28.5569   23.9425 C   0  0  0  0  0  0
  -26.1413  -21.1160   22.3044 C   0  0  0  0  0  0
  -27.7012  -19.4502   21.9417 C   0  0  0  0  0  0
  -23.3267  -26.4143   24.0492 C   0  0  0  0  0  0
  -25.5146  -23.2369   23.0125 C   0  0  0  0  0  0
  -28.3721  -17.5714   21.3758 N   0  0  0  0  0  0
  -19.5393  -31.8720   20.0008 N   0  3  0  0  0  0
  -24.2111  -24.8003   23.1440 N   0  3  0  0  0  0
  -31.0459  -14.2599   19.3762 H   0  0  0  0  0  0
  -30.6772  -12.9967   20.4667 H   0  0  0  0  0  0
  -30.2267  -12.1960   18.1471 H   0  0  0  0  0  0
  -29.3924  -13.6807   17.7563 H   0  0  0  0  0  0
  -28.3491  -11.3877   19.4144 H   0  0  0  0  0  0
  -27.5884  -12.1545   18.0281 H   0  0  0  0  0  0
  -27.3540  -14.2102   19.2606 H   0  0  0  0  0  0
  -28.7907  -12.8942   21.6274 H   0  0  0  0  0  0
  -27.7129  -14.2500   21.8417 H   0  0  0  0  0  0
  -25.2679   -9.5698   22.4765 H   0  0  0  0  0  0
  -23.9980   -7.4604   22.7445 H   0  0  0  0  0  0
  -21.0793   -8.8660   19.8937 H   0  0  0  0  0  0
  -22.3579  -10.9589   19.6156 H   0  0  0  0  0  0
  -21.1993   -7.6134   23.9707 H   0  0  0  0  0  0
  -21.1464   -6.0513   25.9073 H   0  0  0  0  0  0
  -22.0616   -2.7599   23.2862 H   0  0  0  0  0  0
  -22.3731  -11.9750   22.4919 H   0  0  0  0  0  0
  -21.0720  -13.1036   22.2820 H   0  0  0  0  0  0
  -24.5852  -15.8540   20.5816 H   0  0  0  0  0  0
  -26.2034  -15.6501   20.1435 H   0  0  0  0  0  0
  -26.7801  -32.4921   23.1649 H   0  0  0  0  0  0
  -25.0622  -33.9497   25.0813 H   0  0  0  0  0  0
  -23.0740  -30.5197   22.1067 H   0  0  0  0  0  0
  -23.3700  -35.9590   23.3175 H   0  0  0  0  0  0
  -24.3543  -36.8797   22.1972 H   0  0  0  0  0  0
  -23.7330  -37.6475   23.6580 H   0  0  0  0  0  0
  -26.3975  -31.5650   21.1261 H   0  0  0  0  0  0
  -26.9604  -30.4878   22.3732 H   0  0  0  0  0  0
  -27.6210  -28.2540   21.7786 H   0  0  0  0  0  0
  -26.4095  -26.9474   17.8728 H   0  0  0  0  0  0
  -25.0263  -28.9310   17.7264 H   0  0  0  0  0  0
  -24.4500  -31.4022   20.0741 H   0  0  0  0  0  0
  -23.3816  -30.7043   19.3403 H   0  0  0  0  0  0
  -25.1241  -36.1798   25.0764 H   0  0  0  0  0  0
  -20.8824  -26.8153   23.7322 H   0  0  0  0  0  0
  -20.0494  -25.2525   23.1584 H   0  0  0  0  0  0
  -21.0042  -25.3686   21.8102 H   0  0  0  0  0  0
  -18.7569  -25.0900   21.0688 H   0  0  0  0  0  0
  -18.8690  -26.7966   20.7970 H   0  0  0  0  0  0
  -16.8962  -26.3699   21.9050 H   0  0  0  0  0  0
  -17.7417  -25.7346   23.2634 H   0  0  0  0  0  0
  -20.0939  -29.9807   24.5489 H   0  0  0  0  0  0
  -18.1594  -31.2504   24.7752 H   0  0  0  0  0  0
  -15.9326  -30.4654   23.8896 H   0  0  0  0  0  0
  -15.8749  -28.2685   22.7441 H   0  0  0  0  0  0
  -24.6104  -30.7318   25.8767 H   0  0  0  0  0  0
  -24.8708  -32.3488   26.4956 H   0  0  0  0  0  0
  -25.7950  -31.0083   27.1293 H   0  0  0  0  0  0
  -26.3683  -29.6329   24.3026 H   0  0  0  0  0  0
  -27.3920  -29.7642   25.7020 H   0  0  0  0  0  0
  -27.9836  -30.3898   24.1987 H   0  0  0  0  0  0
  -27.2686  -33.4357   26.2189 H   0  0  0  0  0  0
  -28.4128  -32.7022   25.1084 H   0  0  0  0  0  0
  -28.0709  -31.9450   26.6382 H   0  0  0  0  0  0
  -28.2562  -38.0134   24.7455 H   0  0  0  0  0  0
  -28.1125  -36.2672   24.6384 H   0  0  0  0  0  0
  -27.2283  -37.1609   25.8861 H   0  0  0  0  0  0
  -22.3821  -26.7814   21.1959 H   0  0  0  0  0  0
  -26.0080  -38.2741   24.1393 H   0  0  0  0  0  0
  -21.8961  -29.7628   18.3630 H   0  0  0  0  0  0
  -23.3970  -27.9374   17.5633 H   0  0  0  0  0  0
  -21.6939  -25.2632   19.6655 H   0  0  0  0  0  0
  -19.1079  -28.7542   21.0504 H   0  0  0  0  0  0
  -18.8372  -30.1691   21.8995 H   0  0  0  0  0  0
  -20.1419  -31.4318   22.7552 H   0  0  0  0  0  0
  -21.6806  -31.6974   22.6269 H   0  0  0  0  0  0
  -18.0882  -30.3580   19.8560 H   0  0  0  0  0  0
  -19.5243  -29.9865   19.0390 H   0  0  0  0  0  0
  -21.6315  -32.1530   20.1707 H   0  0  0  0  0  0
  -20.6471  -33.1335   21.1808 H   0  0  0  0  0  0
  -20.2277  -27.3068   17.6223 H   0  0  0  0  0  0
  -18.9510  -27.8377   18.7133 H   0  0  0  0  0  0
  -19.3684  -26.1621   18.6320 H   0  0  0  0  0  0
  -24.9697  -25.3263   18.6928 H   0  0  0  0  0  0
  -24.4414  -25.0772   20.3157 H   0  0  0  0  0  0
  -21.5780  -28.5882   24.8461 H   0  0  0  0  0  0
  -22.9762  -29.2871   24.2762 H   0  0  0  0  0  0
  -25.4445  -20.5288   22.9090 H   0  0  0  0  0  0
  -25.6626  -21.0982   21.3356 H   0  0  0  0  0  0
  -28.1859  -19.4814   22.9371 H   0  0  0  0  0  0
  -28.3716  -20.0196   21.3126 H   0  0  0  0  0  0
  -22.5936  -25.8459   24.6121 H   0  0  0  0  0  0
  -24.0474  -26.5959   24.8484 H   0  0  0  0  0  0
  -26.3264  -23.7789   22.5191 H   0  0  0  0  0  0
  -25.8477  -23.1977   24.0435 H   0  0  0  0  0  0
  -29.2340  -18.0546   21.1954 H   0  0  0  0  0  0
  -18.7848  -32.3834   20.4394 H   0  0  0  0  0  0
  -19.6012  -32.2236   19.0444 H   0  0  0  0  0  0
  -23.8383  -24.3024   23.9312 H   0  0  0  0  0  0
  -25.0406  -25.3460   23.2963 H   0  0  0  0  0  0
  1 25  1  0  0  0
  1 30  2  0  0  0
  1 89  1  0  0  0
  2  3  1  0  0  0
  2 25  1  0  0  0
  2 92  1  0  0  0
  2 93  1  0  0  0
  3  4  1  0  0  0
  3 94  1  0  0  0
  3 95  1  0  0  0
  4  5  1  0  0  0
  4 96  1  0  0  0
  4 97  1  0  0  0
  5  6  1  0  0  0
  5 26  1  0  0  0
  5 98  1  0  0  0
  6 25  1  0  0  0
  6 99  1  0  0  0
  6100  1  0  0  0
  7  8  2  0  0  0
  7 26  1  0  0  0
  7 29  1  0  0  0
  8  9  1  0  0  0
  8 22  1  0  0  0
  9 10  1  0  0  0
  9 27  2  0  0  0
 10 11  2  0  0  0
 10 15  1  0  0  0
 11 12  1  0  0  0
 11101  1  0  0  0
 12 13  2  0  0  0
 12102  1  0  0  0
 13 14  1  0  0  0
 13 31  1  0  0  0
 14 15  2  0  0  0
 14103  1  0  0  0
 15104  1  0  0  0
 16 17  2  0  0  0
 16 21  1  0  0  0
 16 31  1  0  0  0
 17 18  1  0  0  0
 17105  1  0  0  0
 18 19  2  0  0  0
 18106  1  0  0  0
 19 20  1  0  0  0
 19 24  1  0  0  0
 20 21  2  0  0  0
 20107  1  0  0  0
 21 23  1  0  0  0
 22 28  1  0  0  0
 22 32  2  0  0  0
 26 27  1  0  0  0
 28108  1  0  0  0
 28109  1  0  0  0
 29110  1  0  0  0
 29111  1  0  0  0
 33 34  1  0  0  0
 33 66  1  0  0  0
 33 70  2  0  0  0
 34 36  1  0  0  0
 34 59  1  0  0  0
 34112  1  0  0  0
 35 44  2  0  0  0
 35 45  1  0  0  0
 35 68  1  0  0  0
 36 56  1  0  0  0
 36113  1  0  0  0
 37 39  1  0  0  0
 37 47  1  0  0  0
 37 66  1  0  0  0
 37114  1  0  0  0
 38 43  2  0  0  0
 38 46  1  0  0  0
 38 47  1  0  0  0
 39 64  1  0  0  0
 39 67  2  0  0  0
 40 52  1  0  0  0
 40 53  2  0  0  0
 40 58  1  0  0  0
 41115  1  0  0  0
 41116  1  0  0  0
 41117  1  0  0  0
 41 48  1  0  0  0
 42 43  1  0  0  0
 42 66  1  0  0  0
 42118  1  0  0  0
 42119  1  0  0  0
 43 44  1  0  0  0
 44120  1  0  0  0
 45 46  2  0  0  0
 45121  1  0  0  0
 46122  1  0  0  0
 47123  1  0  0  0
 47124  1  0  0  0
 48 56  1  0  0  0
 48 65  1  0  0  0
 48125  1  0  0  0
 49 50  1  0  0  0
 49 53  1  0  0  0
 49 64  1  0  0  0
 49126  1  0  0  0
 50 51  1  0  0  0
 50127  1  0  0  0
 50128  1  0  0  0
 51 52  1  0  0  0
 51129  1  0  0  0
 51130  1  0  0  0
 52131  1  0  0  0
 52132  1  0  0  0
 53 54  1  0  0  0
 54 55  2  0  0  0
 54133  1  0  0  0
 55 57  1  0  0  0
 55134  1  0  0  0
 56 69  2  0  0  0
 57 58  2  0  0  0
 57135  1  0  0  0
 58136  1  0  0  0
 59 60  1  0  0  0
 59 61  1  0  0  0
 59 62  1  0  0  0
 60137  1  0  0  0
 60138  1  0  0  0
 60139  1  0  0  0
 61140  1  0  0  0
 61141  1  0  0  0
 61142  1  0  0  0
 62143  1  0  0  0
 62144  1  0  0  0
 62145  1  0  0  0
 63 65  1  0  0  0
 63146  1  0  0  0
 63147  1  0  0  0
 63148  1  0  0  0
 64149  1  0  0  0
 65150  1  0  0  0
 68 83  1  0  0  0
 71 72  2  0  0  0
 71 74  1  0  0  0
 71151  1  0  0  0
 72 75  1  0  0  0
 72152  1  0  0  0
 73 75  2  0  0  0
 73 76  1  0  0  0
 73153  1  0  0  0
 74 76  2  0  0  0
 74 81  1  0  0  0
 75 83  1  0  0  0
 76 82  1  0  0  0
 77 79  1  0  0  0
 77 81  1  0  0  0
 77154  1  0  0  0
 77155  1  0  0  0
 78 80  1  0  0  0
 78 81  1  0  0  0
 78156  1  0  0  0
 78157  1  0  0  0
 79 90  1  0  0  0
 79158  1  0  0  0
 79159  1  0  0  0
 80 90  1  0  0  0
 80160  1  0  0  0
 80161  1  0  0  0
 81 84  1  0  0  0
 82162  1  0  0  0
 82163  1  0  0  0
 82164  1  0  0  0
 83165  1  0  0  0
 83166  1  0  0  0
 84 87  1  0  0  0
 84167  1  0  0  0
 84168  1  0  0  0
 85 86  1  0  0  0
 85 88  1  0  0  0
 85169  1  0  0  0
 85170  1  0  0  0
 86 89  1  0  0  0
 86171  1  0  0  0
 86172  1  0  0  0
 87 91  1  0  0  0
 87173  1  0  0  0
 87174  1  0  0  0
 88 91  1  0  0  0
 88175  1  0  0  0
 88176  1  0  0  0
 89177  1  0  0  0
 90178  1  0  0  0
 90179  1  0  0  0
 91180  1  0  0  0
 91181  1  0  0  0
M  CHG  2  90   1  91   1
M  ISO  4   1 100  68 101  83 101  89 100
M  END
> <chiral flag>
0

> <version>
0

> <s_m_source_file>
/data/baiqing/PycharmProjects/Reinvent-master-3.2/result/LINK_invent/BTK/process_docking_weight1_custom_sum_contain_oxygen_bond_distance_aromatic_linkinvent_7_9_3/rearranged_h_0125.sdf

> <i_m_source_file_index>
81

> <r_mmod_Potential_Energy-OPLS-2005>
14677.7568359375

> <r_mmod_Stretch_Energy-OPLS-2005>
6343.68603515625

> <r_mmod_Bend_Energy-OPLS-2005>
2614.287109375

> <r_mmod_Torsional_Energy-OPLS-2005>
917.3642578125

> <r_mmod_Improper_Torsional_Energy-OPLS-2005>
74.8100662231445

> <r_mmod_Van_der_Waal_Energy-OPLS-2005>
1617.58129882812

> <r_mmod_Electrostatic_Energy-OPLS-2005>
-121.894515991211

> <r_mmod_Solvation_Energy-OPLS-2005>
-820.995178222656

> <b_mmod_Minimization_Converged-OPLS-2005>
0

> <r_mmod_RMS_Derivative-OPLS-2005>
29.7115306854248

$$$$
82
                    3D
 Structure written by MMmdl.
163171  0  0  1  0            999 V2000
  -30.6813  -14.4995   20.5593 C   0  0  0  0  0  0
  -30.4246  -12.3171   19.4361 C   0  0  0  0  0  0
  -29.4970  -12.4943   18.2147 C   0  0  0  0  0  0
  -28.0170  -12.3546   18.6243 C   0  0  0  0  0  0
  -27.6578  -13.2057   19.8717 C   0  0  2  0  0  0
  -28.6967  -13.0003   20.9971 C   0  0  0  0  0  0
  -25.2579  -13.8163   20.5695 C   0  0  0  0  0  0
  -24.1820  -13.0434   20.9179 C   0  0  0  0  0  0
  -24.6369  -11.6905   20.8727 C   0  0  0  0  0  0
  -23.9034  -10.4291   21.0396 C   0  0  0  0  0  0
  -24.3593   -9.4223   21.9184 C   0  0  0  0  0  0
  -23.6282   -8.2252   22.0752 C   0  0  0  0  0  0
  -22.4270   -8.0275   21.3542 C   0  0  0  0  0  0
  -21.9898   -9.0243   20.4644 C   0  0  0  0  0  0
  -22.7207  -10.2130   20.3054 C   0  0  0  0  0  0
  -21.6855   -6.0732   22.5278 C   0  0  0  0  0  0
  -21.4009   -6.5638   23.8209 C   0  0  0  0  0  0
  -21.3662   -5.6792   24.9172 C   0  0  0  0  0  0
  -21.6043   -4.3055   24.7224 C   0  0  0  0  0  0
  -21.8823   -3.8147   23.4346 C   0  0  0  0  0  0
  -21.9191   -4.6959   22.3399 C   0  0  0  0  0  0
  -22.7852  -13.5251   21.1848 C   0  0  0  0  0  0
  -22.1666   -4.2143   21.0979 F   0  0  0  0  0  0
  -21.5630   -3.4539   25.7742 F   0  0  0  0  0  0
  -30.0266  -13.3108   20.4477 N   0  0  0  0  0  0
  -26.2997  -12.9325   20.3340 N   0  0  0  0  0  0
  -25.9294  -11.6484   20.5748 N   0  0  0  0  0  0
  -22.0478  -12.8235   22.0384 N   0  0  0  0  0  0
  -25.4334  -15.1875   20.4146 N   0  0  0  0  0  0
  -31.8215  -14.6568   20.1154 O   0  0  0  0  0  0
  -21.6640   -6.8869   21.4241 O   0  0  0  0  0  0
  -22.3543  -14.5561   20.6700 O   0  0  0  0  0  0
  -24.6166  -31.8668   23.2098 C   0  0  0  0  0  0
  -25.9048  -32.4822   23.8389 C   0  0  1  0  0  0
  -27.2375  -27.4219   20.0944 C   0  0  0  0  0  0
  -25.5901  -33.8621   24.2313 N   0  0  0  0  0  0
  -23.4049  -30.4907   21.5510 C   0  0  2  0  0  0
  -24.8516  -28.9531   20.1163 C   0  0  0  0  0  0
  -22.7422  -29.4649   22.4993 C   0  0  0  0  0  0
  -18.0266  -28.1371   22.8476 C   0  0  0  0  0  0
  -24.1488  -36.7306   23.2639 C   0  0  0  0  0  0
  -25.9354  -30.8286   21.3637 C   0  0  0  0  0  0
  -26.0137  -29.4614   20.7114 C   0  0  0  0  0  0
  -27.2096  -28.7047   20.6939 C   0  0  0  0  0  0
  -26.0586  -26.9362   19.4848 C   0  0  0  0  0  0
  -24.8697  -27.6892   19.5019 C   0  0  0  0  0  0
  -23.6148  -29.8226   20.1663 C   0  0  0  0  0  0
  -25.4109  -36.3099   24.0332 C   0  0  1  0  0  0
  -20.5858  -28.3649   23.1316 C   0  0  2  0  0  0
  -20.6762  -26.9387   22.5399 C   0  0  0  0  0  0
  -19.5747  -26.6381   21.5192 C   0  0  0  0  0  0
  -18.1919  -26.7914   22.1606 C   0  0  0  0  0  0
  -19.1517  -28.8828   23.2887 C   0  0  0  0  0  0
  -18.9458  -30.1437   23.8894 C   0  0  0  0  0  0
  -17.6465  -30.6578   24.0561 C   0  0  0  0  0  0
  -25.9036  -34.9472   23.5118 C   0  0  0  0  0  0
  -16.5352  -29.9075   23.6325 C   0  0  0  0  0  0
  -16.7252  -28.6504   23.0330 C   0  0  0  0  0  0
  -26.4472  -31.6614   25.0720 C   0  0  0  0  0  0
  -25.3729  -31.3727   26.1468 C   0  0  0  0  0  0
  -27.0319  -30.3065   24.6089 C   0  0  0  0  0  0
  -27.6038  -32.4347   25.7485 C   0  0  0  0  0  0
  -27.5584  -37.1806   24.8460 C   0  0  0  0  0  0
  -21.4150  -29.3019   22.3735 N   0  0  0  0  0  0
  -26.4291  -37.3793   23.9418 N   0  0  0  0  0  0
  -24.6708  -31.0769   22.0995 N   0  0  0  0  0  0
  -23.4198  -28.8187   23.3024 O   0  0  0  0  0  0
  -28.4082  -26.6842   20.0737 O   0  0  0  0  0  0
  -26.5603  -34.8929   22.4679 O   0  0  0  0  0  0
  -23.5357  -32.1431   23.7488 O   0  0  0  0  0  0
  -31.3877  -18.9712   20.4073 C   0  0  0  0  0  0
  -31.2410  -17.5690   20.3831 C   0  0  0  0  0  0
  -29.3334  -19.1709   21.6793 C   0  0  0  0  0  0
  -30.4539  -19.7911   21.0763 C   0  0  0  0  0  0
  -30.1449  -16.9386   21.0227 C   0  0  0  0  0  0
  -29.1649  -17.7548   21.6448 C   0  0  0  0  0  0
  -28.3885  -25.3676   22.0704 C   0  0  0  0  0  0
  -26.9713  -17.8799   22.6340 C   0  0  0  0  0  0
  -30.7915  -21.2804   21.2741 C   0  0  0  0  0  0
  -29.6663  -22.3554   21.2892 C   0  0  0  0  0  0
  -29.5173  -24.4984   19.9199 C   0  0  0  0  0  0
  -28.3411  -25.3153   20.5344 C   0  0  2  0  0  0
  -29.9485  -15.5145   21.0717 N   0  0  0  0  0  0
  -29.3912  -23.0030   19.9764 N   0  3  0  0  0  0
  -28.0906  -17.1031   22.2186 O   0  0  0  0  0  0
  -31.4681  -12.4193   19.1342 H   0  0  0  0  0  0
  -30.3327  -11.3108   19.8473 H   0  0  0  0  0  0
  -29.7429  -11.7581   17.4480 H   0  0  0  0  0  0
  -29.6619  -13.4740   17.7629 H   0  0  0  0  0  0
  -27.8318  -11.2999   18.8312 H   0  0  0  0  0  0
  -27.3679  -12.6180   17.7892 H   0  0  0  0  0  0
  -27.6985  -14.2504   19.5621 H   0  0  0  0  0  0
  -28.6768  -11.9674   21.3475 H   0  0  0  0  0  0
  -28.4512  -13.6091   21.8690 H   0  0  0  0  0  0
  -25.2736   -9.5708   22.4755 H   0  0  0  0  0  0
  -23.9997   -7.4646   22.7478 H   0  0  0  0  0  0
  -21.0831   -8.8750   19.8946 H   0  0  0  0  0  0
  -22.3662  -10.9664   19.6159 H   0  0  0  0  0  0
  -21.2002   -7.6145   23.9708 H   0  0  0  0  0  0
  -21.1480   -6.0524   25.9073 H   0  0  0  0  0  0
  -22.0599   -2.7608   23.2849 H   0  0  0  0  0  0
  -22.4083  -11.9885   22.4760 H   0  0  0  0  0  0
  -21.1088  -13.1256   22.2562 H   0  0  0  0  0  0
  -24.6759  -15.8487   20.5434 H   0  0  0  0  0  0
  -26.2957  -15.6261   20.1172 H   0  0  0  0  0  0
  -26.7118  -32.5528   23.1154 H   0  0  0  0  0  0
  -25.0054  -33.9771   25.0461 H   0  0  0  0  0  0
  -22.6923  -31.3061   21.4115 H   0  0  0  0  0  0
  -23.3744  -35.9649   23.3308 H   0  0  0  0  0  0
  -24.3585  -36.8920   22.2052 H   0  0  0  0  0  0
  -23.7247  -37.6516   23.6657 H   0  0  0  0  0  0
  -26.0438  -31.5965   20.5968 H   0  0  0  0  0  0
  -26.8243  -30.8854   21.9793 H   0  0  0  0  0  0
  -28.1089  -29.0974   21.1493 H   0  0  0  0  0  0
  -26.0477  -25.9812   18.9785 H   0  0  0  0  0  0
  -23.9797  -27.2968   19.0287 H   0  0  0  0  0  0
  -23.7270  -30.5989   19.4082 H   0  0  0  0  0  0
  -22.7377  -29.2456   19.8665 H   0  0  0  0  0  0
  -25.1283  -36.1967   25.0825 H   0  0  0  0  0  0
  -20.9930  -28.3210   24.1450 H   0  0  0  0  0  0
  -20.5680  -26.2256   23.3579 H   0  0  0  0  0  0
  -21.6639  -26.7449   22.1198 H   0  0  0  0  0  0
  -19.6920  -25.6297   21.1205 H   0  0  0  0  0  0
  -19.6703  -27.3212   20.6735 H   0  0  0  0  0  0
  -17.4195  -26.6654   21.3992 H   0  0  0  0  0  0
  -18.0324  -26.0055   22.9005 H   0  0  0  0  0  0
  -19.7946  -30.7228   24.2275 H   0  0  0  0  0  0
  -17.5029  -31.6264   24.5149 H   0  0  0  0  0  0
  -15.5349  -30.2978   23.7666 H   0  0  0  0  0  0
  -15.8651  -28.0831   22.7024 H   0  0  0  0  0  0
  -24.5889  -30.7089   25.7812 H   0  0  0  0  0  0
  -24.8930  -32.2887   26.4915 H   0  0  0  0  0  0
  -25.8070  -30.8900   27.0232 H   0  0  0  0  0  0
  -26.2856  -29.6808   24.1183 H   0  0  0  0  0  0
  -27.4143  -29.7321   25.4542 H   0  0  0  0  0  0
  -27.8661  -30.4397   23.9206 H   0  0  0  0  0  0
  -27.2639  -33.3634   26.2078 H   0  0  0  0  0  0
  -28.3840  -32.6934   25.0314 H   0  0  0  0  0  0
  -28.0717  -31.8471   26.5398 H   0  0  0  0  0  0
  -28.2576  -38.0129   24.7535 H   0  0  0  0  0  0
  -28.1101  -36.2662   24.6240 H   0  0  0  0  0  0
  -27.2304  -37.1376   25.8861 H   0  0  0  0  0  0
  -20.9309  -29.8775   21.6983 H   0  0  0  0  0  0
  -26.0173  -38.2862   24.1463 H   0  0  0  0  0  0
  -32.2660  -19.4063   19.9477 H   0  0  0  0  0  0
  -32.0068  -17.0030   19.8762 H   0  0  0  0  0  0
  -28.6304  -19.7924   22.2129 H   0  0  0  0  0  0
  -28.1968  -24.3915   22.5121 H   0  0  0  0  0  0
  -27.6300  -26.0422   22.4653 H   0  0  0  0  0  0
  -29.3598  -25.7185   22.4241 H   0  0  0  0  0  0
  -26.2005  -17.2160   23.0262 H   0  0  0  0  0  0
  -26.5328  -18.4302   21.7996 H   0  0  0  0  0  0
  -27.2259  -18.5789   23.4316 H   0  0  0  0  0  0
  -31.5703  -21.5795   20.5710 H   0  0  0  0  0  0
  -31.2795  -21.3220   22.2487 H   0  0  0  0  0  0
  -30.0117  -23.1328   21.9698 H   0  0  0  0  0  0
  -28.7426  -21.9781   21.7250 H   0  0  0  0  0  0
  -30.4734  -24.8170   20.3360 H   0  0  0  0  0  0
  -29.5670  -24.7516   18.8608 H   0  0  0  0  0  0
  -27.4098  -24.8422   20.2258 H   0  0  0  0  0  0
  -29.0631  -15.2361   21.4678 H   0  0  0  0  0  0
  -28.4826  -22.7185   19.6437 H   0  0  0  0  0  0
  -30.0560  -22.6269   19.3178 H   0  0  0  0  0  0
  1 25  1  0  0  0
  1 30  2  0  0  0
  1 83  1  0  0  0
  2  3  1  0  0  0
  2 25  1  0  0  0
  2 86  1  0  0  0
  2 87  1  0  0  0
  3  4  1  0  0  0
  3 88  1  0  0  0
  3 89  1  0  0  0
  4  5  1  0  0  0
  4 90  1  0  0  0
  4 91  1  0  0  0
  5  6  1  0  0  0
  5 26  1  0  0  0
  5 92  1  0  0  0
  6 25  1  0  0  0
  6 93  1  0  0  0
  6 94  1  0  0  0
  7  8  2  0  0  0
  7 26  1  0  0  0
  7 29  1  0  0  0
  8  9  1  0  0  0
  8 22  1  0  0  0
  9 10  1  0  0  0
  9 27  2  0  0  0
 10 11  2  0  0  0
 10 15  1  0  0  0
 11 12  1  0  0  0
 11 95  1  0  0  0
 12 13  2  0  0  0
 12 96  1  0  0  0
 13 14  1  0  0  0
 13 31  1  0  0  0
 14 15  2  0  0  0
 14 97  1  0  0  0
 15 98  1  0  0  0
 16 17  2  0  0  0
 16 21  1  0  0  0
 16 31  1  0  0  0
 17 18  1  0  0  0
 17 99  1  0  0  0
 18 19  2  0  0  0
 18100  1  0  0  0
 19 20  1  0  0  0
 19 24  1  0  0  0
 20 21  2  0  0  0
 20101  1  0  0  0
 21 23  1  0  0  0
 22 28  1  0  0  0
 22 32  2  0  0  0
 26 27  1  0  0  0
 28102  1  0  0  0
 28103  1  0  0  0
 29104  1  0  0  0
 29105  1  0  0  0
 33 34  1  0  0  0
 33 66  1  0  0  0
 33 70  2  0  0  0
 34 36  1  0  0  0
 34 59  1  0  0  0
 34106  1  0  0  0
 35 44  2  0  0  0
 35 45  1  0  0  0
 35 68  1  0  0  0
 36 56  1  0  0  0
 36107  1  0  0  0
 37 39  1  0  0  0
 37 47  1  0  0  0
 37 66  1  0  0  0
 37108  1  0  0  0
 38 43  2  0  0  0
 38 46  1  0  0  0
 38 47  1  0  0  0
 39 64  1  0  0  0
 39 67  2  0  0  0
 40 52  1  0  0  0
 40 53  2  0  0  0
 40 58  1  0  0  0
 41109  1  0  0  0
 41110  1  0  0  0
 41111  1  0  0  0
 41 48  1  0  0  0
 42 43  1  0  0  0
 42 66  1  0  0  0
 42112  1  0  0  0
 42113  1  0  0  0
 43 44  1  0  0  0
 44114  1  0  0  0
 45 46  2  0  0  0
 45115  1  0  0  0
 46116  1  0  0  0
 47117  1  0  0  0
 47118  1  0  0  0
 48 56  1  0  0  0
 48 65  1  0  0  0
 48119  1  0  0  0
 49 50  1  0  0  0
 49 53  1  0  0  0
 49 64  1  0  0  0
 49120  1  0  0  0
 50 51  1  0  0  0
 50121  1  0  0  0
 50122  1  0  0  0
 51 52  1  0  0  0
 51123  1  0  0  0
 51124  1  0  0  0
 52125  1  0  0  0
 52126  1  0  0  0
 53 54  1  0  0  0
 54 55  2  0  0  0
 54127  1  0  0  0
 55 57  1  0  0  0
 55128  1  0  0  0
 56 69  2  0  0  0
 57 58  2  0  0  0
 57129  1  0  0  0
 58130  1  0  0  0
 59 60  1  0  0  0
 59 61  1  0  0  0
 59 62  1  0  0  0
 60131  1  0  0  0
 60132  1  0  0  0
 60133  1  0  0  0
 61134  1  0  0  0
 61135  1  0  0  0
 61136  1  0  0  0
 62137  1  0  0  0
 62138  1  0  0  0
 62139  1  0  0  0
 63 65  1  0  0  0
 63140  1  0  0  0
 63141  1  0  0  0
 63142  1  0  0  0
 64143  1  0  0  0
 65144  1  0  0  0
 68 82  1  0  0  0
 71 72  2  0  0  0
 71 74  1  0  0  0
 71145  1  0  0  0
 72 75  1  0  0  0
 72146  1  0  0  0
 73 74  2  0  0  0
 73 76  1  0  0  0
 73147  1  0  0  0
 74 79  1  0  0  0
 75 76  2  0  0  0
 75 83  1  0  0  0
 76 85  1  0  0  0
 77148  1  0  0  0
 77149  1  0  0  0
 77150  1  0  0  0
 77 82  1  0  0  0
 78 85  1  0  0  0
 78151  1  0  0  0
 78152  1  0  0  0
 78153  1  0  0  0
 79 80  1  0  0  0
 79154  1  0  0  0
 79155  1  0  0  0
 80 84  1  0  0  0
 80156  1  0  0  0
 80157  1  0  0  0
 81 82  1  0  0  0
 81 84  1  0  0  0
 81158  1  0  0  0
 81159  1  0  0  0
 82160  1  0  0  0
 83161  1  0  0  0
 84162  1  0  0  0
 84163  1  0  0  0
M  CHG  1  84   1
M  ISO  4   1 100  68 101  82 101  83 100
M  END
> <chiral flag>
0

> <version>
0

> <s_m_source_file>
/data/baiqing/PycharmProjects/Reinvent-master-3.2/result/LINK_invent/BTK/process_docking_weight1_custom_sum_contain_oxygen_bond_distance_aromatic_linkinvent_7_9_3/rearranged_h_0125.sdf

> <i_m_source_file_index>
82

> <r_mmod_Potential_Energy-OPLS-2005>
-169.281295776367

> <r_mmod_Stretch_Energy-OPLS-2005>
43.937198638916

> <r_mmod_Bend_Energy-OPLS-2005>
122.873916625977

> <r_mmod_Torsional_Energy-OPLS-2005>
260.899169921875

> <r_mmod_Improper_Torsional_Energy-OPLS-2005>
3.77479529380798

> <r_mmod_Van_der_Waal_Energy-OPLS-2005>
157.744354248047

> <r_mmod_Electrostatic_Energy-OPLS-2005>
-317.94189453125

> <r_mmod_Solvation_Energy-OPLS-2005>
-455.600952148438

> <b_mmod_Minimization_Converged-OPLS-2005>
0

> <r_mmod_RMS_Derivative-OPLS-2005>
2.40398120880127

$$$$
83
                    3D
 Structure written by MMmdl.
181191  0  0  1  0            999 V2000
  -30.6970  -14.5236   20.5038 C   0  0  0  0  0  0
  -30.4226  -12.3274   19.4312 C   0  0  0  0  0  0
  -29.4963  -12.4931   18.2075 C   0  0  0  0  0  0
  -28.0153  -12.3572   18.6201 C   0  0  0  0  0  0
  -27.6537  -13.2126   19.8649 C   0  0  2  0  0  0
  -28.7008  -13.0188   20.9812 C   0  0  0  0  0  0
  -25.2569  -13.8174   20.5722 C   0  0  0  0  0  0
  -24.1825  -13.0441   20.9185 C   0  0  0  0  0  0
  -24.6387  -11.6908   20.8739 C   0  0  0  0  0  0
  -23.9060  -10.4293   21.0410 C   0  0  0  0  0  0
  -24.3614   -9.4205   21.9183 C   0  0  0  0  0  0
  -23.6297   -8.2233   22.0749 C   0  0  0  0  0  0
  -22.4272   -8.0274   21.3550 C   0  0  0  0  0  0
  -21.9892   -9.0264   20.4674 C   0  0  0  0  0  0
  -22.7216  -10.2149   20.3078 C   0  0  0  0  0  0
  -21.6854   -6.0733   22.5281 C   0  0  0  0  0  0
  -21.4023   -6.5637   23.8214 C   0  0  0  0  0  0
  -21.3668   -5.6789   24.9179 C   0  0  0  0  0  0
  -21.6052   -4.3048   24.7223 C   0  0  0  0  0  0
  -21.8828   -3.8141   23.4339 C   0  0  0  0  0  0
  -21.9188   -4.6962   22.3398 C   0  0  0  0  0  0
  -22.7837  -13.5219   21.1824 C   0  0  0  0  0  0
  -22.1658   -4.2147   21.0974 F   0  0  0  0  0  0
  -21.5623   -3.4533   25.7738 F   0  0  0  0  0  0
  -30.0162  -13.3440   20.4163 N   0  0  0  0  0  0
  -26.2994  -12.9350   20.3346 N   0  0  0  0  0  0
  -25.9310  -11.6498   20.5735 N   0  0  0  0  0  0
  -22.0499  -12.8246   22.0423 N   0  0  0  0  0  0
  -25.4276  -15.1895   20.4175 N   0  0  0  0  0  0
  -31.8918  -14.6066   20.2106 O   0  0  0  0  0  0
  -21.6641   -6.8869   21.4236 O   0  0  0  0  0  0
  -22.3495  -14.5481   20.6593 O   0  0  0  0  0  0
  -24.6155  -31.8670   23.2081 C   0  0  0  0  0  0
  -25.9052  -32.4816   23.8383 C   0  0  1  0  0  0
  -27.2278  -27.4157   20.0918 C   0  0  0  0  0  0
  -25.5916  -33.8620   24.2323 N   0  0  0  0  0  0
  -23.4022  -30.4914   21.5492 C   0  0  2  0  0  0
  -24.8454  -28.9535   20.1139 C   0  0  0  0  0  0
  -22.7411  -29.4666   22.4992 C   0  0  0  0  0  0
  -18.0262  -28.1377   22.8508 C   0  0  0  0  0  0
  -24.1475  -36.7308   23.2638 C   0  0  0  0  0  0
  -25.9320  -30.8284   21.3600 C   0  0  0  0  0  0
  -26.0068  -29.4606   20.7086 C   0  0  0  0  0  0
  -27.1982  -28.6989   20.6930 C   0  0  0  0  0  0
  -26.0447  -26.9283   19.4900 C   0  0  0  0  0  0
  -24.8607  -27.6881   19.5038 C   0  0  0  0  0  0
  -23.6086  -29.8228   20.1637 C   0  0  0  0  0  0
  -25.4100  -36.3115   24.0337 C   0  0  1  0  0  0
  -20.5857  -28.3657   23.1329 C   0  0  2  0  0  0
  -20.6760  -26.9400   22.5411 C   0  0  0  0  0  0
  -19.5727  -26.6385   21.5214 C   0  0  0  0  0  0
  -18.1906  -26.7928   22.1630 C   0  0  0  0  0  0
  -19.1513  -28.8835   23.2916 C   0  0  0  0  0  0
  -18.9449  -30.1451   23.8909 C   0  0  0  0  0  0
  -17.6451  -30.6588   24.0568 C   0  0  0  0  0  0
  -25.9037  -34.9480   23.5126 C   0  0  0  0  0  0
  -16.5342  -29.9093   23.6326 C   0  0  0  0  0  0
  -16.7253  -28.6510   23.0350 C   0  0  0  0  0  0
  -26.4475  -31.6598   25.0711 C   0  0  0  0  0  0
  -25.3757  -31.3715   26.1474 C   0  0  0  0  0  0
  -27.0294  -30.3042   24.6077 C   0  0  0  0  0  0
  -27.6045  -32.4321   25.7472 C   0  0  0  0  0  0
  -27.5579  -37.1813   24.8474 C   0  0  0  0  0  0
  -21.4135  -29.3029   22.3740 N   0  0  0  0  0  0
  -26.4284  -37.3805   23.9424 N   0  0  0  0  0  0
  -24.6687  -31.0773   22.0973 N   0  0  0  0  0  0
  -23.4186  -28.8202   23.3025 O   0  0  0  0  0  0
  -28.4098  -26.6982   20.1086 O   0  0  0  0  0  0
  -26.5587  -34.8927   22.4681 O   0  0  0  0  0  0
  -23.5348  -32.1421   23.7475 O   0  0  0  0  0  0
  -28.9509  -17.7654   21.0243 C   0  0  0  0  0  0
  -28.0624  -16.6306   23.3386 C   0  0  0  0  0  0
  -28.1378  -18.5655   21.8689 C   0  0  0  0  0  0
  -27.6188  -17.9274   23.0270 C   0  0  0  0  0  0
  -29.2656  -16.4213   21.3677 C   0  0  0  0  0  0
  -22.2916  -17.3218   24.1327 C   0  0  0  0  0  0
  -23.3550  -16.2372   23.9173 C   0  0  0  0  0  0
  -22.6544  -18.6005   23.3634 C   0  0  0  0  0  0
  -24.7489  -16.7442   24.3156 C   0  0  0  0  0  0
  -24.0541  -19.1119   23.7537 C   0  0  0  0  0  0
  -28.5737  -21.0004   22.5269 C   0  0  0  0  0  0
  -28.0882  -20.5871   20.1472 C   0  0  0  0  0  0
  -28.0768  -22.4539   22.3861 C   0  0  0  0  0  0
  -27.6191  -22.0684   19.9973 C   0  0  0  0  0  0
  -27.8183  -20.0527   21.5733 C   0  0  1  0  0  0
  -25.1343  -18.0291   23.5483 C   0  0  0  0  0  0
  -26.5470  -18.5373   23.9277 C   0  0  0  0  0  0
  -27.7676  -24.4169   20.9236 C   0  0  0  0  0  0
  -28.4252  -25.2831   19.8122 C   0  0  0  0  0  0
  -28.8749  -15.9087   22.5496 N   0  0  0  0  0  0
  -29.9812  -15.6661   20.3985 N   0  0  0  0  0  0
  -28.2367  -22.9888   21.0037 N   0  3  1  0  0  0
  -31.4659  -12.4254   19.1266 H   0  0  0  0  0  0
  -30.3306  -11.3262   19.8557 H   0  0  0  0  0  0
  -29.7430  -11.7506   17.4472 H   0  0  0  0  0  0
  -29.6628  -13.4685   17.7456 H   0  0  0  0  0  0
  -27.8322  -11.3031   18.8318 H   0  0  0  0  0  0
  -27.3629  -12.6152   17.7851 H   0  0  0  0  0  0
  -27.6845  -14.2556   19.5506 H   0  0  0  0  0  0
  -28.6968  -11.9856   21.3317 H   0  0  0  0  0  0
  -28.4608  -13.6117   21.8565 H   0  0  0  0  0  0
  -25.2760   -9.5694   22.4753 H   0  0  0  0  0  0
  -24.0022   -7.4623   22.7459 H   0  0  0  0  0  0
  -21.0817   -8.8787   19.8995 H   0  0  0  0  0  0
  -22.3651  -10.9696   19.6201 H   0  0  0  0  0  0
  -21.2018   -7.6147   23.9724 H   0  0  0  0  0  0
  -21.1473   -6.0508   25.9086 H   0  0  0  0  0  0
  -22.0600   -2.7601   23.2833 H   0  0  0  0  0  0
  -22.4113  -11.9919   22.4840 H   0  0  0  0  0  0
  -21.1117  -13.1277   22.2607 H   0  0  0  0  0  0
  -24.6755  -15.8510   20.5723 H   0  0  0  0  0  0
  -26.3008  -15.6325   20.1642 H   0  0  0  0  0  0
  -26.7125  -32.5514   23.1145 H   0  0  0  0  0  0
  -25.0115  -33.9787   25.0505 H   0  0  0  0  0  0
  -22.6903  -31.3079   21.4112 H   0  0  0  0  0  0
  -23.3741  -35.9640   23.3301 H   0  0  0  0  0  0
  -24.3573  -36.8910   22.2055 H   0  0  0  0  0  0
  -23.7212  -37.6511   23.6639 H   0  0  0  0  0  0
  -26.0425  -31.5892   20.5863 H   0  0  0  0  0  0
  -26.8226  -30.8856   21.9746 H   0  0  0  0  0  0
  -28.0955  -29.0906   21.1520 H   0  0  0  0  0  0
  -26.0087  -25.9666   19.0004 H   0  0  0  0  0  0
  -23.9669  -27.2933   19.0399 H   0  0  0  0  0  0
  -23.7179  -30.5973   19.4031 H   0  0  0  0  0  0
  -22.7305  -29.2445   19.8695 H   0  0  0  0  0  0
  -25.1272  -36.1975   25.0829 H   0  0  0  0  0  0
  -20.9947  -28.3212   24.1449 H   0  0  0  0  0  0
  -20.5665  -26.2269   23.3592 H   0  0  0  0  0  0
  -21.6634  -26.7444   22.1200 H   0  0  0  0  0  0
  -19.6876  -25.6299   21.1227 H   0  0  0  0  0  0
  -19.6661  -27.3217   20.6757 H   0  0  0  0  0  0
  -17.4184  -26.6689   21.4022 H   0  0  0  0  0  0
  -18.0298  -26.0058   22.9012 H   0  0  0  0  0  0
  -19.7923  -30.7273   24.2265 H   0  0  0  0  0  0
  -17.5005  -31.6263   24.5177 H   0  0  0  0  0  0
  -15.5347  -30.3000   23.7645 H   0  0  0  0  0  0
  -15.8651  -28.0833   22.7060 H   0  0  0  0  0  0
  -24.5924  -30.7051   25.7848 H   0  0  0  0  0  0
  -24.8957  -32.2876   26.4932 H   0  0  0  0  0  0
  -25.8135  -30.8902   27.0227 H   0  0  0  0  0  0
  -26.2826  -29.6814   24.1142 H   0  0  0  0  0  0
  -27.4086  -29.7266   25.4517 H   0  0  0  0  0  0
  -27.8648  -30.4364   23.9196 H   0  0  0  0  0  0
  -27.2661  -33.3618   26.2057 H   0  0  0  0  0  0
  -28.3857  -32.6888   25.0307 H   0  0  0  0  0  0
  -28.0709  -31.8443   26.5387 H   0  0  0  0  0  0
  -28.2613  -38.0099   24.7527 H   0  0  0  0  0  0
  -28.1046  -36.2633   24.6278 H   0  0  0  0  0  0
  -27.2300  -37.1452   25.8877 H   0  0  0  0  0  0
  -20.9286  -29.8779   21.6999 H   0  0  0  0  0  0
  -26.0161  -38.2876   24.1437 H   0  0  0  0  0  0
  -29.3208  -18.1760   20.0955 H   0  0  0  0  0  0
  -27.7251  -16.1322   24.2351 H   0  0  0  0  0  0
  -22.2054  -17.5436   25.1974 H   0  0  0  0  0  0
  -21.3153  -16.9554   23.8126 H   0  0  0  0  0  0
  -23.3672  -15.9371   22.8689 H   0  0  0  0  0  0
  -23.1034  -15.3435   24.4904 H   0  0  0  0  0  0
  -21.9062  -19.3712   23.5514 H   0  0  0  0  0  0
  -22.6219  -18.4019   22.2910 H   0  0  0  0  0  0
  -25.4713  -15.9523   24.1249 H   0  0  0  0  0  0
  -24.7759  -16.9321   25.3892 H   0  0  0  0  0  0
  -24.0478  -19.4356   24.7949 H   0  0  0  0  0  0
  -24.2928  -19.9951   23.1592 H   0  0  0  0  0  0
  -28.4501  -20.6914   23.5636 H   0  0  0  0  0  0
  -29.6466  -20.9478   22.3358 H   0  0  0  0  0  0
  -29.1515  -20.5161   19.9132 H   0  0  0  0  0  0
  -27.5683  -19.9703   19.4135 H   0  0  0  0  0  0
  -28.6258  -23.0817   23.0891 H   0  0  0  0  0  0
  -27.0262  -22.5127   22.6772 H   0  0  0  0  0  0
  -26.5328  -22.1101   20.0974 H   0  0  0  0  0  0
  -27.8440  -22.4241   18.9913 H   0  0  0  0  0  0
  -26.7443  -20.1625   21.7344 H   0  0  0  0  0  0
  -25.1352  -17.8023   22.4801 H   0  0  0  0  0  0
  -26.5700  -19.6227   23.8866 H   0  0  0  0  0  0
  -26.7716  -18.2992   24.9688 H   0  0  0  0  0  0
  -26.6812  -24.4539   20.8465 H   0  0  0  0  0  0
  -28.0077  -24.9069   21.8679 H   0  0  0  0  0  0
  -28.0088  -25.0685   18.8275 H   0  0  0  0  0  0
  -29.4808  -25.0159   19.7424 H   0  0  0  0  0  0
  -30.4409  -16.2829   19.7491 H   0  0  0  0  0  0
  -29.2318  -22.9992   20.8294 H   0  0  0  0  0  0
  1 25  1  0  0  0
  1 30  2  0  0  0
  1 91  1  0  0  0
  2  3  1  0  0  0
  2 25  1  0  0  0
  2 93  1  0  0  0
  2 94  1  0  0  0
  3  4  1  0  0  0
  3 95  1  0  0  0
  3 96  1  0  0  0
  4  5  1  0  0  0
  4 97  1  0  0  0
  4 98  1  0  0  0
  5  6  1  0  0  0
  5 26  1  0  0  0
  5 99  1  0  0  0
  6 25  1  0  0  0
  6100  1  0  0  0
  6101  1  0  0  0
  7  8  2  0  0  0
  7 26  1  0  0  0
  7 29  1  0  0  0
  8  9  1  0  0  0
  8 22  1  0  0  0
  9 10  1  0  0  0
  9 27  2  0  0  0
 10 11  2  0  0  0
 10 15  1  0  0  0
 11 12  1  0  0  0
 11102  1  0  0  0
 12 13  2  0  0  0
 12103  1  0  0  0
 13 14  1  0  0  0
 13 31  1  0  0  0
 14 15  2  0  0  0
 14104  1  0  0  0
 15105  1  0  0  0
 16 17  2  0  0  0
 16 21  1  0  0  0
 16 31  1  0  0  0
 17 18  1  0  0  0
 17106  1  0  0  0
 18 19  2  0  0  0
 18107  1  0  0  0
 19 20  1  0  0  0
 19 24  1  0  0  0
 20 21  2  0  0  0
 20108  1  0  0  0
 21 23  1  0  0  0
 22 28  1  0  0  0
 22 32  2  0  0  0
 26 27  1  0  0  0
 28109  1  0  0  0
 28110  1  0  0  0
 29111  1  0  0  0
 29112  1  0  0  0
 33 34  1  0  0  0
 33 66  1  0  0  0
 33 70  2  0  0  0
 34 36  1  0  0  0
 34 59  1  0  0  0
 34113  1  0  0  0
 35 44  2  0  0  0
 35 45  1  0  0  0
 35 68  1  0  0  0
 36 56  1  0  0  0
 36114  1  0  0  0
 37 39  1  0  0  0
 37 47  1  0  0  0
 37 66  1  0  0  0
 37115  1  0  0  0
 38 43  2  0  0  0
 38 46  1  0  0  0
 38 47  1  0  0  0
 39 64  1  0  0  0
 39 67  2  0  0  0
 40 52  1  0  0  0
 40 53  2  0  0  0
 40 58  1  0  0  0
 41116  1  0  0  0
 41117  1  0  0  0
 41118  1  0  0  0
 41 48  1  0  0  0
 42 43  1  0  0  0
 42 66  1  0  0  0
 42119  1  0  0  0
 42120  1  0  0  0
 43 44  1  0  0  0
 44121  1  0  0  0
 45 46  2  0  0  0
 45122  1  0  0  0
 46123  1  0  0  0
 47124  1  0  0  0
 47125  1  0  0  0
 48 56  1  0  0  0
 48 65  1  0  0  0
 48126  1  0  0  0
 49 50  1  0  0  0
 49 53  1  0  0  0
 49 64  1  0  0  0
 49127  1  0  0  0
 50 51  1  0  0  0
 50128  1  0  0  0
 50129  1  0  0  0
 51 52  1  0  0  0
 51130  1  0  0  0
 51131  1  0  0  0
 52132  1  0  0  0
 52133  1  0  0  0
 53 54  1  0  0  0
 54 55  2  0  0  0
 54134  1  0  0  0
 55 57  1  0  0  0
 55135  1  0  0  0
 56 69  2  0  0  0
 57 58  2  0  0  0
 57136  1  0  0  0
 58137  1  0  0  0
 59 60  1  0  0  0
 59 61  1  0  0  0
 59 62  1  0  0  0
 60138  1  0  0  0
 60139  1  0  0  0
 60140  1  0  0  0
 61141  1  0  0  0
 61142  1  0  0  0
 61143  1  0  0  0
 62144  1  0  0  0
 62145  1  0  0  0
 62146  1  0  0  0
 63 65  1  0  0  0
 63147  1  0  0  0
 63148  1  0  0  0
 63149  1  0  0  0
 64150  1  0  0  0
 65151  1  0  0  0
 68 89  1  0  0  0
 71 73  2  0  0  0
 71 75  1  0  0  0
 71152  1  0  0  0
 72 74  2  0  0  0
 72 90  1  0  0  0
 72153  1  0  0  0
 73 74  1  0  0  0
 73 85  1  0  0  0
 74 87  1  0  0  0
 75 90  2  0  0  0
 75 91  1  0  0  0
 76 77  1  0  0  0
 76 78  1  0  0  0
 76154  1  0  0  0
 76155  1  0  0  0
 77 79  1  0  0  0
 77156  1  0  0  0
 77157  1  0  0  0
 78 80  1  0  0  0
 78158  1  0  0  0
 78159  1  0  0  0
 79 86  1  0  0  0
 79160  1  0  0  0
 79161  1  0  0  0
 80 86  1  0  0  0
 80162  1  0  0  0
 80163  1  0  0  0
 81 83  1  0  0  0
 81 85  1  0  0  0
 81164  1  0  0  0
 81165  1  0  0  0
 82 84  1  0  0  0
 82 85  1  0  0  0
 82166  1  0  0  0
 82167  1  0  0  0
 83 92  1  0  0  0
 83168  1  0  0  0
 83169  1  0  0  0
 84 92  1  0  0  0
 84170  1  0  0  0
 84171  1  0  0  0
 85172  1  0  0  0
 86 87  1  0  0  0
 86173  1  0  0  0
 87174  1  0  0  0
 87175  1  0  0  0
 88 89  1  0  0  0
 88176  1  0  0  0
 88177  1  0  0  0
 88 92  1  0  0  0
 89178  1  0  0  0
 89179  1  0  0  0
 91180  1  0  0  0
 92181  1  0  0  0
M  CHG  1  92   1
M  ISO  4   1 100  68 101  89 101  91 100
M  END
> <chiral flag>
0

> <version>
0

> <s_m_source_file>
/data/baiqing/PycharmProjects/Reinvent-master-3.2/result/LINK_invent/BTK/process_docking_weight1_custom_sum_contain_oxygen_bond_distance_aromatic_linkinvent_7_9_3/rearranged_h_0125.sdf

> <i_m_source_file_index>
83

> <r_mmod_Potential_Energy-OPLS-2005>
-185.699584960938

> <r_mmod_Stretch_Energy-OPLS-2005>
46.1436729431152

> <r_mmod_Bend_Energy-OPLS-2005>
144.167129516602

> <r_mmod_Torsional_Energy-OPLS-2005>
299.564605712891

> <r_mmod_Improper_Torsional_Energy-OPLS-2005>
19.6121788024902

> <r_mmod_Van_der_Waal_Energy-OPLS-2005>
144.151123046875

> <r_mmod_Electrostatic_Energy-OPLS-2005>
-418.872131347656

> <r_mmod_Solvation_Energy-OPLS-2005>
-443.200836181641

> <b_mmod_Minimization_Converged-OPLS-2005>
0

> <r_mmod_RMS_Derivative-OPLS-2005>
1.82682132720947

$$$$
84
                    3D
 Structure written by MMmdl.
176186  0  0  1  0            999 V2000
  -30.7358  -14.6134   20.4101 C   0  0  0  0  0  0
  -30.4155  -12.3615   19.4538 C   0  0  0  0  0  0
  -29.4944  -12.4224   18.2191 C   0  0  0  0  0  0
  -28.0163  -12.2931   18.6422 C   0  0  0  0  0  0
  -27.6328  -13.1957   19.8456 C   0  0  2  0  0  0
  -28.6992  -13.1788   20.9655 C   0  0  0  0  0  0
  -25.2538  -13.8094   20.5751 C   0  0  0  0  0  0
  -24.1801  -13.0388   20.9252 C   0  0  0  0  0  0
  -24.6362  -11.6856   20.8828 C   0  0  0  0  0  0
  -23.9029  -10.4256   21.0455 C   0  0  0  0  0  0
  -24.3599   -9.4170   21.9215 C   0  0  0  0  0  0
  -23.6278   -8.2211   22.0758 C   0  0  0  0  0  0
  -22.4257   -8.0272   21.3537 C   0  0  0  0  0  0
  -21.9895   -9.0245   20.4640 C   0  0  0  0  0  0
  -22.7225  -10.2120   20.3075 C   0  0  0  0  0  0
  -21.6835   -6.0739   22.5280 C   0  0  0  0  0  0
  -21.4006   -6.5646   23.8215 C   0  0  0  0  0  0
  -21.3657   -5.6799   24.9172 C   0  0  0  0  0  0
  -21.6052   -4.3062   24.7228 C   0  0  0  0  0  0
  -21.8820   -3.8151   23.4350 C   0  0  0  0  0  0
  -21.9187   -4.6968   22.3402 C   0  0  0  0  0  0
  -22.7832  -13.5209   21.1863 C   0  0  0  0  0  0
  -22.1655   -4.2154   21.0978 F   0  0  0  0  0  0
  -21.5624   -3.4553   25.7745 F   0  0  0  0  0  0
  -30.0077  -13.4528   20.3565 N   0  0  0  0  0  0
  -26.2911  -12.9209   20.3381 N   0  0  0  0  0  0
  -25.9284  -11.6395   20.5890 N   0  0  0  0  0  0
  -22.0458  -12.8201   22.0417 N   0  0  0  0  0  0
  -25.4278  -15.1818   20.4155 N   0  0  0  0  0  0
  -31.9547  -14.5892   20.2412 O   0  0  0  0  0  0
  -21.6619   -6.8878   21.4242 O   0  0  0  0  0  0
  -22.3545  -14.5527   20.6718 O   0  0  0  0  0  0
  -24.6164  -31.8646   23.2076 C   0  0  0  0  0  0
  -25.9035  -32.4801   23.8391 C   0  0  1  0  0  0
  -27.2390  -27.3947   20.1236 C   0  0  0  0  0  0
  -25.5893  -33.8601   24.2325 N   0  0  0  0  0  0
  -23.4090  -30.4836   21.5474 C   0  0  2  0  0  0
  -24.8620  -28.9433   20.1122 C   0  0  0  0  0  0
  -22.7423  -29.4644   22.4988 C   0  0  0  0  0  0
  -18.0276  -28.1377   22.8492 C   0  0  0  0  0  0
  -24.1490  -36.7321   23.2643 C   0  0  0  0  0  0
  -25.9381  -30.8169   21.3676 C   0  0  0  0  0  0
  -26.0194  -29.4461   20.7219 C   0  0  0  0  0  0
  -27.2117  -28.6784   20.7273 C   0  0  0  0  0  0
  -26.0768  -26.9286   19.4776 C   0  0  0  0  0  0
  -24.8882  -27.6855   19.4837 C   0  0  0  0  0  0
  -23.6196  -29.8083   20.1647 C   0  0  0  0  0  0
  -25.4105  -36.3100   24.0337 C   0  0  1  0  0  0
  -20.5863  -28.3685   23.1297 C   0  0  2  0  0  0
  -20.6776  -26.9422   22.5413 C   0  0  0  0  0  0
  -19.5752  -26.6381   21.5217 C   0  0  0  0  0  0
  -18.1924  -26.7929   22.1614 C   0  0  0  0  0  0
  -19.1525  -28.8852   23.2885 C   0  0  0  0  0  0
  -18.9447  -30.1453   23.8900 C   0  0  0  0  0  0
  -17.6450  -30.6591   24.0560 C   0  0  0  0  0  0
  -25.9033  -34.9456   23.5135 C   0  0  0  0  0  0
  -16.5340  -29.9076   23.6340 C   0  0  0  0  0  0
  -16.7266  -28.6493   23.0365 C   0  0  0  0  0  0
  -26.4447  -31.6586   25.0732 C   0  0  0  0  0  0
  -25.3694  -31.3681   26.1474 C   0  0  0  0  0  0
  -27.0303  -30.3020   24.6134 C   0  0  0  0  0  0
  -27.6030  -32.4335   25.7466 C   0  0  0  0  0  0
  -27.5582  -37.1795   24.8454 C   0  0  0  0  0  0
  -21.4154  -29.3038   22.3709 N   0  0  0  0  0  0
  -26.4292  -37.3780   23.9416 N   0  0  0  0  0  0
  -24.6722  -31.0706   22.0995 N   0  0  0  0  0  0
  -23.4157  -28.8205   23.3069 O   0  0  0  0  0  0
  -28.3844  -26.6151   20.0960 O   0  0  0  0  0  0
  -26.5592  -34.8905   22.4693 O   0  0  0  0  0  0
  -23.5347  -32.1430   23.7444 O   0  0  0  0  0  0
  -29.4453  -21.5962   21.1345 C   0  0  0  0  0  0
  -26.5150  -24.8089   22.0823 C   0  0  0  0  0  0
  -29.7361  -17.2938   18.4254 C   0  0  0  0  0  0
  -26.9454  -23.7911   21.0093 C   0  0  0  0  0  0
  -27.7441  -25.6788   22.3725 C   0  0  0  0  0  0
  -31.0669  -17.6030   19.0779 C   0  0  0  0  0  0
  -33.0562  -20.4091   22.6979 C   0  0  0  0  0  0
  -29.1944  -16.1038   19.2261 C   0  0  0  0  0  0
  -32.3040  -19.2266   22.0925 C   0  0  0  0  0  0
  -32.1276  -21.1292   23.6502 C   0  0  0  0  0  0
  -30.2200  -20.6988   22.1676 C   0  0  1  0  0  0
  -28.4188  -24.0910   20.6645 C   0  0  1  0  0  0
  -28.6136  -25.5850   21.1076 C   0  0  1  0  0  0
  -30.8560  -17.1249   20.5217 C   0  0  1  0  0  0
  -29.3939  -23.1290   21.4392 C   0  0  0  0  0  0
  -30.1582  -18.2702   21.3686 C   0  0  0  0  0  0
  -30.0885  -15.8368   20.3734 N   0  0  0  0  0  0
  -30.9631  -19.5492   21.5035 N   0  3  2  0  0  0
  -28.9188  -21.1445   20.1160 O   0  0  0  0  0  0
  -31.1327  -21.6386   22.7953 O   0  0  0  0  0  0
  -31.4599  -12.4308   19.1442 H   0  0  0  0  0  0
  -30.3174  -11.4004   19.9596 H   0  0  0  0  0  0
  -29.7476  -11.6151   17.5295 H   0  0  0  0  0  0
  -29.6596  -13.3446   17.6631 H   0  0  0  0  0  0
  -27.3601  -12.4974   17.7953 H   0  0  0  0  0  0
  -27.8485  -11.2479   18.9042 H   0  0  0  0  0  0
  -27.5702  -14.1929   19.4390 H   0  0  0  0  0  0
  -28.7160  -12.2133   21.4732 H   0  0  0  0  0  0
  -28.4690  -13.9271   21.7256 H   0  0  0  0  0  0
  -25.2745   -9.5650   22.4790 H   0  0  0  0  0  0
  -23.9993   -7.4599   22.7463 H   0  0  0  0  0  0
  -21.0831   -8.8781   19.8936 H   0  0  0  0  0  0
  -22.3707  -10.9678   19.6196 H   0  0  0  0  0  0
  -21.2002   -7.6152   23.9727 H   0  0  0  0  0  0
  -21.1468   -6.0515   25.9073 H   0  0  0  0  0  0
  -22.0604   -2.7613   23.2848 H   0  0  0  0  0  0
  -22.4045  -11.9853   22.4808 H   0  0  0  0  0  0
  -21.1094  -13.1254   22.2633 H   0  0  0  0  0  0
  -24.6677  -15.8433   20.5276 H   0  0  0  0  0  0
  -26.2923  -15.6174   20.1241 H   0  0  0  0  0  0
  -26.7117  -32.5514   23.1164 H   0  0  0  0  0  0
  -25.0089  -33.9778   25.0496 H   0  0  0  0  0  0
  -22.7001  -31.3016   21.4015 H   0  0  0  0  0  0
  -23.3750  -35.9657   23.3307 H   0  0  0  0  0  0
  -24.3602  -36.8951   22.2066 H   0  0  0  0  0  0
  -23.7244  -37.6519   23.6663 H   0  0  0  0  0  0
  -26.0507  -31.5774   20.5932 H   0  0  0  0  0  0
  -26.8255  -30.8776   21.9872 H   0  0  0  0  0  0
  -28.1051  -29.0573   21.2048 H   0  0  0  0  0  0
  -26.0946  -25.9697   18.9796 H   0  0  0  0  0  0
  -24.0057  -27.2970   18.9935 H   0  0  0  0  0  0
  -23.7156  -30.5750   19.3957 H   0  0  0  0  0  0
  -22.7476  -29.2167   19.8800 H   0  0  0  0  0  0
  -25.1261  -36.1977   25.0825 H   0  0  0  0  0  0
  -20.9937  -28.3269   24.1420 H   0  0  0  0  0  0
  -20.5713  -26.2290   23.3599 H   0  0  0  0  0  0
  -21.6643  -26.7500   22.1179 H   0  0  0  0  0  0
  -19.6934  -25.6291   21.1249 H   0  0  0  0  0  0
  -19.6692  -27.3193   20.6746 H   0  0  0  0  0  0
  -17.4196  -26.6696   21.4000 H   0  0  0  0  0  0
  -18.0315  -26.0053   22.8989 H   0  0  0  0  0  0
  -19.7927  -30.7262   24.2267 H   0  0  0  0  0  0
  -17.5005  -31.6272   24.5159 H   0  0  0  0  0  0
  -15.5342  -30.2964   23.7676 H   0  0  0  0  0  0
  -15.8662  -28.0799   22.7093 H   0  0  0  0  0  0
  -24.5871  -30.7034   25.7789 H   0  0  0  0  0  0
  -24.8861  -32.2818   26.4932 H   0  0  0  0  0  0
  -25.8001  -30.8823   27.0237 H   0  0  0  0  0  0
  -26.2851  -29.6750   24.1225 H   0  0  0  0  0  0
  -27.4083  -29.7284   25.4607 H   0  0  0  0  0  0
  -27.8670  -30.4346   23.9280 H   0  0  0  0  0  0
  -27.2668  -33.3675   26.1990 H   0  0  0  0  0  0
  -28.3809  -32.6850   25.0246 H   0  0  0  0  0  0
  -28.0713  -31.8498   26.5402 H   0  0  0  0  0  0
  -28.2558  -38.0131   24.7555 H   0  0  0  0  0  0
  -28.1098  -36.2653   24.6203 H   0  0  0  0  0  0
  -27.2303  -37.1372   25.8853 H   0  0  0  0  0  0
  -20.9340  -29.8735   21.6898 H   0  0  0  0  0  0
  -26.0183  -38.2848   24.1437 H   0  0  0  0  0  0
  -26.1488  -24.3213   22.9864 H   0  0  0  0  0  0
  -25.6975  -25.4249   21.7073 H   0  0  0  0  0  0
  -29.8486  -17.0650   17.3649 H   0  0  0  0  0  0
  -29.0580  -18.1458   18.5029 H   0  0  0  0  0  0
  -26.3222  -23.9009   20.1214 H   0  0  0  0  0  0
  -26.8024  -22.7672   21.3562 H   0  0  0  0  0  0
  -28.2939  -25.2357   23.2044 H   0  0  0  0  0  0
  -27.5043  -26.6952   22.6849 H   0  0  0  0  0  0
  -31.3521  -18.6500   18.9715 H   0  0  0  0  0  0
  -31.8539  -17.0129   18.6026 H   0  0  0  0  0  0
  -33.4083  -21.0905   21.9215 H   0  0  0  0  0  0
  -33.9410  -20.0572   23.2303 H   0  0  0  0  0  0
  -28.1857  -16.3177   19.5832 H   0  0  0  0  0  0
  -29.1396  -15.2673   18.5333 H   0  0  0  0  0  0
  -32.1811  -18.4798   22.8786 H   0  0  0  0  0  0
  -32.9419  -18.7731   21.3337 H   0  0  0  0  0  0
  -32.6431  -21.9550   24.1439 H   0  0  0  0  0  0
  -31.7140  -20.4768   24.4221 H   0  0  0  0  0  0
  -29.5520  -20.3288   22.9472 H   0  0  0  0  0  0
  -28.6007  -23.9847   19.5935 H   0  0  0  0  0  0
  -29.6545  -25.7317   21.3963 H   0  0  0  0  0  0
  -31.8222  -16.9051   20.9744 H   0  0  0  0  0  0
  -30.4098  -23.4988   21.3002 H   0  0  0  0  0  0
  -29.1915  -23.2211   22.5057 H   0  0  0  0  0  0
  -29.9356  -17.8898   22.3670 H   0  0  0  0  0  0
  -29.1909  -18.5131   20.9288 H   0  0  0  0  0  0
  -31.1285  -19.8916   20.5672 H   0  0  0  0  0  0
  1 25  1  0  0  0
  1 30  2  0  0  0
  1 87  1  0  0  0
  2  3  1  0  0  0
  2 25  1  0  0  0
  2 91  1  0  0  0
  2 92  1  0  0  0
  3  4  1  0  0  0
  3 93  1  0  0  0
  3 94  1  0  0  0
  4  5  1  0  0  0
  4 95  1  0  0  0
  4 96  1  0  0  0
  5  6  1  0  0  0
  5 26  1  0  0  0
  5 97  1  0  0  0
  6 25  1  0  0  0
  6 98  1  0  0  0
  6 99  1  0  0  0
  7  8  2  0  0  0
  7 26  1  0  0  0
  7 29  1  0  0  0
  8  9  1  0  0  0
  8 22  1  0  0  0
  9 10  1  0  0  0
  9 27  2  0  0  0
 10 11  2  0  0  0
 10 15  1  0  0  0
 11 12  1  0  0  0
 11100  1  0  0  0
 12 13  2  0  0  0
 12101  1  0  0  0
 13 14  1  0  0  0
 13 31  1  0  0  0
 14 15  2  0  0  0
 14102  1  0  0  0
 15103  1  0  0  0
 16 17  2  0  0  0
 16 21  1  0  0  0
 16 31  1  0  0  0
 17 18  1  0  0  0
 17104  1  0  0  0
 18 19  2  0  0  0
 18105  1  0  0  0
 19 20  1  0  0  0
 19 24  1  0  0  0
 20 21  2  0  0  0
 20106  1  0  0  0
 21 23  1  0  0  0
 22 28  1  0  0  0
 22 32  2  0  0  0
 26 27  1  0  0  0
 28107  1  0  0  0
 28108  1  0  0  0
 29109  1  0  0  0
 29110  1  0  0  0
 33 34  1  0  0  0
 33 66  1  0  0  0
 33 70  2  0  0  0
 34 36  1  0  0  0
 34 59  1  0  0  0
 34111  1  0  0  0
 35 44  2  0  0  0
 35 45  1  0  0  0
 35 68  1  0  0  0
 36 56  1  0  0  0
 36112  1  0  0  0
 37 39  1  0  0  0
 37 47  1  0  0  0
 37 66  1  0  0  0
 37113  1  0  0  0
 38 43  2  0  0  0
 38 46  1  0  0  0
 38 47  1  0  0  0
 39 64  1  0  0  0
 39 67  2  0  0  0
 40 52  1  0  0  0
 40 53  2  0  0  0
 40 58  1  0  0  0
 41114  1  0  0  0
 41115  1  0  0  0
 41116  1  0  0  0
 41 48  1  0  0  0
 42 43  1  0  0  0
 42 66  1  0  0  0
 42117  1  0  0  0
 42118  1  0  0  0
 43 44  1  0  0  0
 44119  1  0  0  0
 45 46  2  0  0  0
 45120  1  0  0  0
 46121  1  0  0  0
 47122  1  0  0  0
 47123  1  0  0  0
 48 56  1  0  0  0
 48 65  1  0  0  0
 48124  1  0  0  0
 49 50  1  0  0  0
 49 53  1  0  0  0
 49 64  1  0  0  0
 49125  1  0  0  0
 50 51  1  0  0  0
 50126  1  0  0  0
 50127  1  0  0  0
 51 52  1  0  0  0
 51128  1  0  0  0
 51129  1  0  0  0
 52130  1  0  0  0
 52131  1  0  0  0
 53 54  1  0  0  0
 54 55  2  0  0  0
 54132  1  0  0  0
 55 57  1  0  0  0
 55133  1  0  0  0
 56 69  2  0  0  0
 57 58  2  0  0  0
 57134  1  0  0  0
 58135  1  0  0  0
 59 60  1  0  0  0
 59 61  1  0  0  0
 59 62  1  0  0  0
 60136  1  0  0  0
 60137  1  0  0  0
 60138  1  0  0  0
 61139  1  0  0  0
 61140  1  0  0  0
 61141  1  0  0  0
 62142  1  0  0  0
 62143  1  0  0  0
 62144  1  0  0  0
 63 65  1  0  0  0
 63145  1  0  0  0
 63146  1  0  0  0
 63147  1  0  0  0
 64148  1  0  0  0
 65149  1  0  0  0
 68 83  1  0  0  0
 71 85  1  0  0  0
 71 89  2  0  0  0
 71 81  1  0  0  0
 72 74  1  0  0  0
 72 75  1  0  0  0
 72150  1  0  0  0
 72151  1  0  0  0
 73 76  1  0  0  0
 73 78  1  0  0  0
 73152  1  0  0  0
 73153  1  0  0  0
 74 82  1  0  0  0
 74154  1  0  0  0
 74155  1  0  0  0
 75 83  1  0  0  0
 75156  1  0  0  0
 75157  1  0  0  0
 76 84  1  0  0  0
 76158  1  0  0  0
 76159  1  0  0  0
 77 79  1  0  0  0
 77 80  1  0  0  0
 77160  1  0  0  0
 77161  1  0  0  0
 78 87  1  0  0  0
 78162  1  0  0  0
 78163  1  0  0  0
 79 88  1  0  0  0
 79164  1  0  0  0
 79165  1  0  0  0
 80 90  1  0  0  0
 80166  1  0  0  0
 80167  1  0  0  0
 81 88  1  0  0  0
 81 90  1  0  0  0
 81168  1  0  0  0
 82 83  1  0  0  0
 82 85  1  0  0  0
 82169  1  0  0  0
 83170  1  0  0  0
 84 86  1  0  0  0
 84 87  1  0  0  0
 84171  1  0  0  0
 85172  1  0  0  0
 85173  1  0  0  0
 86174  1  0  0  0
 86175  1  0  0  0
 86 88  1  0  0  0
 88176  1  0  0  0
M  CHG  1  88   1
M  ISO  4   1 100  68 101  83 101  87 100
M  END
> <chiral flag>
0

> <version>
0

> <s_m_source_file>
/data/baiqing/PycharmProjects/Reinvent-master-3.2/result/LINK_invent/BTK/process_docking_weight1_custom_sum_contain_oxygen_bond_distance_aromatic_linkinvent_7_9_3/rearranged_h_0125.sdf

> <i_m_source_file_index>
84

> <r_mmod_Potential_Energy-OPLS-2005>
234.206069946289

> <r_mmod_Stretch_Energy-OPLS-2005>
69.8069305419922

> <r_mmod_Bend_Energy-OPLS-2005>
209.879547119141

> <r_mmod_Torsional_Energy-OPLS-2005>
463.407165527344

> <r_mmod_Improper_Torsional_Energy-OPLS-2005>
11.3830947875977

> <r_mmod_Van_der_Waal_Energy-OPLS-2005>
136.017547607422

> <r_mmod_Electrostatic_Energy-OPLS-2005>
-273.219085693359

> <r_mmod_Solvation_Energy-OPLS-2005>
-431.192504882812

> <b_mmod_Minimization_Converged-OPLS-2005>
0

> <r_mmod_RMS_Derivative-OPLS-2005>
2.53417301177979

$$$$
85
                    3D
 Structure written by MMmdl.
151159  0  0  1  0            999 V2000
  -30.6744  -14.6399   20.4690 C   0  0  0  0  0  0
  -30.4163  -12.3859   19.4690 C   0  0  0  0  0  0
  -29.5021  -12.4816   18.2300 C   0  0  0  0  0  0
  -28.0250  -12.3324   18.6410 C   0  0  0  0  0  0
  -27.6430  -13.2284   19.8511 C   0  0  2  0  0  0
  -28.6870  -13.1434   20.9864 C   0  0  0  0  0  0
  -25.2510  -13.8209   20.5702 C   0  0  0  0  0  0
  -24.1793  -13.0455   20.9221 C   0  0  0  0  0  0
  -24.6377  -11.6933   20.8753 C   0  0  0  0  0  0
  -23.9058  -10.4305   21.0409 C   0  0  0  0  0  0
  -24.3614   -9.4222   21.9186 C   0  0  0  0  0  0
  -23.6294   -8.2250   22.0747 C   0  0  0  0  0  0
  -22.4274   -8.0288   21.3540 C   0  0  0  0  0  0
  -21.9909   -9.0264   20.4645 C   0  0  0  0  0  0
  -22.7232  -10.2146   20.3058 C   0  0  0  0  0  0
  -21.6851   -6.0743   22.5280 C   0  0  0  0  0  0
  -21.4018   -6.5645   23.8218 C   0  0  0  0  0  0
  -21.3658   -5.6793   24.9178 C   0  0  0  0  0  0
  -21.6039   -4.3056   24.7225 C   0  0  0  0  0  0
  -21.8818   -3.8152   23.4346 C   0  0  0  0  0  0
  -21.9193   -4.6970   22.3404 C   0  0  0  0  0  0
  -22.7812  -13.5237   21.1884 C   0  0  0  0  0  0
  -22.1659   -4.2160   21.0980 F   0  0  0  0  0  0
  -21.5626   -3.4537   25.7736 F   0  0  0  0  0  0
  -29.9978  -13.4506   20.4051 N   0  0  0  0  0  0
  -26.2935  -12.9411   20.3286 N   0  0  0  0  0  0
  -25.9305  -11.6556   20.5757 N   0  0  0  0  0  0
  -22.0453  -12.8226   22.0441 N   0  0  0  0  0  0
  -25.4195  -15.1933   20.4116 N   0  0  0  0  0  0
  -31.8630  -14.6982   20.1460 O   0  0  0  0  0  0
  -21.6637   -6.8886   21.4240 O   0  0  0  0  0  0
  -22.3495  -14.5541   20.6732 O   0  0  0  0  0  0
  -24.6250  -31.8605   23.2020 C   0  0  0  0  0  0
  -25.9102  -32.4787   23.8348 C   0  0  1  0  0  0
  -27.2236  -27.3269   20.1256 C   0  0  0  0  0  0
  -25.5919  -33.8582   24.2287 N   0  0  0  0  0  0
  -23.4193  -30.4825   21.5441 C   0  0  2  0  0  0
  -24.8671  -28.9358   20.1125 C   0  0  0  0  0  0
  -22.7472  -29.4622   22.4936 C   0  0  0  0  0  0
  -18.0286  -28.1394   22.8491 C   0  0  0  0  0  0
  -24.1481  -36.7293   23.2640 C   0  0  0  0  0  0
  -25.9581  -30.7954   21.3689 C   0  0  0  0  0  0
  -26.0349  -29.4210   20.7161 C   0  0  0  0  0  0
  -27.2205  -28.6286   20.7106 C   0  0  0  0  0  0
  -26.0395  -26.8925   19.4940 C   0  0  0  0  0  0
  -24.8701  -27.6762   19.4918 C   0  0  0  0  0  0
  -23.6343  -29.8149   20.1600 C   0  0  0  0  0  0
  -25.4107  -36.3092   24.0337 C   0  0  1  0  0  0
  -20.5886  -28.3695   23.1287 C   0  0  2  0  0  0
  -20.6776  -26.9419   22.5415 C   0  0  0  0  0  0
  -19.5752  -26.6393   21.5217 C   0  0  0  0  0  0
  -18.1932  -26.7938   22.1628 C   0  0  0  0  0  0
  -19.1539  -28.8861   23.2886 C   0  0  0  0  0  0
  -18.9461  -30.1464   23.8903 C   0  0  0  0  0  0
  -17.6463  -30.6597   24.0568 C   0  0  0  0  0  0
  -25.9043  -34.9458   23.5115 C   0  0  0  0  0  0
  -16.5353  -29.9099   23.6329 C   0  0  0  0  0  0
  -16.7274  -28.6515   23.0351 C   0  0  0  0  0  0
  -26.4494  -31.6589   25.0707 C   0  0  0  0  0  0
  -25.3737  -31.3724   26.1442 C   0  0  0  0  0  0
  -27.0333  -30.3019   24.6139 C   0  0  0  0  0  0
  -27.6058  -32.4312   25.7483 C   0  0  0  0  0  0
  -27.5576  -37.1806   24.8474 C   0  0  0  0  0  0
  -21.4185  -29.3047   22.3681 N   0  0  0  0  0  0
  -26.4288  -37.3783   23.9413 N   0  0  0  0  0  0
  -24.6865  -31.0622   22.0963 N   0  0  0  0  0  0
  -23.4192  -28.8160   23.3018 O   0  0  0  0  0  0
  -28.3273  -26.4669   20.1494 O   0  0  0  0  0  0
  -26.5613  -34.8926   22.4680 O   0  0  0  0  0  0
  -23.5412  -32.1393   23.7355 O   0  0  0  0  0  0
  -30.2531  -19.5837   19.5517 C   0  0  0  0  0  0
  -28.9576  -18.9195   21.4634 C   0  0  0  0  0  0
  -29.7890  -20.9289   19.6702 C   0  0  0  0  0  0
  -28.4924  -20.2662   21.5799 C   0  0  0  0  0  0
  -29.8692  -18.5439   20.4472 C   0  0  0  0  0  0
  -28.9031  -21.3133   20.7071 C   0  0  0  0  0  0
  -30.5970  -17.1497   20.3608 C   0  0  0  0  0  0
  -28.7904  -23.8070   20.1704 C   0  0  0  0  0  0
  -28.1065  -25.1286   20.7483 C   0  0  0  0  0  0
  -29.9752  -15.8087   20.6519 N   0  0  0  0  0  0
  -28.4178  -22.6165   20.9435 O   0  0  0  0  0  0
  -31.4631  -12.4723   19.1729 H   0  0  0  0  0  0
  -30.3237  -11.4080   19.9445 H   0  0  0  0  0  0
  -29.7676  -11.7109   17.5050 H   0  0  0  0  0  0
  -29.6533  -13.4389   17.7294 H   0  0  0  0  0  0
  -27.8592  -11.2836   18.8911 H   0  0  0  0  0  0
  -27.3741  -12.5462   17.7929 H   0  0  0  0  0  0
  -27.6469  -14.2531   19.4790 H   0  0  0  0  0  0
  -28.6952  -12.1478   21.4330 H   0  0  0  0  0  0
  -28.4413  -13.8387   21.7905 H   0  0  0  0  0  0
  -25.2758   -9.5702   22.4762 H   0  0  0  0  0  0
  -24.0013   -7.4634   22.7451 H   0  0  0  0  0  0
  -21.0847   -8.8781   19.8940 H   0  0  0  0  0  0
  -22.3691  -10.9688   19.6168 H   0  0  0  0  0  0
  -21.2012   -7.6153   23.9732 H   0  0  0  0  0  0
  -21.1475   -6.0517   25.9083 H   0  0  0  0  0  0
  -22.0595   -2.7616   23.2841 H   0  0  0  0  0  0
  -22.4067  -11.9903   22.4859 H   0  0  0  0  0  0
  -21.1059  -13.1239   22.2617 H   0  0  0  0  0  0
  -24.6509  -15.8457   20.5245 H   0  0  0  0  0  0
  -26.2650  -15.6354   20.0742 H   0  0  0  0  0  0
  -26.7167  -32.5474   23.1095 H   0  0  0  0  0  0
  -25.0082  -33.9724   25.0444 H   0  0  0  0  0  0
  -22.7126  -31.3024   21.3998 H   0  0  0  0  0  0
  -23.3742  -35.9627   23.3315 H   0  0  0  0  0  0
  -24.3570  -36.8893   22.2050 H   0  0  0  0  0  0
  -23.7229  -37.6501   23.6641 H   0  0  0  0  0  0
  -26.0798  -31.5546   20.5949 H   0  0  0  0  0  0
  -26.8420  -30.8530   21.9920 H   0  0  0  0  0  0
  -28.1184  -28.9947   21.1880 H   0  0  0  0  0  0
  -26.0123  -25.9257   19.0111 H   0  0  0  0  0  0
  -23.9758  -27.2988   19.0146 H   0  0  0  0  0  0
  -23.7544  -30.5901   19.4023 H   0  0  0  0  0  0
  -22.7551  -29.2436   19.8579 H   0  0  0  0  0  0
  -25.1280  -36.1954   25.0829 H   0  0  0  0  0  0
  -20.9980  -28.3277   24.1407 H   0  0  0  0  0  0
  -20.5682  -26.2309   23.3616 H   0  0  0  0  0  0
  -21.6645  -26.7460   22.1204 H   0  0  0  0  0  0
  -19.6912  -25.6302   21.1249 H   0  0  0  0  0  0
  -19.6686  -27.3203   20.6744 H   0  0  0  0  0  0
  -17.4200  -26.6684   21.4032 H   0  0  0  0  0  0
  -18.0332  -26.0084   22.9027 H   0  0  0  0  0  0
  -19.7937  -30.7281   24.2270 H   0  0  0  0  0  0
  -17.5019  -31.6276   24.5176 H   0  0  0  0  0  0
  -15.5355  -30.3006   23.7654 H   0  0  0  0  0  0
  -15.8670  -28.0842   22.7059 H   0  0  0  0  0  0
  -24.5915  -30.7065   25.7775 H   0  0  0  0  0  0
  -24.8924  -32.2891   26.4860 H   0  0  0  0  0  0
  -25.8075  -30.8912   27.0217 H   0  0  0  0  0  0
  -26.2900  -29.6774   24.1170 H   0  0  0  0  0  0
  -27.4050  -29.7265   25.4626 H   0  0  0  0  0  0
  -27.8754  -30.4308   23.9337 H   0  0  0  0  0  0
  -27.2675  -33.3605   26.2073 H   0  0  0  0  0  0
  -28.3872  -32.6881   25.0320 H   0  0  0  0  0  0
  -28.0722  -31.8428   26.5393 H   0  0  0  0  0  0
  -28.2615  -38.0083   24.7502 H   0  0  0  0  0  0
  -28.1049  -36.2617   24.6321 H   0  0  0  0  0  0
  -27.2297  -37.1489   25.8879 H   0  0  0  0  0  0
  -20.9362  -29.8772   21.6893 H   0  0  0  0  0  0
  -26.0177  -38.2860   24.1408 H   0  0  0  0  0  0
  -30.9592  -19.3597   18.7640 H   0  0  0  0  0  0
  -28.6430  -18.1886   22.1952 H   0  0  0  0  0  0
  -30.1424  -21.6650   18.9623 H   0  0  0  0  0  0
  -27.8175  -20.5077   22.3889 H   0  0  0  0  0  0
  -31.4700  -17.2366   21.0102 H   0  0  0  0  0  0
  -31.0071  -17.0843   19.3509 H   0  0  0  0  0  0
  -29.8755  -23.9180   20.1773 H   0  0  0  0  0  0
  -28.4907  -23.6629   19.1322 H   0  0  0  0  0  0
  -28.4322  -25.2246   21.7846 H   0  0  0  0  0  0
  -27.0405  -24.9172   20.8294 H   0  0  0  0  0  0
  -28.9880  -15.7630   20.8520 H   0  0  0  0  0  0
  1 25  1  0  0  0
  1 30  2  0  0  0
  1 80  1  0  0  0
  2  3  1  0  0  0
  2 25  1  0  0  0
  2 82  1  0  0  0
  2 83  1  0  0  0
  3  4  1  0  0  0
  3 84  1  0  0  0
  3 85  1  0  0  0
  4  5  1  0  0  0
  4 86  1  0  0  0
  4 87  1  0  0  0
  5  6  1  0  0  0
  5 26  1  0  0  0
  5 88  1  0  0  0
  6 25  1  0  0  0
  6 89  1  0  0  0
  6 90  1  0  0  0
  7  8  2  0  0  0
  7 26  1  0  0  0
  7 29  1  0  0  0
  8  9  1  0  0  0
  8 22  1  0  0  0
  9 10  1  0  0  0
  9 27  2  0  0  0
 10 11  2  0  0  0
 10 15  1  0  0  0
 11 12  1  0  0  0
 11 91  1  0  0  0
 12 13  2  0  0  0
 12 92  1  0  0  0
 13 14  1  0  0  0
 13 31  1  0  0  0
 14 15  2  0  0  0
 14 93  1  0  0  0
 15 94  1  0  0  0
 16 17  2  0  0  0
 16 21  1  0  0  0
 16 31  1  0  0  0
 17 18  1  0  0  0
 17 95  1  0  0  0
 18 19  2  0  0  0
 18 96  1  0  0  0
 19 20  1  0  0  0
 19 24  1  0  0  0
 20 21  2  0  0  0
 20 97  1  0  0  0
 21 23  1  0  0  0
 22 28  1  0  0  0
 22 32  2  0  0  0
 26 27  1  0  0  0
 28 98  1  0  0  0
 28 99  1  0  0  0
 29100  1  0  0  0
 29101  1  0  0  0
 33 34  1  0  0  0
 33 66  1  0  0  0
 33 70  2  0  0  0
 34 36  1  0  0  0
 34 59  1  0  0  0
 34102  1  0  0  0
 35 44  2  0  0  0
 35 45  1  0  0  0
 35 68  1  0  0  0
 36 56  1  0  0  0
 36103  1  0  0  0
 37 39  1  0  0  0
 37 47  1  0  0  0
 37 66  1  0  0  0
 37104  1  0  0  0
 38 43  2  0  0  0
 38 46  1  0  0  0
 38 47  1  0  0  0
 39 64  1  0  0  0
 39 67  2  0  0  0
 40 52  1  0  0  0
 40 53  2  0  0  0
 40 58  1  0  0  0
 41105  1  0  0  0
 41106  1  0  0  0
 41107  1  0  0  0
 41 48  1  0  0  0
 42 43  1  0  0  0
 42 66  1  0  0  0
 42108  1  0  0  0
 42109  1  0  0  0
 43 44  1  0  0  0
 44110  1  0  0  0
 45 46  2  0  0  0
 45111  1  0  0  0
 46112  1  0  0  0
 47113  1  0  0  0
 47114  1  0  0  0
 48 56  1  0  0  0
 48 65  1  0  0  0
 48115  1  0  0  0
 49 50  1  0  0  0
 49 53  1  0  0  0
 49 64  1  0  0  0
 49116  1  0  0  0
 50 51  1  0  0  0
 50117  1  0  0  0
 50118  1  0  0  0
 51 52  1  0  0  0
 51119  1  0  0  0
 51120  1  0  0  0
 52121  1  0  0  0
 52122  1  0  0  0
 53 54  1  0  0  0
 54 55  2  0  0  0
 54123  1  0  0  0
 55 57  1  0  0  0
 55124  1  0  0  0
 56 69  2  0  0  0
 57 58  2  0  0  0
 57125  1  0  0  0
 58126  1  0  0  0
 59 60  1  0  0  0
 59 61  1  0  0  0
 59 62  1  0  0  0
 60127  1  0  0  0
 60128  1  0  0  0
 60129  1  0  0  0
 61130  1  0  0  0
 61131  1  0  0  0
 61132  1  0  0  0
 62133  1  0  0  0
 62134  1  0  0  0
 62135  1  0  0  0
 63 65  1  0  0  0
 63136  1  0  0  0
 63137  1  0  0  0
 63138  1  0  0  0
 64139  1  0  0  0
 65140  1  0  0  0
 68 79  1  0  0  0
 71 73  2  0  0  0
 71 75  1  0  0  0
 71141  1  0  0  0
 72 74  1  0  0  0
 72 75  2  0  0  0
 72142  1  0  0  0
 73 76  1  0  0  0
 73143  1  0  0  0
 74 76  2  0  0  0
 74144  1  0  0  0
 75 77  1  0  0  0
 76 81  1  0  0  0
 77 80  1  0  0  0
 77145  1  0  0  0
 77146  1  0  0  0
 78 79  1  0  0  0
 78 81  1  0  0  0
 78147  1  0  0  0
 78148  1  0  0  0
 79149  1  0  0  0
 79150  1  0  0  0
 80151  1  0  0  0
M  ISO  4   1 100  68 101  79 101  80 100
M  END
> <chiral flag>
0

> <version>
0

> <s_m_source_file>
/data/baiqing/PycharmProjects/Reinvent-master-3.2/result/LINK_invent/BTK/process_docking_weight1_custom_sum_contain_oxygen_bond_distance_aromatic_linkinvent_7_9_3/rearranged_h_0125.sdf

> <i_m_source_file_index>
85

> <r_mmod_Potential_Energy-OPLS-2005>
36.7274284362793

> <r_mmod_Stretch_Energy-OPLS-2005>
76.701904296875

> <r_mmod_Bend_Energy-OPLS-2005>
155.474868774414

> <r_mmod_Torsional_Energy-OPLS-2005>
221.02214050293

> <r_mmod_Improper_Torsional_Energy-OPLS-2005>
6.35961389541626

> <r_mmod_Van_der_Waal_Energy-OPLS-2005>
143.365112304688

> <r_mmod_Electrostatic_Energy-OPLS-2005>
-407.782104492188

> <r_mmod_Solvation_Energy-OPLS-2005>
-210.192901611328

> <b_mmod_Minimization_Converged-OPLS-2005>
0

> <r_mmod_RMS_Derivative-OPLS-2005>
0.90838497877121

$$$$
86
                    3D
 Structure written by MMmdl.
163171  0  0  1  0            999 V2000
  -30.6895  -14.6216   20.5265 C   0  0  0  0  0  0
  -30.4276  -12.3926   19.4548 C   0  0  0  0  0  0
  -29.5011  -12.4971   18.2254 C   0  0  0  0  0  0
  -28.0261  -12.3431   18.6416 C   0  0  0  0  0  0
  -27.6512  -13.2262   19.8619 C   0  0  2  0  0  0
  -28.6990  -13.1097   20.9922 C   0  0  0  0  0  0
  -25.2549  -13.8201   20.5715 C   0  0  0  0  0  0
  -24.1825  -13.0451   20.9212 C   0  0  0  0  0  0
  -24.6411  -11.6925   20.8761 C   0  0  0  0  0  0
  -23.9093  -10.4305   21.0420 C   0  0  0  0  0  0
  -24.3632   -9.4212   21.9196 C   0  0  0  0  0  0
  -23.6302   -8.2249   22.0762 C   0  0  0  0  0  0
  -22.4285   -8.0294   21.3546 C   0  0  0  0  0  0
  -21.9928   -9.0275   20.4653 C   0  0  0  0  0  0
  -22.7267  -10.2149   20.3069 C   0  0  0  0  0  0
  -21.6848   -6.0747   22.5279 C   0  0  0  0  0  0
  -21.4013   -6.5649   23.8214 C   0  0  0  0  0  0
  -21.3654   -5.6796   24.9174 C   0  0  0  0  0  0
  -21.6040   -4.3062   24.7223 C   0  0  0  0  0  0
  -21.8819   -3.8157   23.4344 C   0  0  0  0  0  0
  -21.9194   -4.6974   22.3401 C   0  0  0  0  0  0
  -22.7845  -13.5232   21.1861 C   0  0  0  0  0  0
  -22.1661   -4.2165   21.0975 F   0  0  0  0  0  0
  -21.5626   -3.4540   25.7735 F   0  0  0  0  0  0
  -30.0120  -13.4345   20.4168 N   0  0  0  0  0  0
  -26.2987  -12.9394   20.3347 N   0  0  0  0  0  0
  -25.9344  -11.6539   20.5800 N   0  0  0  0  0  0
  -22.0485  -12.8226   22.0411 N   0  0  0  0  0  0
  -25.4258  -15.1924   20.4118 N   0  0  0  0  0  0
  -31.8562  -14.7208   20.1404 O   0  0  0  0  0  0
  -21.6636   -6.8896   21.4244 O   0  0  0  0  0  0
  -22.3529  -14.5532   20.6706 O   0  0  0  0  0  0
  -24.6297  -31.8624   23.2088 C   0  0  0  0  0  0
  -25.9148  -32.4790   23.8401 C   0  0  1  0  0  0
  -27.2029  -27.2915   20.1115 C   0  0  0  0  0  0
  -25.5968  -33.8594   24.2310 N   0  0  0  0  0  0
  -23.4224  -30.4946   21.5529 C   0  0  2  0  0  0
  -24.8659  -28.9662   20.1080 C   0  0  0  0  0  0
  -22.7499  -29.4645   22.4931 C   0  0  0  0  0  0
  -18.0301  -28.1390   22.8496 C   0  0  0  0  0  0
  -24.1494  -36.7287   23.2635 C   0  0  0  0  0  0
  -25.9722  -30.7809   21.3929 C   0  0  0  0  0  0
  -26.0408  -29.4115   20.7281 C   0  0  0  0  0  0
  -27.2097  -28.5832   20.7338 C   0  0  0  0  0  0
  -26.0076  -26.9481   19.4211 C   0  0  0  0  0  0
  -24.8536  -27.7379   19.4473 C   0  0  0  0  0  0
  -23.6383  -29.8496   20.1633 C   0  0  0  0  0  0
  -25.4122  -36.3089   24.0326 C   0  0  1  0  0  0
  -20.5909  -28.3705   23.1273 C   0  0  2  0  0  0
  -20.6805  -26.9429   22.5405 C   0  0  0  0  0  0
  -19.5770  -26.6386   21.5226 C   0  0  0  0  0  0
  -18.1946  -26.7938   22.1627 C   0  0  0  0  0  0
  -19.1555  -28.8863   23.2874 C   0  0  0  0  0  0
  -18.9473  -30.1468   23.8887 C   0  0  0  0  0  0
  -17.6473  -30.6598   24.0572 C   0  0  0  0  0  0
  -25.9059  -34.9457   23.5107 C   0  0  0  0  0  0
  -16.5365  -29.9098   23.6338 C   0  0  0  0  0  0
  -16.7287  -28.6512   23.0364 C   0  0  0  0  0  0
  -26.4520  -31.6607   25.0773 C   0  0  0  0  0  0
  -25.3744  -31.3754   26.1490 C   0  0  0  0  0  0
  -27.0375  -30.3025   24.6263 C   0  0  0  0  0  0
  -27.6067  -32.4358   25.7544 C   0  0  0  0  0  0
  -27.5584  -37.1800   24.8465 C   0  0  0  0  0  0
  -21.4209  -29.3052   22.3655 N   0  0  0  0  0  0
  -26.4300  -37.3784   23.9406 N   0  0  0  0  0  0
  -24.6934  -31.0616   22.1065 N   0  0  0  0  0  0
  -23.4213  -28.8159   23.2997 O   0  0  0  0  0  0
  -28.2613  -26.3506   20.2087 O   0  0  0  0  0  0
  -26.5610  -34.8915   22.4659 O   0  0  0  0  0  0
  -23.5457  -32.1444   23.7390 O   0  0  0  0  0  0
  -28.5414  -21.1151   19.8597 C   0  0  0  0  0  0
  -30.0954  -22.2221   21.2792 C   0  0  0  0  0  0
  -28.0067  -22.3914   19.5345 C   0  0  0  0  0  0
  -29.6156  -20.9801   20.7575 C   0  0  0  0  0  0
  -28.5649  -23.5821   20.1096 C   0  0  0  0  0  0
  -25.6788  -21.4985   18.9641 C   0  0  0  0  0  0
  -27.3374  -22.0901   17.1250 C   0  0  0  0  0  0
  -30.9935  -17.1875   22.6459 C   0  0  0  0  0  0
  -27.8945  -24.9736   19.7679 C   0  0  0  0  0  0
  -29.6288  -18.3532   20.7856 C   0  0  0  0  0  0
  -26.8379  -22.4185   18.5384 C   0  0  0  0  0  0
  -30.5601  -17.1145   21.1700 C   0  0  2  0  0  0
  -29.6023  -23.4685   20.9813 N   0  0  0  0  0  0
  -30.1908  -19.7068   21.1032 N   0  0  0  0  0  0
  -30.0008  -15.7349   20.9291 N   0  0  0  0  0  0
  -31.4693  -12.4978   19.1466 H   0  0  0  0  0  0
  -30.3532  -11.4059   19.9141 H   0  0  0  0  0  0
  -29.7620  -11.7320   17.4926 H   0  0  0  0  0  0
  -29.6470  -13.4593   17.7315 H   0  0  0  0  0  0
  -27.8618  -11.2922   18.8826 H   0  0  0  0  0  0
  -27.3696  -12.5663   17.7997 H   0  0  0  0  0  0
  -27.6641  -14.2582   19.5090 H   0  0  0  0  0  0
  -28.7112  -12.0996   21.4038 H   0  0  0  0  0  0
  -28.4511  -13.7716   21.8233 H   0  0  0  0  0  0
  -25.2776   -9.5669   22.4778 H   0  0  0  0  0  0
  -24.0003   -7.4632   22.7478 H   0  0  0  0  0  0
  -21.0863   -8.8809   19.8958 H   0  0  0  0  0  0
  -22.3742  -10.9693   19.6181 H   0  0  0  0  0  0
  -21.2006   -7.6157   23.9724 H   0  0  0  0  0  0
  -21.1468   -6.0524   25.9075 H   0  0  0  0  0  0
  -22.0603   -2.7623   23.2836 H   0  0  0  0  0  0
  -22.4095  -11.9881   22.4789 H   0  0  0  0  0  0
  -21.1110  -13.1259   22.2631 H   0  0  0  0  0  0
  -24.6624  -15.8500   20.5309 H   0  0  0  0  0  0
  -26.2761  -15.6293   20.0789 H   0  0  0  0  0  0
  -26.7213  -32.5457   23.1147 H   0  0  0  0  0  0
  -25.0176  -33.9754   25.0496 H   0  0  0  0  0  0
  -22.7170  -31.3177   21.4191 H   0  0  0  0  0  0
  -23.3767  -35.9611   23.3306 H   0  0  0  0  0  0
  -24.3584  -36.8905   22.2052 H   0  0  0  0  0  0
  -23.7244  -37.6482   23.6661 H   0  0  0  0  0  0
  -26.1189  -31.5484   20.6321 H   0  0  0  0  0  0
  -26.8465  -30.8190   22.0305 H   0  0  0  0  0  0
  -28.0971  -28.9105   21.2569 H   0  0  0  0  0  0
  -25.8922  -26.0408   18.8504 H   0  0  0  0  0  0
  -23.9612  -27.3977   18.9406 H   0  0  0  0  0  0
  -23.7634  -30.6369   19.4190 H   0  0  0  0  0  0
  -22.7561  -29.2882   19.8508 H   0  0  0  0  0  0
  -25.1303  -36.1937   25.0821 H   0  0  0  0  0  0
  -20.9999  -28.3296   24.1397 H   0  0  0  0  0  0
  -20.5751  -26.2314   23.3604 H   0  0  0  0  0  0
  -21.6664  -26.7489   22.1165 H   0  0  0  0  0  0
  -19.6928  -25.6294   21.1265 H   0  0  0  0  0  0
  -19.6705  -27.3188   20.6752 H   0  0  0  0  0  0
  -17.4218  -26.6703   21.4023 H   0  0  0  0  0  0
  -18.0318  -26.0079   22.9015 H   0  0  0  0  0  0
  -19.7953  -30.7290   24.2244 H   0  0  0  0  0  0
  -17.5038  -31.6285   24.5170 H   0  0  0  0  0  0
  -15.5364  -30.3003   23.7679 H   0  0  0  0  0  0
  -15.8684  -28.0839   22.7082 H   0  0  0  0  0  0
  -24.5914  -30.7106   25.7823 H   0  0  0  0  0  0
  -24.8935  -32.2920   26.4914 H   0  0  0  0  0  0
  -25.8054  -30.8936   27.0275 H   0  0  0  0  0  0
  -26.2973  -29.6759   24.1271 H   0  0  0  0  0  0
  -27.4046  -29.7296   25.4790 H   0  0  0  0  0  0
  -27.8860  -30.4300   23.9535 H   0  0  0  0  0  0
  -27.2676  -33.3680   26.2084 H   0  0  0  0  0  0
  -28.3895  -32.6893   25.0379 H   0  0  0  0  0  0
  -28.0720  -31.8513   26.5493 H   0  0  0  0  0  0
  -28.2588  -38.0110   24.7541 H   0  0  0  0  0  0
  -28.1095  -36.2644   24.6269 H   0  0  0  0  0  0
  -27.2299  -37.1423   25.8865 H   0  0  0  0  0  0
  -20.9379  -29.8799   21.6897 H   0  0  0  0  0  0
  -26.0177  -38.2851   24.1430 H   0  0  0  0  0  0
  -28.1258  -20.2297   19.4031 H   0  0  0  0  0  0
  -30.9212  -22.2195   21.9763 H   0  0  0  0  0  0
  -25.3251  -21.7480   19.9654 H   0  0  0  0  0  0
  -25.9515  -20.4434   18.9607 H   0  0  0  0  0  0
  -24.8299  -21.6075   18.2877 H   0  0  0  0  0  0
  -28.1037  -22.7998   16.8099 H   0  0  0  0  0  0
  -26.5275  -22.1397   16.3969 H   0  0  0  0  0  0
  -27.7722  -21.0914   17.0696 H   0  0  0  0  0  0
  -31.5105  -18.1194   22.8737 H   0  0  0  0  0  0
  -31.6824  -16.3797   22.8955 H   0  0  0  0  0  0
  -30.1368  -17.1122   23.3168 H   0  0  0  0  0  0
  -26.9008  -24.7691   20.1662 H   0  0  0  0  0  0
  -27.8510  -25.0231   18.6791 H   0  0  0  0  0  0
  -28.6729  -18.2537   21.3019 H   0  0  0  0  0  0
  -29.4044  -18.3057   19.7190 H   0  0  0  0  0  0
  -26.3927  -23.4087   18.4819 H   0  0  0  0  0  0
  -31.4633  -17.2118   20.5642 H   0  0  0  0  0  0
  -30.9807  -19.7155   21.7441 H   0  0  0  0  0  0
  -29.0279  -15.5950   21.1570 H   0  0  0  0  0  0
  1 25  1  0  0  0
  1 30  2  0  0  0
  1 85  1  0  0  0
  2  3  1  0  0  0
  2 25  1  0  0  0
  2 86  1  0  0  0
  2 87  1  0  0  0
  3  4  1  0  0  0
  3 88  1  0  0  0
  3 89  1  0  0  0
  4  5  1  0  0  0
  4 90  1  0  0  0
  4 91  1  0  0  0
  5  6  1  0  0  0
  5 26  1  0  0  0
  5 92  1  0  0  0
  6 25  1  0  0  0
  6 93  1  0  0  0
  6 94  1  0  0  0
  7  8  2  0  0  0
  7 26  1  0  0  0
  7 29  1  0  0  0
  8  9  1  0  0  0
  8 22  1  0  0  0
  9 10  1  0  0  0
  9 27  2  0  0  0
 10 11  2  0  0  0
 10 15  1  0  0  0
 11 12  1  0  0  0
 11 95  1  0  0  0
 12 13  2  0  0  0
 12 96  1  0  0  0
 13 14  1  0  0  0
 13 31  1  0  0  0
 14 15  2  0  0  0
 14 97  1  0  0  0
 15 98  1  0  0  0
 16 17  2  0  0  0
 16 21  1  0  0  0
 16 31  1  0  0  0
 17 18  1  0  0  0
 17 99  1  0  0  0
 18 19  2  0  0  0
 18100  1  0  0  0
 19 20  1  0  0  0
 19 24  1  0  0  0
 20 21  2  0  0  0
 20101  1  0  0  0
 21 23  1  0  0  0
 22 28  1  0  0  0
 22 32  2  0  0  0
 26 27  1  0  0  0
 28102  1  0  0  0
 28103  1  0  0  0
 29104  1  0  0  0
 29105  1  0  0  0
 33 34  1  0  0  0
 33 66  1  0  0  0
 33 70  2  0  0  0
 34 36  1  0  0  0
 34 59  1  0  0  0
 34106  1  0  0  0
 35 44  2  0  0  0
 35 45  1  0  0  0
 35 68  1  0  0  0
 36 56  1  0  0  0
 36107  1  0  0  0
 37 39  1  0  0  0
 37 47  1  0  0  0
 37 66  1  0  0  0
 37108  1  0  0  0
 38 43  2  0  0  0
 38 46  1  0  0  0
 38 47  1  0  0  0
 39 64  1  0  0  0
 39 67  2  0  0  0
 40 52  1  0  0  0
 40 53  2  0  0  0
 40 58  1  0  0  0
 41109  1  0  0  0
 41110  1  0  0  0
 41111  1  0  0  0
 41 48  1  0  0  0
 42 43  1  0  0  0
 42 66  1  0  0  0
 42112  1  0  0  0
 42113  1  0  0  0
 43 44  1  0  0  0
 44114  1  0  0  0
 45 46  2  0  0  0
 45115  1  0  0  0
 46116  1  0  0  0
 47117  1  0  0  0
 47118  1  0  0  0
 48 56  1  0  0  0
 48 65  1  0  0  0
 48119  1  0  0  0
 49 50  1  0  0  0
 49 53  1  0  0  0
 49 64  1  0  0  0
 49120  1  0  0  0
 50 51  1  0  0  0
 50121  1  0  0  0
 50122  1  0  0  0
 51 52  1  0  0  0
 51123  1  0  0  0
 51124  1  0  0  0
 52125  1  0  0  0
 52126  1  0  0  0
 53 54  1  0  0  0
 54 55  2  0  0  0
 54127  1  0  0  0
 55 57  1  0  0  0
 55128  1  0  0  0
 56 69  2  0  0  0
 57 58  2  0  0  0
 57129  1  0  0  0
 58130  1  0  0  0
 59 60  1  0  0  0
 59 61  1  0  0  0
 59 62  1  0  0  0
 60131  1  0  0  0
 60132  1  0  0  0
 60133  1  0  0  0
 61134  1  0  0  0
 61135  1  0  0  0
 61136  1  0  0  0
 62137  1  0  0  0
 62138  1  0  0  0
 62139  1  0  0  0
 63 65  1  0  0  0
 63140  1  0  0  0
 63141  1  0  0  0
 63142  1  0  0  0
 64143  1  0  0  0
 65144  1  0  0  0
 68 79  1  0  0  0
 71 73  2  0  0  0
 71 74  1  0  0  0
 71145  1  0  0  0
 72 74  2  0  0  0
 72 83  1  0  0  0
 72146  1  0  0  0
 73 75  1  0  0  0
 73 81  1  0  0  0
 74 84  1  0  0  0
 75 79  1  0  0  0
 75 83  2  0  0  0
 76147  1  0  0  0
 76148  1  0  0  0
 76149  1  0  0  0
 76 81  1  0  0  0
 77 81  1  0  0  0
 77150  1  0  0  0
 77151  1  0  0  0
 77152  1  0  0  0
 78153  1  0  0  0
 78154  1  0  0  0
 78155  1  0  0  0
 78 82  1  0  0  0
 79156  1  0  0  0
 79157  1  0  0  0
 80 82  1  0  0  0
 80 84  1  0  0  0
 80158  1  0  0  0
 80159  1  0  0  0
 81160  1  0  0  0
 82 85  1  0  0  0
 82161  1  0  0  0
 84162  1  0  0  0
 85163  1  0  0  0
M  ISO  4   1 100  68 101  79 101  85 100
M  END
> <chiral flag>
0

> <version>
0

> <s_m_source_file>
/data/baiqing/PycharmProjects/Reinvent-master-3.2/result/LINK_invent/BTK/process_docking_weight1_custom_sum_contain_oxygen_bond_distance_aromatic_linkinvent_7_9_3/rearranged_h_0125.sdf

> <i_m_source_file_index>
86

> <r_mmod_Potential_Energy-OPLS-2005>
19.9746799468994

> <r_mmod_Stretch_Energy-OPLS-2005>
88.2561264038086

> <r_mmod_Bend_Energy-OPLS-2005>
180.515090942383

> <r_mmod_Torsional_Energy-OPLS-2005>
194.043060302734

> <r_mmod_Improper_Torsional_Energy-OPLS-2005>
3.62343955039978

> <r_mmod_Van_der_Waal_Energy-OPLS-2005>
166.730438232422

> <r_mmod_Electrostatic_Energy-OPLS-2005>
-440.307037353516

> <r_mmod_Solvation_Energy-OPLS-2005>
-235.38134765625

> <b_mmod_Minimization_Converged-OPLS-2005>
0

> <r_mmod_RMS_Derivative-OPLS-2005>
1.63714504241943

$$$$
87
                    3D
 Structure written by MMmdl.
162170  0  0  1  0            999 V2000
  -30.7181  -14.4090   20.6374 C   0  0  0  0  0  0
  -30.4301  -12.2993   19.3855 C   0  0  0  0  0  0
  -29.4872  -12.4981   18.1825 C   0  0  0  0  0  0
  -28.0128  -12.3517   18.6105 C   0  0  0  0  0  0
  -27.6663  -13.1887   19.8695 C   0  0  2  0  0  0
  -28.7066  -12.9375   20.9836 C   0  0  0  0  0  0
  -25.2641  -13.8131   20.5626 C   0  0  0  0  0  0
  -24.1883  -13.0441   20.9155 C   0  0  0  0  0  0
  -24.6398  -11.6897   20.8720 C   0  0  0  0  0  0
  -23.9058  -10.4303   21.0391 C   0  0  0  0  0  0
  -24.3611   -9.4223   21.9182 C   0  0  0  0  0  0
  -23.6285   -8.2258   22.0766 C   0  0  0  0  0  0
  -22.4267   -8.0281   21.3547 C   0  0  0  0  0  0
  -21.9906   -9.0256   20.4635 C   0  0  0  0  0  0
  -22.7237  -10.2132   20.3039 C   0  0  0  0  0  0
  -21.6850   -6.0731   22.5282 C   0  0  0  0  0  0
  -21.4007   -6.5633   23.8212 C   0  0  0  0  0  0
  -21.3657   -5.6784   24.9173 C   0  0  0  0  0  0
  -21.6039   -4.3053   24.7222 C   0  0  0  0  0  0
  -21.8829   -3.8145   23.4348 C   0  0  0  0  0  0
  -21.9197   -4.6962   22.3401 C   0  0  0  0  0  0
  -22.7903  -13.5250   21.1821 C   0  0  0  0  0  0
  -22.1665   -4.2150   21.0979 F   0  0  0  0  0  0
  -21.5633   -3.4535   25.7739 F   0  0  0  0  0  0
  -30.0409  -13.2513   20.4374 N   0  0  0  0  0  0
  -26.3046  -12.9252   20.3301 N   0  0  0  0  0  0
  -25.9308  -11.6432   20.5734 N   0  0  0  0  0  0
  -22.0527  -12.8227   22.0343 N   0  0  0  0  0  0
  -25.4401  -15.1843   20.4012 N   0  0  0  0  0  0
  -31.7885  -14.6751   20.0810 O   0  0  0  0  0  0
  -21.6638   -6.8873   21.4235 O   0  0  0  0  0  0
  -22.3609  -14.5581   20.6690 O   0  0  0  0  0  0
  -24.6165  -31.8679   23.2084 C   0  0  0  0  0  0
  -25.9060  -32.4824   23.8375 C   0  0  1  0  0  0
  -27.2255  -27.4217   20.1035 C   0  0  0  0  0  0
  -25.5929  -33.8613   24.2321 N   0  0  0  0  0  0
  -23.4022  -30.4923   21.5522 C   0  0  2  0  0  0
  -24.8459  -28.9605   20.1176 C   0  0  0  0  0  0
  -22.7405  -29.4661   22.4994 C   0  0  0  0  0  0
  -18.0265  -28.1367   22.8475 C   0  0  0  0  0  0
  -24.1491  -36.7294   23.2638 C   0  0  0  0  0  0
  -25.9308  -30.8338   21.3602 C   0  0  0  0  0  0
  -26.0079  -29.4638   20.7142 C   0  0  0  0  0  0
  -27.2020  -28.7022   20.7045 C   0  0  0  0  0  0
  -26.0439  -26.9483   19.4826 C   0  0  0  0  0  0
  -24.8591  -27.7009   19.4998 C   0  0  0  0  0  0
  -23.6091  -29.8272   20.1663 C   0  0  0  0  0  0
  -25.4115  -36.3104   24.0341 C   0  0  1  0  0  0
  -20.5868  -28.3661   23.1313 C   0  0  2  0  0  0
  -20.6763  -26.9398   22.5408 C   0  0  0  0  0  0
  -19.5754  -26.6404   21.5184 C   0  0  0  0  0  0
  -18.1919  -26.7926   22.1579 C   0  0  0  0  0  0
  -19.1525  -28.8822   23.2893 C   0  0  0  0  0  0
  -18.9464  -30.1429   23.8908 C   0  0  0  0  0  0
  -17.6473  -30.6575   24.0577 C   0  0  0  0  0  0
  -25.9039  -34.9477   23.5121 C   0  0  0  0  0  0
  -16.5353  -29.9084   23.6339 C   0  0  0  0  0  0
  -16.7266  -28.6508   23.0339 C   0  0  0  0  0  0
  -26.4488  -31.6590   25.0687 C   0  0  0  0  0  0
  -25.3743  -31.3662   26.1429 C   0  0  0  0  0  0
  -27.0341  -30.3057   24.6000 C   0  0  0  0  0  0
  -27.6063  -32.4305   25.7460 C   0  0  0  0  0  0
  -27.5576  -37.1806   24.8467 C   0  0  0  0  0  0
  -21.4136  -29.3021   22.3727 N   0  0  0  0  0  0
  -26.4294  -37.3791   23.9401 N   0  0  0  0  0  0
  -24.6677  -31.0793   22.0982 N   0  0  0  0  0  0
  -23.4190  -28.8184   23.3027 O   0  0  0  0  0  0
  -28.3991  -26.6866   20.1129 O   0  0  0  0  0  0
  -26.5592  -34.8933   22.4674 O   0  0  0  0  0  0
  -23.5363  -32.1432   23.7491 O   0  0  0  0  0  0
  -29.3767  -23.0248   19.7433 C   0  0  0  0  0  0
  -28.0361  -23.3152   21.8813 C   0  0  0  0  0  0
  -29.5125  -24.5574   19.6360 C   0  0  0  0  0  0
  -28.2062  -24.8458   21.7520 C   0  0  0  0  0  0
  -29.1950  -22.5457   21.2041 C   0  0  1  0  0  0
  -28.3010  -25.2562   20.2704 C   0  0  1  0  0  0
  -29.0219  -21.0058   21.3063 C   0  0  0  0  0  0
  -30.6307  -16.5752   21.8891 C   0  0  0  0  0  0
  -30.2191  -20.2224   20.7059 C   0  0  0  0  0  0
  -29.9377  -17.7614   21.1783 C   0  0  0  0  0  0
  -30.1133  -15.2767   21.4604 N   0  0  0  0  0  0
  -30.6347  -19.0308   21.4817 N   0  3  0  0  0  0
  -31.4693  -12.4231   19.0739 H   0  0  0  0  0  0
  -30.3543  -11.2779   19.7624 H   0  0  0  0  0  0
  -29.7211  -11.7700   17.4036 H   0  0  0  0  0  0
  -29.6513  -13.4816   17.7390 H   0  0  0  0  0  0
  -27.8326  -11.2941   18.8094 H   0  0  0  0  0  0
  -27.3524  -12.6170   17.7842 H   0  0  0  0  0  0
  -27.7251  -14.2384   19.5826 H   0  0  0  0  0  0
  -28.6859  -11.8936   21.2990 H   0  0  0  0  0  0
  -28.4547  -13.5032   21.8811 H   0  0  0  0  0  0
  -25.2751   -9.5699   22.4753 H   0  0  0  0  0  0
  -23.9997   -7.4656   22.7494 H   0  0  0  0  0  0
  -21.0845   -8.8757   19.8930 H   0  0  0  0  0  0
  -22.3702  -10.9662   19.6135 H   0  0  0  0  0  0
  -21.1992   -7.6140   23.9715 H   0  0  0  0  0  0
  -21.1459   -6.0511   25.9075 H   0  0  0  0  0  0
  -22.0608   -2.7606   23.2849 H   0  0  0  0  0  0
  -22.4086  -11.9828   22.4662 H   0  0  0  0  0  0
  -21.1136  -13.1244   22.2529 H   0  0  0  0  0  0
  -24.6729  -15.8399   20.5057 H   0  0  0  0  0  0
  -26.2848  -15.6162   20.0474 H   0  0  0  0  0  0
  -26.7122  -32.5536   23.1134 H   0  0  0  0  0  0
  -25.0103  -33.9752   25.0489 H   0  0  0  0  0  0
  -22.6925  -31.3103   21.4107 H   0  0  0  0  0  0
  -23.3750  -35.9625   23.3321 H   0  0  0  0  0  0
  -24.3570  -36.8891   22.2043 H   0  0  0  0  0  0
  -23.7253  -37.6508   23.6642 H   0  0  0  0  0  0
  -26.0295  -31.5931   20.5841 H   0  0  0  0  0  0
  -26.8245  -30.8969   21.9691 H   0  0  0  0  0  0
  -28.0987  -29.0854   21.1734 H   0  0  0  0  0  0
  -26.0089  -26.0111   18.9517 H   0  0  0  0  0  0
  -23.9716  -27.3087   19.0237 H   0  0  0  0  0  0
  -23.7184  -30.6025   19.4062 H   0  0  0  0  0  0
  -22.7323  -29.2477   19.8725 H   0  0  0  0  0  0
  -25.1287  -36.1969   25.0835 H   0  0  0  0  0  0
  -20.9944  -28.3245   24.1447 H   0  0  0  0  0  0
  -20.5677  -26.2248   23.3583 H   0  0  0  0  0  0
  -21.6629  -26.7452   22.1191 H   0  0  0  0  0  0
  -19.6932  -25.6338   21.1164 H   0  0  0  0  0  0
  -19.6727  -27.3250   20.6747 H   0  0  0  0  0  0
  -17.4204  -26.6713   21.3954 H   0  0  0  0  0  0
  -18.0288  -26.0043   22.8942 H   0  0  0  0  0  0
  -19.7958  -30.7215   24.2295 H   0  0  0  0  0  0
  -17.5044  -31.6255   24.5172 H   0  0  0  0  0  0
  -15.5365  -30.2984   23.7668 H   0  0  0  0  0  0
  -15.8663  -28.0850   22.7031 H   0  0  0  0  0  0
  -24.6073  -30.6813   25.7799 H   0  0  0  0  0  0
  -24.8717  -32.2759   26.4718 H   0  0  0  0  0  0
  -25.8110  -30.9035   27.0288 H   0  0  0  0  0  0
  -26.2877  -29.6784   24.1102 H   0  0  0  0  0  0
  -27.4233  -29.7316   25.4416 H   0  0  0  0  0  0
  -27.8637  -30.4428   23.9056 H   0  0  0  0  0  0
  -27.2740  -33.3673   26.1952 H   0  0  0  0  0  0
  -28.3924  -32.6742   25.0302 H   0  0  0  0  0  0
  -28.0649  -31.8449   26.5446 H   0  0  0  0  0  0
  -28.2599  -38.0097   24.7510 H   0  0  0  0  0  0
  -28.1070  -36.2621   24.6316 H   0  0  0  0  0  0
  -27.2271  -37.1496   25.8866 H   0  0  0  0  0  0
  -20.9299  -29.8785   21.6985 H   0  0  0  0  0  0
  -26.0189  -38.2866   24.1413 H   0  0  0  0  0  0
  -30.2581  -22.5669   19.2949 H   0  0  0  0  0  0
  -28.5288  -22.6949   19.1423 H   0  0  0  0  0  0
  -27.0837  -23.0222   21.4350 H   0  0  0  0  0  0
  -27.9716  -23.0415   22.9372 H   0  0  0  0  0  0
  -29.5934  -24.8380   18.5864 H   0  0  0  0  0  0
  -30.4342  -24.8860   20.1174 H   0  0  0  0  0  0
  -29.1076  -25.1603   22.2777 H   0  0  0  0  0  0
  -27.3759  -25.3547   22.2422 H   0  0  0  0  0  0
  -30.1054  -22.8017   21.7504 H   0  0  0  0  0  0
  -27.4370  -24.8407   19.7628 H   0  0  0  0  0  0
  -28.0998  -20.6975   20.8112 H   0  0  0  0  0  0
  -28.8836  -20.7394   22.3545 H   0  0  0  0  0  0
  -30.4698  -16.6455   22.9663 H   0  0  0  0  0  0
  -31.7113  -16.6247   21.7374 H   0  0  0  0  0  0
  -31.0942  -20.8722   20.6934 H   0  0  0  0  0  0
  -30.0358  -19.9639   19.6613 H   0  0  0  0  0  0
  -28.8917  -17.8346   21.4869 H   0  0  0  0  0  0
  -29.9539  -17.5971   20.1008 H   0  0  0  0  0  0
  -29.2246  -14.9837   21.8406 H   0  0  0  0  0  0
  -30.6084  -19.2331   22.4685 H   0  0  0  0  0  0
  -31.6015  -18.8780   21.2380 H   0  0  0  0  0  0
  1 25  1  0  0  0
  1 30  2  0  0  0
  1 81  1  0  0  0
  2  3  1  0  0  0
  2 25  1  0  0  0
  2 83  1  0  0  0
  2 84  1  0  0  0
  3  4  1  0  0  0
  3 85  1  0  0  0
  3 86  1  0  0  0
  4  5  1  0  0  0
  4 87  1  0  0  0
  4 88  1  0  0  0
  5  6  1  0  0  0
  5 26  1  0  0  0
  5 89  1  0  0  0
  6 25  1  0  0  0
  6 90  1  0  0  0
  6 91  1  0  0  0
  7  8  2  0  0  0
  7 26  1  0  0  0
  7 29  1  0  0  0
  8  9  1  0  0  0
  8 22  1  0  0  0
  9 10  1  0  0  0
  9 27  2  0  0  0
 10 11  2  0  0  0
 10 15  1  0  0  0
 11 12  1  0  0  0
 11 92  1  0  0  0
 12 13  2  0  0  0
 12 93  1  0  0  0
 13 14  1  0  0  0
 13 31  1  0  0  0
 14 15  2  0  0  0
 14 94  1  0  0  0
 15 95  1  0  0  0
 16 17  2  0  0  0
 16 21  1  0  0  0
 16 31  1  0  0  0
 17 18  1  0  0  0
 17 96  1  0  0  0
 18 19  2  0  0  0
 18 97  1  0  0  0
 19 20  1  0  0  0
 19 24  1  0  0  0
 20 21  2  0  0  0
 20 98  1  0  0  0
 21 23  1  0  0  0
 22 28  1  0  0  0
 22 32  2  0  0  0
 26 27  1  0  0  0
 28 99  1  0  0  0
 28100  1  0  0  0
 29101  1  0  0  0
 29102  1  0  0  0
 33 34  1  0  0  0
 33 66  1  0  0  0
 33 70  2  0  0  0
 34 36  1  0  0  0
 34 59  1  0  0  0
 34103  1  0  0  0
 35 44  2  0  0  0
 35 45  1  0  0  0
 35 68  1  0  0  0
 36 56  1  0  0  0
 36104  1  0  0  0
 37 39  1  0  0  0
 37 47  1  0  0  0
 37 66  1  0  0  0
 37105  1  0  0  0
 38 43  2  0  0  0
 38 46  1  0  0  0
 38 47  1  0  0  0
 39 64  1  0  0  0
 39 67  2  0  0  0
 40 52  1  0  0  0
 40 53  2  0  0  0
 40 58  1  0  0  0
 41106  1  0  0  0
 41107  1  0  0  0
 41108  1  0  0  0
 41 48  1  0  0  0
 42 43  1  0  0  0
 42 66  1  0  0  0
 42109  1  0  0  0
 42110  1  0  0  0
 43 44  1  0  0  0
 44111  1  0  0  0
 45 46  2  0  0  0
 45112  1  0  0  0
 46113  1  0  0  0
 47114  1  0  0  0
 47115  1  0  0  0
 48 56  1  0  0  0
 48 65  1  0  0  0
 48116  1  0  0  0
 49 50  1  0  0  0
 49 53  1  0  0  0
 49 64  1  0  0  0
 49117  1  0  0  0
 50 51  1  0  0  0
 50118  1  0  0  0
 50119  1  0  0  0
 51 52  1  0  0  0
 51120  1  0  0  0
 51121  1  0  0  0
 52122  1  0  0  0
 52123  1  0  0  0
 53 54  1  0  0  0
 54 55  2  0  0  0
 54124  1  0  0  0
 55 57  1  0  0  0
 55125  1  0  0  0
 56 69  2  0  0  0
 57 58  2  0  0  0
 57126  1  0  0  0
 58127  1  0  0  0
 59 60  1  0  0  0
 59 61  1  0  0  0
 59 62  1  0  0  0
 60128  1  0  0  0
 60129  1  0  0  0
 60130  1  0  0  0
 61131  1  0  0  0
 61132  1  0  0  0
 61133  1  0  0  0
 62134  1  0  0  0
 62135  1  0  0  0
 62136  1  0  0  0
 63 65  1  0  0  0
 63137  1  0  0  0
 63138  1  0  0  0
 63139  1  0  0  0
 64140  1  0  0  0
 65141  1  0  0  0
 68 76  1  0  0  0
 71 73  1  0  0  0
 71 75  1  0  0  0
 71142  1  0  0  0
 71143  1  0  0  0
 72 74  1  0  0  0
 72 75  1  0  0  0
 72144  1  0  0  0
 72145  1  0  0  0
 73 76  1  0  0  0
 73146  1  0  0  0
 73147  1  0  0  0
 74 76  1  0  0  0
 74148  1  0  0  0
 74149  1  0  0  0
 75 77  1  0  0  0
 75150  1  0  0  0
 76151  1  0  0  0
 77 79  1  0  0  0
 77152  1  0  0  0
 77153  1  0  0  0
 78 80  1  0  0  0
 78 81  1  0  0  0
 78154  1  0  0  0
 78155  1  0  0  0
 79 82  1  0  0  0
 79156  1  0  0  0
 79157  1  0  0  0
 80 82  1  0  0  0
 80158  1  0  0  0
 80159  1  0  0  0
 81160  1  0  0  0
 82161  1  0  0  0
 82162  1  0  0  0
M  CHG  1  82   1
M  ISO  4   1 100  68 101  76 101  81 100
M  END
> <chiral flag>
0

> <version>
0

> <s_m_source_file>
/data/baiqing/PycharmProjects/Reinvent-master-3.2/result/LINK_invent/BTK/process_docking_weight1_custom_sum_contain_oxygen_bond_distance_aromatic_linkinvent_7_9_3/rearranged_h_0125.sdf

> <i_m_source_file_index>
87

> <r_mmod_Potential_Energy-OPLS-2005>
-254.126007080078

> <r_mmod_Stretch_Energy-OPLS-2005>
34.8556594848633

> <r_mmod_Bend_Energy-OPLS-2005>
98.7387390136719

> <r_mmod_Torsional_Energy-OPLS-2005>
229.292907714844

> <r_mmod_Improper_Torsional_Energy-OPLS-2005>
2.02010059356689

> <r_mmod_Van_der_Waal_Energy-OPLS-2005>
142.341278076172

> <r_mmod_Electrostatic_Energy-OPLS-2005>
-300.83642578125

> <r_mmod_Solvation_Energy-OPLS-2005>
-470.791809082031

> <b_mmod_Minimization_Converged-OPLS-2005>
0

> <r_mmod_RMS_Derivative-OPLS-2005>
3.74848389625549

$$$$
88
                    3D
 Structure written by MMmdl.
167177  0  0  1  0            999 V2000
  -30.6494  -14.6460   20.4955 C   0  0  0  0  0  0
  -30.4275  -12.4023   19.4479 C   0  0  0  0  0  0
  -29.4988  -12.4954   18.2190 C   0  0  0  0  0  0
  -28.0243  -12.3360   18.6378 C   0  0  0  0  0  0
  -27.6461  -13.2222   19.8549 C   0  0  2  0  0  0
  -28.6930  -13.1128   20.9844 C   0  0  0  0  0  0
  -25.2538  -13.8186   20.5697 C   0  0  0  0  0  0
  -24.1817  -13.0445   20.9213 C   0  0  0  0  0  0
  -24.6391  -11.6917   20.8757 C   0  0  0  0  0  0
  -23.9065  -10.4297   21.0415 C   0  0  0  0  0  0
  -24.3617   -9.4209   21.9188 C   0  0  0  0  0  0
  -23.6293   -8.2243   22.0754 C   0  0  0  0  0  0
  -22.4276   -8.0283   21.3544 C   0  0  0  0  0  0
  -21.9913   -9.0258   20.4647 C   0  0  0  0  0  0
  -22.7240  -10.2136   20.3060 C   0  0  0  0  0  0
  -21.6853   -6.0737   22.5278 C   0  0  0  0  0  0
  -21.4012   -6.5639   23.8210 C   0  0  0  0  0  0
  -21.3655   -5.6792   24.9173 C   0  0  0  0  0  0
  -21.6044   -4.3055   24.7225 C   0  0  0  0  0  0
  -21.8821   -3.8148   23.4346 C   0  0  0  0  0  0
  -21.9193   -4.6964   22.3404 C   0  0  0  0  0  0
  -22.7840  -13.5233   21.1868 C   0  0  0  0  0  0
  -22.1663   -4.2154   21.0981 F   0  0  0  0  0  0
  -21.5629   -3.4538   25.7736 F   0  0  0  0  0  0
  -29.9996  -13.4443   20.4030 N   0  0  0  0  0  0
  -26.2958  -12.9377   20.3307 N   0  0  0  0  0  0
  -25.9319  -11.6528   20.5769 N   0  0  0  0  0  0
  -22.0485  -12.8222   22.0421 N   0  0  0  0  0  0
  -25.4240  -15.1911   20.4092 N   0  0  0  0  0  0
  -31.8323  -14.7494   20.1631 O   0  0  0  0  0  0
  -21.6639   -6.8882   21.4239 O   0  0  0  0  0  0
  -22.3532  -14.5542   20.6717 O   0  0  0  0  0  0
  -24.6246  -31.8598   23.2018 C   0  0  0  0  0  0
  -25.9096  -32.4778   23.8341 C   0  0  1  0  0  0
  -27.2263  -27.3242   20.1038 C   0  0  0  0  0  0
  -25.5909  -33.8580   24.2263 N   0  0  0  0  0  0
  -23.4165  -30.4824   21.5452 C   0  0  2  0  0  0
  -24.8619  -28.9363   20.1098 C   0  0  0  0  0  0
  -22.7462  -29.4618   22.4950 C   0  0  0  0  0  0
  -18.0281  -28.1381   22.8490 C   0  0  0  0  0  0
  -24.1479  -36.7290   23.2638 C   0  0  0  0  0  0
  -25.9565  -30.7900   21.3721 C   0  0  0  0  0  0
  -26.0290  -29.4174   20.7147 C   0  0  0  0  0  0
  -27.2093  -28.6185   20.7095 C   0  0  0  0  0  0
  -26.0284  -26.8837   19.4963 C   0  0  0  0  0  0
  -24.8630  -27.6741   19.4956 C   0  0  0  0  0  0
  -23.6288  -29.8153   20.1605 C   0  0  0  0  0  0
  -25.4109  -36.3080   24.0323 C   0  0  1  0  0  0
  -20.5877  -28.3680   23.1292 C   0  0  2  0  0  0
  -20.6770  -26.9406   22.5415 C   0  0  0  0  0  0
  -19.5744  -26.6377   21.5218 C   0  0  0  0  0  0
  -18.1921  -26.7921   22.1628 C   0  0  0  0  0  0
  -19.1535  -28.8849   23.2877 C   0  0  0  0  0  0
  -18.9463  -30.1456   23.8880 C   0  0  0  0  0  0
  -17.6465  -30.6584   24.0565 C   0  0  0  0  0  0
  -25.9050  -34.9454   23.5096 C   0  0  0  0  0  0
  -16.5356  -29.9083   23.6336 C   0  0  0  0  0  0
  -16.7271  -28.6504   23.0349 C   0  0  0  0  0  0
  -26.4482  -31.6599   25.0718 C   0  0  0  0  0  0
  -25.3712  -31.3741   26.1445 C   0  0  0  0  0  0
  -27.0338  -30.3023   24.6174 C   0  0  0  0  0  0
  -27.6023  -32.4358   25.7495 C   0  0  0  0  0  0
  -27.5572  -37.1796   24.8462 C   0  0  0  0  0  0
  -21.4178  -29.3034   22.3692 N   0  0  0  0  0  0
  -26.4279  -37.3783   23.9414 N   0  0  0  0  0  0
  -24.6847  -31.0610   22.0968 N   0  0  0  0  0  0
  -23.4194  -28.8163   23.3027 O   0  0  0  0  0  0
  -28.3637  -26.5057   20.1693 O   0  0  0  0  0  0
  -26.5628  -34.8922   22.4669 O   0  0  0  0  0  0
  -23.5413  -32.1405   23.7353 O   0  0  0  0  0  0
  -27.5710  -21.6446   20.3234 C   0  0  0  0  0  0
  -29.9596  -21.8426   20.4937 C   0  0  0  0  0  0
  -27.4716  -23.0294   19.9895 C   0  0  0  0  0  0
  -29.8586  -23.2297   20.1603 C   0  0  0  0  0  0
  -28.8154  -21.0037   20.5872 C   0  0  0  0  0  0
  -28.6139  -23.8649   19.8948 C   0  0  0  0  0  0
  -28.3679  -20.6082   24.7461 C   0  0  0  0  0  0
  -28.3310  -21.6608   23.6654 C   0  0  0  0  0  0
  -30.4973  -17.4212   22.5820 C   0  0  0  0  0  0
  -29.7995  -18.4513   20.3233 C   0  0  0  0  0  0
  -29.2370  -18.1069   23.1244 C   0  0  0  0  0  0
  -28.8727  -19.5029   21.1019 C   0  0  1  0  0  0
  -30.4081  -17.1669   21.0712 C   0  0  2  0  0  0
  -28.0116  -20.2169   23.3235 C   0  0  0  0  0  0
  -28.5367  -25.3239   19.3063 C   0  0  0  0  0  0
  -29.9036  -15.7635   20.7974 N   0  0  0  0  0  0
  -29.0800  -19.4831   22.5852 N   0  3  1  0  0  0
  -31.4680  -12.5203   19.1398 H   0  0  0  0  0  0
  -30.3631  -11.4160   19.9097 H   0  0  0  0  0  0
  -29.7631  -11.7300   17.4879 H   0  0  0  0  0  0
  -29.6378  -13.4564   17.7208 H   0  0  0  0  0  0
  -27.8665  -11.2853   18.8844 H   0  0  0  0  0  0
  -27.3659  -12.5517   17.7954 H   0  0  0  0  0  0
  -27.6546  -14.2513   19.4955 H   0  0  0  0  0  0
  -28.7110  -12.1048   21.4013 H   0  0  0  0  0  0
  -28.4441  -13.7783   21.8126 H   0  0  0  0  0  0
  -25.2761   -9.5685   22.4765 H   0  0  0  0  0  0
  -24.0004   -7.4635   22.7473 H   0  0  0  0  0  0
  -21.0847   -8.8778   19.8951 H   0  0  0  0  0  0
  -22.3701  -10.9679   19.6173 H   0  0  0  0  0  0
  -21.1999   -7.6144   23.9717 H   0  0  0  0  0  0
  -21.1474   -6.0518   25.9076 H   0  0  0  0  0  0
  -22.0602   -2.7612   23.2844 H   0  0  0  0  0  0
  -22.4103  -11.9876   22.4794 H   0  0  0  0  0  0
  -21.1103  -13.1250   22.2636 H   0  0  0  0  0  0
  -24.6479  -15.8381   20.4977 H   0  0  0  0  0  0
  -26.2573  -15.6233   20.0317 H   0  0  0  0  0  0
  -26.7166  -32.5446   23.1089 H   0  0  0  0  0  0
  -25.0046  -33.9733   25.0399 H   0  0  0  0  0  0
  -22.7086  -31.3017   21.4031 H   0  0  0  0  0  0
  -23.3743  -35.9618   23.3296 H   0  0  0  0  0  0
  -24.3557  -36.8927   22.2052 H   0  0  0  0  0  0
  -23.7237  -37.6487   23.6677 H   0  0  0  0  0  0
  -26.0848  -31.5528   20.6030 H   0  0  0  0  0  0
  -26.8384  -30.8407   21.9988 H   0  0  0  0  0  0
  -28.1047  -28.9825   21.1934 H   0  0  0  0  0  0
  -25.9490  -25.9055   19.0486 H   0  0  0  0  0  0
  -23.9638  -27.2922   19.0319 H   0  0  0  0  0  0
  -23.7425  -30.5907   19.4021 H   0  0  0  0  0  0
  -22.7489  -29.2419   19.8628 H   0  0  0  0  0  0
  -25.1290  -36.1919   25.0815 H   0  0  0  0  0  0
  -20.9966  -28.3260   24.1414 H   0  0  0  0  0  0
  -20.5682  -26.2292   23.3614 H   0  0  0  0  0  0
  -21.6639  -26.7442   22.1204 H   0  0  0  0  0  0
  -19.6905  -25.6290   21.1246 H   0  0  0  0  0  0
  -19.6676  -27.3187   20.6750 H   0  0  0  0  0  0
  -17.4195  -26.6677   21.4022 H   0  0  0  0  0  0
  -18.0306  -26.0058   22.9017 H   0  0  0  0  0  0
  -19.7940  -30.7279   24.2226 H   0  0  0  0  0  0
  -17.5023  -31.6259   24.5172 H   0  0  0  0  0  0
  -15.5356  -30.2983   23.7670 H   0  0  0  0  0  0
  -15.8668  -28.0830   22.7058 H   0  0  0  0  0  0
  -24.5870  -30.7108   25.7781 H   0  0  0  0  0  0
  -24.8915  -32.2914   26.4875 H   0  0  0  0  0  0
  -25.8029  -30.8916   27.0222 H   0  0  0  0  0  0
  -26.2924  -29.6769   24.1189 H   0  0  0  0  0  0
  -27.4034  -29.7283   25.4682 H   0  0  0  0  0  0
  -27.8782  -30.4315   23.9399 H   0  0  0  0  0  0
  -27.2602  -33.3658   26.2053 H   0  0  0  0  0  0
  -28.3835  -32.6941   25.0334 H   0  0  0  0  0  0
  -28.0682  -31.8509   26.5434 H   0  0  0  0  0  0
  -28.2583  -38.0099   24.7533 H   0  0  0  0  0  0
  -28.1080  -36.2638   24.6266 H   0  0  0  0  0  0
  -27.2290  -37.1417   25.8863 H   0  0  0  0  0  0
  -20.9356  -29.8765   21.6911 H   0  0  0  0  0  0
  -26.0152  -38.2848   24.1440 H   0  0  0  0  0  0
  -26.6565  -21.0714   20.3909 H   0  0  0  0  0  0
  -30.9392  -21.4310   20.6920 H   0  0  0  0  0  0
  -26.4974  -23.4454   19.7718 H   0  0  0  0  0  0
  -30.7680  -23.8086   20.0757 H   0  0  0  0  0  0
  -27.5608  -20.6159   25.4767 H   0  0  0  0  0  0
  -29.3465  -20.3447   25.1435 H   0  0  0  0  0  0
  -29.2828  -22.0826   23.3483 H   0  0  0  0  0  0
  -27.5000  -22.3641   23.6800 H   0  0  0  0  0  0
  -30.6744  -16.4874   23.1178 H   0  0  0  0  0  0
  -31.3648  -18.0472   22.7982 H   0  0  0  0  0  0
  -30.6671  -19.0258   19.9972 H   0  0  0  0  0  0
  -29.3176  -18.1546   19.3916 H   0  0  0  0  0  0
  -29.3118  -18.1414   24.2111 H   0  0  0  0  0  0
  -28.3494  -17.5141   22.8995 H   0  0  0  0  0  0
  -27.8641  -19.1100   20.9631 H   0  0  0  0  0  0
  -31.4450  -17.1392   20.7308 H   0  0  0  0  0  0
  -26.9895  -19.9164   23.0972 H   0  0  0  0  0  0
  -27.8558  -25.3203   18.4569 H   0  0  0  0  0  0
  -29.5025  -25.4887   18.8277 H   0  0  0  0  0  0
  -28.9230  -15.5898   20.9588 H   0  0  0  0  0  0
  -29.9471  -19.9649   22.7638 H   0  0  0  0  0  0
  1 25  1  0  0  0
  1 30  2  0  0  0
  1 86  1  0  0  0
  2  3  1  0  0  0
  2 25  1  0  0  0
  2 88  1  0  0  0
  2 89  1  0  0  0
  3  4  1  0  0  0
  3 90  1  0  0  0
  3 91  1  0  0  0
  4  5  1  0  0  0
  4 92  1  0  0  0
  4 93  1  0  0  0
  5  6  1  0  0  0
  5 26  1  0  0  0
  5 94  1  0  0  0
  6 25  1  0  0  0
  6 95  1  0  0  0
  6 96  1  0  0  0
  7  8  2  0  0  0
  7 26  1  0  0  0
  7 29  1  0  0  0
  8  9  1  0  0  0
  8 22  1  0  0  0
  9 10  1  0  0  0
  9 27  2  0  0  0
 10 11  2  0  0  0
 10 15  1  0  0  0
 11 12  1  0  0  0
 11 97  1  0  0  0
 12 13  2  0  0  0
 12 98  1  0  0  0
 13 14  1  0  0  0
 13 31  1  0  0  0
 14 15  2  0  0  0
 14 99  1  0  0  0
 15100  1  0  0  0
 16 17  2  0  0  0
 16 21  1  0  0  0
 16 31  1  0  0  0
 17 18  1  0  0  0
 17101  1  0  0  0
 18 19  2  0  0  0
 18102  1  0  0  0
 19 20  1  0  0  0
 19 24  1  0  0  0
 20 21  2  0  0  0
 20103  1  0  0  0
 21 23  1  0  0  0
 22 28  1  0  0  0
 22 32  2  0  0  0
 26 27  1  0  0  0
 28104  1  0  0  0
 28105  1  0  0  0
 29106  1  0  0  0
 29107  1  0  0  0
 33 34  1  0  0  0
 33 66  1  0  0  0
 33 70  2  0  0  0
 34 36  1  0  0  0
 34 59  1  0  0  0
 34108  1  0  0  0
 35 44  2  0  0  0
 35 45  1  0  0  0
 35 68  1  0  0  0
 36 56  1  0  0  0
 36109  1  0  0  0
 37 39  1  0  0  0
 37 47  1  0  0  0
 37 66  1  0  0  0
 37110  1  0  0  0
 38 43  2  0  0  0
 38 46  1  0  0  0
 38 47  1  0  0  0
 39 64  1  0  0  0
 39 67  2  0  0  0
 40 52  1  0  0  0
 40 53  2  0  0  0
 40 58  1  0  0  0
 41111  1  0  0  0
 41112  1  0  0  0
 41113  1  0  0  0
 41 48  1  0  0  0
 42 43  1  0  0  0
 42 66  1  0  0  0
 42114  1  0  0  0
 42115  1  0  0  0
 43 44  1  0  0  0
 44116  1  0  0  0
 45 46  2  0  0  0
 45117  1  0  0  0
 46118  1  0  0  0
 47119  1  0  0  0
 47120  1  0  0  0
 48 56  1  0  0  0
 48 65  1  0  0  0
 48121  1  0  0  0
 49 50  1  0  0  0
 49 53  1  0  0  0
 49 64  1  0  0  0
 49122  1  0  0  0
 50 51  1  0  0  0
 50123  1  0  0  0
 50124  1  0  0  0
 51 52  1  0  0  0
 51125  1  0  0  0
 51126  1  0  0  0
 52127  1  0  0  0
 52128  1  0  0  0
 53 54  1  0  0  0
 54 55  2  0  0  0
 54129  1  0  0  0
 55 57  1  0  0  0
 55130  1  0  0  0
 56 69  2  0  0  0
 57 58  2  0  0  0
 57131  1  0  0  0
 58132  1  0  0  0
 59 60  1  0  0  0
 59 61  1  0  0  0
 59 62  1  0  0  0
 60133  1  0  0  0
 60134  1  0  0  0
 60135  1  0  0  0
 61136  1  0  0  0
 61137  1  0  0  0
 61138  1  0  0  0
 62139  1  0  0  0
 62140  1  0  0  0
 62141  1  0  0  0
 63 65  1  0  0  0
 63142  1  0  0  0
 63143  1  0  0  0
 63144  1  0  0  0
 64145  1  0  0  0
 65146  1  0  0  0
 68 85  1  0  0  0
 71 73  2  0  0  0
 71 75  1  0  0  0
 71147  1  0  0  0
 72 74  1  0  0  0
 72 75  2  0  0  0
 72148  1  0  0  0
 73 76  1  0  0  0
 73149  1  0  0  0
 74 76  2  0  0  0
 74150  1  0  0  0
 75 82  1  0  0  0
 76 85  1  0  0  0
 77 78  1  0  0  0
 77151  1  0  0  0
 77152  1  0  0  0
 77 84  1  0  0  0
 78 84  1  0  0  0
 78153  1  0  0  0
 78154  1  0  0  0
 79 81  1  0  0  0
 79 83  1  0  0  0
 79155  1  0  0  0
 79156  1  0  0  0
 80 82  1  0  0  0
 80 83  1  0  0  0
 80157  1  0  0  0
 80158  1  0  0  0
 81159  1  0  0  0
 81160  1  0  0  0
 81 87  1  0  0  0
 82 87  1  0  0  0
 82161  1  0  0  0
 83 86  1  0  0  0
 83162  1  0  0  0
 84 87  1  0  0  0
 84163  1  0  0  0
 85164  1  0  0  0
 85165  1  0  0  0
 86166  1  0  0  0
 87167  1  0  0  0
M  CHG  1  87   1
M  ISO  4   1 100  68 101  85 101  86 100
M  END
> <chiral flag>
0

> <version>
0

> <s_m_source_file>
/data/baiqing/PycharmProjects/Reinvent-master-3.2/result/LINK_invent/BTK/process_docking_weight1_custom_sum_contain_oxygen_bond_distance_aromatic_linkinvent_7_9_3/rearranged_h_0125.sdf

> <i_m_source_file_index>
88

> <r_mmod_Potential_Energy-OPLS-2005>
85.6394119262695

> <r_mmod_Stretch_Energy-OPLS-2005>
87.709587097168

> <r_mmod_Bend_Energy-OPLS-2005>
164.558547973633

> <r_mmod_Torsional_Energy-OPLS-2005>
286.937255859375

> <r_mmod_Improper_Torsional_Energy-OPLS-2005>
5.69283151626587

> <r_mmod_Van_der_Waal_Energy-OPLS-2005>
143.012130737305

> <r_mmod_Electrostatic_Energy-OPLS-2005>
-200.223937988281

> <r_mmod_Solvation_Energy-OPLS-2005>
-451.600189208984

> <b_mmod_Minimization_Converged-OPLS-2005>
0

> <r_mmod_RMS_Derivative-OPLS-2005>
0.816403150558472

$$$$
89
                    3D
 Structure written by MMmdl.
156164  0  0  1  0            999 V2000
  -30.7136  -14.4491   20.6162 C   0  0  0  0  0  0
  -30.4231  -12.3106   19.4118 C   0  0  0  0  0  0
  -29.4897  -12.5139   18.2016 C   0  0  0  0  0  0
  -28.0128  -12.3693   18.6182 C   0  0  0  0  0  0
  -27.6629  -13.2038   19.8786 C   0  0  2  0  0  0
  -28.7040  -12.9684   20.9955 C   0  0  0  0  0  0
  -25.2588  -13.8156   20.5685 C   0  0  0  0  0  0
  -24.1836  -13.0438   20.9178 C   0  0  0  0  0  0
  -24.6382  -11.6900   20.8733 C   0  0  0  0  0  0
  -23.9046  -10.4290   21.0400 C   0  0  0  0  0  0
  -24.3601   -9.4209   21.9183 C   0  0  0  0  0  0
  -23.6281   -8.2242   22.0754 C   0  0  0  0  0  0
  -22.4266   -8.0273   21.3543 C   0  0  0  0  0  0
  -21.9897   -9.0243   20.4647 C   0  0  0  0  0  0
  -22.7216  -10.2129   20.3053 C   0  0  0  0  0  0
  -21.6852   -6.0730   22.5279 C   0  0  0  0  0  0
  -21.4014   -6.5637   23.8211 C   0  0  0  0  0  0
  -21.3662   -5.6790   24.9176 C   0  0  0  0  0  0
  -21.6046   -4.3052   24.7228 C   0  0  0  0  0  0
  -21.8818   -3.8141   23.4350 C   0  0  0  0  0  0
  -21.9191   -4.6957   22.3405 C   0  0  0  0  0  0
  -22.7859  -13.5238   21.1848 C   0  0  0  0  0  0
  -22.1660   -4.2139   21.0983 F   0  0  0  0  0  0
  -21.5631   -3.4539   25.7745 F   0  0  0  0  0  0
  -30.0362  -13.2812   20.4472 N   0  0  0  0  0  0
  -26.3025  -12.9320   20.3384 N   0  0  0  0  0  0
  -25.9310  -11.6480   20.5766 N   0  0  0  0  0  0
  -22.0504  -12.8230   22.0405 N   0  0  0  0  0  0
  -25.4329  -15.1873   20.4096 N   0  0  0  0  0  0
  -31.8089  -14.6744   20.0943 O   0  0  0  0  0  0
  -21.6636   -6.8869   21.4238 O   0  0  0  0  0  0
  -22.3549  -14.5552   20.6703 O   0  0  0  0  0  0
  -24.6132  -31.8678   23.2092 C   0  0  0  0  0  0
  -25.9024  -32.4822   23.8391 C   0  0  1  0  0  0
  -27.2372  -27.4348   20.1050 C   0  0  0  0  0  0
  -25.5878  -33.8621   24.2324 N   0  0  0  0  0  0
  -23.4018  -30.4896   21.5500 C   0  0  2  0  0  0
  -24.8493  -28.9522   20.1172 C   0  0  0  0  0  0
  -22.7402  -29.4656   22.4997 C   0  0  0  0  0  0
  -18.0270  -28.1366   22.8488 C   0  0  0  0  0  0
  -24.1490  -36.7327   23.2639 C   0  0  0  0  0  0
  -25.9295  -30.8345   21.3606 C   0  0  0  0  0  0
  -26.0089  -29.4682   20.7095 C   0  0  0  0  0  0
  -27.2075  -28.7192   20.6944 C   0  0  0  0  0  0
  -26.0626  -26.9326   19.5037 C   0  0  0  0  0  0
  -24.8712  -27.6836   19.5100 C   0  0  0  0  0  0
  -23.6101  -29.8169   20.1665 C   0  0  0  0  0  0
  -25.4111  -36.3118   24.0339 C   0  0  1  0  0  0
  -20.5855  -28.3653   23.1318 C   0  0  2  0  0  0
  -20.6755  -26.9390   22.5415 C   0  0  0  0  0  0
  -19.5740  -26.6379   21.5204 C   0  0  0  0  0  0
  -18.1920  -26.7910   22.1622 C   0  0  0  0  0  0
  -19.1516  -28.8827   23.2899 C   0  0  0  0  0  0
  -18.9448  -30.1432   23.8901 C   0  0  0  0  0  0
  -17.6453  -30.6575   24.0557 C   0  0  0  0  0  0
  -25.9031  -34.9479   23.5136 C   0  0  0  0  0  0
  -16.5341  -29.9077   23.6324 C   0  0  0  0  0  0
  -16.7260  -28.6492   23.0343 C   0  0  0  0  0  0
  -26.4463  -31.6588   25.0711 C   0  0  0  0  0  0
  -25.3730  -31.3665   26.1454 C   0  0  0  0  0  0
  -27.0307  -30.3041   24.6071 C   0  0  0  0  0  0
  -27.6040  -32.4308   25.7471 C   0  0  0  0  0  0
  -27.5587  -37.1814   24.8465 C   0  0  0  0  0  0
  -21.4131  -29.3026   22.3729 N   0  0  0  0  0  0
  -26.4303  -37.3794   23.9406 N   0  0  0  0  0  0
  -24.6667  -31.0781   22.0986 N   0  0  0  0  0  0
  -23.4176  -28.8205   23.3042 O   0  0  0  0  0  0
  -28.4064  -26.7060   20.1004 O   0  0  0  0  0  0
  -26.5603  -34.8925   22.4703 O   0  0  0  0  0  0
  -23.5322  -32.1430   23.7485 O   0  0  0  0  0  0
  -30.2405  -20.7030   19.8449 C   0  0  0  0  0  0
  -28.7101  -22.4759   21.2621 C   0  0  0  0  0  0
  -29.2653  -22.9426   20.0473 C   0  0  0  0  0  0
  -30.0619  -22.0069   19.3220 C   0  0  0  0  0  0
  -29.6420  -20.3514   21.0665 C   0  0  0  0  0  0
  -28.9873  -24.3576   19.5831 C   0  0  0  0  0  0
  -30.7630  -22.3437   18.0139 C   0  0  0  0  0  0
  -28.3117  -25.3434   20.5639 C   0  0  0  0  0  0
  -29.8600  -17.8626   20.9046 C   0  0  0  0  0  0
  -30.5631  -16.7244   21.6874 C   0  0  0  0  0  0
  -28.8977  -21.2281   21.7609 N   0  0  0  0  0  0
  -29.8150  -19.1041   21.6817 N   0  0  0  0  0  0
  -30.0739  -15.3860   21.3359 N   0  0  0  0  0  0
  -29.2720  -24.7682   18.4531 O   0  0  0  0  0  0
  -31.4660  -12.4174   19.1081 H   0  0  0  0  0  0
  -30.3309  -11.2947   19.8005 H   0  0  0  0  0  0
  -29.7281  -11.7955   17.4160 H   0  0  0  0  0  0
  -29.6549  -13.5034   17.7719 H   0  0  0  0  0  0
  -27.8255  -11.3125   18.8123 H   0  0  0  0  0  0
  -27.3588  -12.6459   17.7907 H   0  0  0  0  0  0
  -27.7136  -14.2546   19.5914 H   0  0  0  0  0  0
  -28.6813  -11.9267   21.3194 H   0  0  0  0  0  0
  -28.4573  -13.5487   21.8854 H   0  0  0  0  0  0
  -25.2743   -9.5694   22.4759 H   0  0  0  0  0  0
  -23.9992   -7.4639   22.7476 H   0  0  0  0  0  0
  -21.0828   -8.8758   19.8954 H   0  0  0  0  0  0
  -22.3666  -10.9666   19.6164 H   0  0  0  0  0  0
  -21.2005   -7.6145   23.9710 H   0  0  0  0  0  0
  -21.1489   -6.0525   25.9081 H   0  0  0  0  0  0
  -22.0595   -2.7602   23.2855 H   0  0  0  0  0  0
  -22.4113  -11.9875   22.4767 H   0  0  0  0  0  0
  -21.1128  -13.1263   22.2633 H   0  0  0  0  0  0
  -24.6690  -15.8459   20.5163 H   0  0  0  0  0  0
  -26.2896  -15.6232   20.0921 H   0  0  0  0  0  0
  -26.7090  -32.5546   23.1154 H   0  0  0  0  0  0
  -25.0001  -33.9782   25.0450 H   0  0  0  0  0  0
  -22.6901  -31.3059   21.4093 H   0  0  0  0  0  0
  -23.3750  -35.9663   23.3312 H   0  0  0  0  0  0
  -24.3577  -36.8938   22.2050 H   0  0  0  0  0  0
  -23.7249  -37.6535   23.6653 H   0  0  0  0  0  0
  -26.0396  -31.5995   20.5906 H   0  0  0  0  0  0
  -26.8178  -30.8897   21.9780 H   0  0  0  0  0  0
  -28.1049  -29.1178   21.1473 H   0  0  0  0  0  0
  -26.0671  -25.9659   19.0198 H   0  0  0  0  0  0
  -23.9813  -27.2817   19.0458 H   0  0  0  0  0  0
  -23.7136  -30.5883   19.4028 H   0  0  0  0  0  0
  -22.7357  -29.2312   19.8768 H   0  0  0  0  0  0
  -25.1291  -36.1985   25.0835 H   0  0  0  0  0  0
  -20.9942  -28.3215   24.1439 H   0  0  0  0  0  0
  -20.5647  -26.2264   23.3599 H   0  0  0  0  0  0
  -21.6633  -26.7429   22.1216 H   0  0  0  0  0  0
  -19.6904  -25.6298   21.1219 H   0  0  0  0  0  0
  -19.6678  -27.3197   20.6738 H   0  0  0  0  0  0
  -17.4191  -26.6652   21.4020 H   0  0  0  0  0  0
  -18.0321  -26.0046   22.9010 H   0  0  0  0  0  0
  -19.7926  -30.7237   24.2270 H   0  0  0  0  0  0
  -17.5016  -31.6253   24.5164 H   0  0  0  0  0  0
  -15.5340  -30.2984   23.7647 H   0  0  0  0  0  0
  -15.8657  -28.0817   22.7054 H   0  0  0  0  0  0
  -24.5914  -30.7007   25.7772 H   0  0  0  0  0  0
  -24.8902  -32.2805   26.4924 H   0  0  0  0  0  0
  -25.8086  -30.8810   27.0197 H   0  0  0  0  0  0
  -26.2846  -29.6781   24.1161 H   0  0  0  0  0  0
  -27.4136  -29.7292   25.4511 H   0  0  0  0  0  0
  -27.8650  -30.4391   23.9187 H   0  0  0  0  0  0
  -27.2669  -33.3605   26.2062 H   0  0  0  0  0  0
  -28.3826  -32.6861   25.0275 H   0  0  0  0  0  0
  -28.0725  -31.8421   26.5364 H   0  0  0  0  0  0
  -28.2601  -38.0113   24.7519 H   0  0  0  0  0  0
  -28.1091  -36.2649   24.6295 H   0  0  0  0  0  0
  -27.2301  -37.1458   25.8864 H   0  0  0  0  0  0
  -20.9282  -29.8759   21.6960 H   0  0  0  0  0  0
  -26.0203  -38.2880   24.1396 H   0  0  0  0  0  0
  -30.8661  -19.9974   19.3165 H   0  0  0  0  0  0
  -28.0878  -23.1083   21.8771 H   0  0  0  0  0  0
  -31.3685  -21.5108   17.6557 H   0  0  0  0  0  0
  -31.4305  -23.1962   18.1435 H   0  0  0  0  0  0
  -30.0390  -22.5791   17.2333 H   0  0  0  0  0  0
  -28.8169  -25.2832   21.5280 H   0  0  0  0  0  0
  -27.2791  -25.0344   20.7274 H   0  0  0  0  0  0
  -28.8278  -17.5820   20.6919 H   0  0  0  0  0  0
  -30.3463  -18.0002   19.9396 H   0  0  0  0  0  0
  -30.3738  -16.8385   22.7554 H   0  0  0  0  0  0
  -31.6464  -16.7994   21.5707 H   0  0  0  0  0  0
  -29.3513  -19.0198   22.5795 H   0  0  0  0  0  0
  -29.1740  -15.1201   21.7072 H   0  0  0  0  0  0
  1 25  1  0  0  0
  1 30  2  0  0  0
  1 83  1  0  0  0
  2  3  1  0  0  0
  2 25  1  0  0  0
  2 85  1  0  0  0
  2 86  1  0  0  0
  3  4  1  0  0  0
  3 87  1  0  0  0
  3 88  1  0  0  0
  4  5  1  0  0  0
  4 89  1  0  0  0
  4 90  1  0  0  0
  5  6  1  0  0  0
  5 26  1  0  0  0
  5 91  1  0  0  0
  6 25  1  0  0  0
  6 92  1  0  0  0
  6 93  1  0  0  0
  7  8  2  0  0  0
  7 26  1  0  0  0
  7 29  1  0  0  0
  8  9  1  0  0  0
  8 22  1  0  0  0
  9 10  1  0  0  0
  9 27  2  0  0  0
 10 11  2  0  0  0
 10 15  1  0  0  0
 11 12  1  0  0  0
 11 94  1  0  0  0
 12 13  2  0  0  0
 12 95  1  0  0  0
 13 14  1  0  0  0
 13 31  1  0  0  0
 14 15  2  0  0  0
 14 96  1  0  0  0
 15 97  1  0  0  0
 16 17  2  0  0  0
 16 21  1  0  0  0
 16 31  1  0  0  0
 17 18  1  0  0  0
 17 98  1  0  0  0
 18 19  2  0  0  0
 18 99  1  0  0  0
 19 20  1  0  0  0
 19 24  1  0  0  0
 20 21  2  0  0  0
 20100  1  0  0  0
 21 23  1  0  0  0
 22 28  1  0  0  0
 22 32  2  0  0  0
 26 27  1  0  0  0
 28101  1  0  0  0
 28102  1  0  0  0
 29103  1  0  0  0
 29104  1  0  0  0
 33 34  1  0  0  0
 33 66  1  0  0  0
 33 70  2  0  0  0
 34 36  1  0  0  0
 34 59  1  0  0  0
 34105  1  0  0  0
 35 44  2  0  0  0
 35 45  1  0  0  0
 35 68  1  0  0  0
 36 56  1  0  0  0
 36106  1  0  0  0
 37 39  1  0  0  0
 37 47  1  0  0  0
 37 66  1  0  0  0
 37107  1  0  0  0
 38 43  2  0  0  0
 38 46  1  0  0  0
 38 47  1  0  0  0
 39 64  1  0  0  0
 39 67  2  0  0  0
 40 52  1  0  0  0
 40 53  2  0  0  0
 40 58  1  0  0  0
 41108  1  0  0  0
 41109  1  0  0  0
 41110  1  0  0  0
 41 48  1  0  0  0
 42 43  1  0  0  0
 42 66  1  0  0  0
 42111  1  0  0  0
 42112  1  0  0  0
 43 44  1  0  0  0
 44113  1  0  0  0
 45 46  2  0  0  0
 45114  1  0  0  0
 46115  1  0  0  0
 47116  1  0  0  0
 47117  1  0  0  0
 48 56  1  0  0  0
 48 65  1  0  0  0
 48118  1  0  0  0
 49 50  1  0  0  0
 49 53  1  0  0  0
 49 64  1  0  0  0
 49119  1  0  0  0
 50 51  1  0  0  0
 50120  1  0  0  0
 50121  1  0  0  0
 51 52  1  0  0  0
 51122  1  0  0  0
 51123  1  0  0  0
 52124  1  0  0  0
 52125  1  0  0  0
 53 54  1  0  0  0
 54 55  2  0  0  0
 54126  1  0  0  0
 55 57  1  0  0  0
 55127  1  0  0  0
 56 69  2  0  0  0
 57 58  2  0  0  0
 57128  1  0  0  0
 58129  1  0  0  0
 59 60  1  0  0  0
 59 61  1  0  0  0
 59 62  1  0  0  0
 60130  1  0  0  0
 60131  1  0  0  0
 60132  1  0  0  0
 61133  1  0  0  0
 61134  1  0  0  0
 61135  1  0  0  0
 62136  1  0  0  0
 62137  1  0  0  0
 62138  1  0  0  0
 63 65  1  0  0  0
 63139  1  0  0  0
 63140  1  0  0  0
 63141  1  0  0  0
 64142  1  0  0  0
 65143  1  0  0  0
 68 78  1  0  0  0
 71 74  2  0  0  0
 71 75  1  0  0  0
 71144  1  0  0  0
 72 73  2  0  0  0
 72 81  1  0  0  0
 72145  1  0  0  0
 73 74  1  0  0  0
 73 76  1  0  0  0
 74 77  1  0  0  0
 75 81  2  0  0  0
 75 82  1  0  0  0
 76 78  1  0  0  0
 76 84  2  0  0  0
 77146  1  0  0  0
 77147  1  0  0  0
 77148  1  0  0  0
 78149  1  0  0  0
 78150  1  0  0  0
 79 80  1  0  0  0
 79 82  1  0  0  0
 79151  1  0  0  0
 79152  1  0  0  0
 80 83  1  0  0  0
 80153  1  0  0  0
 80154  1  0  0  0
 82155  1  0  0  0
 83156  1  0  0  0
M  ISO  4   1 100  68 101  78 101  83 100
M  END
> <chiral flag>
0

> <version>
0

> <s_m_source_file>
/data/baiqing/PycharmProjects/Reinvent-master-3.2/result/LINK_invent/BTK/process_docking_weight1_custom_sum_contain_oxygen_bond_distance_aromatic_linkinvent_7_9_3/rearranged_h_0125.sdf

> <i_m_source_file_index>
89

> <r_mmod_Potential_Energy-OPLS-2005>
-291.642272949219

> <r_mmod_Stretch_Energy-OPLS-2005>
39.5049247741699

> <r_mmod_Bend_Energy-OPLS-2005>
103.222999572754

> <r_mmod_Torsional_Energy-OPLS-2005>
226.960876464844

> <r_mmod_Improper_Torsional_Energy-OPLS-2005>
5.20987129211426

> <r_mmod_Van_der_Waal_Energy-OPLS-2005>
163.858810424805

> <r_mmod_Electrostatic_Energy-OPLS-2005>
-593.795715332031

> <r_mmod_Solvation_Energy-OPLS-2005>
-246.85725402832

> <b_mmod_Minimization_Converged-OPLS-2005>
0

> <r_mmod_RMS_Derivative-OPLS-2005>
1.04806292057037

$$$$
90
                    3D
 Structure written by MMmdl.
172181  0  0  1  0            999 V2000
  -30.6765  -14.6176   20.3863 C   0  0  0  0  0  0
  -30.4275  -12.3507   19.4393 C   0  0  0  0  0  0
  -29.4842  -12.3575   18.2151 C   0  0  0  0  0  0
  -28.0036  -12.2963   18.6383 C   0  0  0  0  0  0
  -27.6414  -13.2095   19.8420 C   0  0  2  0  0  0
  -28.7034  -13.1407   20.9588 C   0  0  0  0  0  0
  -25.2557  -13.8177   20.5744 C   0  0  0  0  0  0
  -24.1812  -13.0446   20.9220 C   0  0  0  0  0  0
  -24.6377  -11.6915   20.8803 C   0  0  0  0  0  0
  -23.9061  -10.4285   21.0439 C   0  0  0  0  0  0
  -24.3606   -9.4192   21.9207 C   0  0  0  0  0  0
  -23.6282   -8.2231   22.0771 C   0  0  0  0  0  0
  -22.4272   -8.0279   21.3549 C   0  0  0  0  0  0
  -21.9917   -9.0252   20.4651 C   0  0  0  0  0  0
  -22.7245  -10.2134   20.3070 C   0  0  0  0  0  0
  -21.6844   -6.0738   22.5278 C   0  0  0  0  0  0
  -21.4000   -6.5642   23.8211 C   0  0  0  0  0  0
  -21.3656   -5.6794   24.9175 C   0  0  0  0  0  0
  -21.6056   -4.3058   24.7225 C   0  0  0  0  0  0
  -21.8818   -3.8150   23.4343 C   0  0  0  0  0  0
  -21.9184   -4.6966   22.3399 C   0  0  0  0  0  0
  -22.7831  -13.5229   21.1850 C   0  0  0  0  0  0
  -22.1657   -4.2152   21.0976 F   0  0  0  0  0  0
  -21.5630   -3.4543   25.7738 F   0  0  0  0  0  0
  -30.0027  -13.4296   20.3457 N   0  0  0  0  0  0
  -26.2961  -12.9341   20.3358 N   0  0  0  0  0  0
  -25.9303  -11.6514   20.5872 N   0  0  0  0  0  0
  -22.0464  -12.8212   22.0388 N   0  0  0  0  0  0
  -25.4292  -15.1906   20.4176 N   0  0  0  0  0  0
  -31.9051  -14.6576   20.2981 O   0  0  0  0  0  0
  -21.6633   -6.8883   21.4242 O   0  0  0  0  0  0
  -22.3533  -14.5540   20.6689 O   0  0  0  0  0  0
  -24.6192  -31.8668   23.2084 C   0  0  0  0  0  0
  -25.9066  -32.4819   23.8403 C   0  0  1  0  0  0
  -27.2148  -27.3762   20.1191 C   0  0  0  0  0  0
  -25.5917  -33.8616   24.2338 N   0  0  0  0  0  0
  -23.4101  -30.4920   21.5508 C   0  0  2  0  0  0
  -24.8545  -28.9608   20.1088 C   0  0  0  0  0  0
  -22.7447  -29.4649   22.4959 C   0  0  0  0  0  0
  -18.0289  -28.1377   22.8487 C   0  0  0  0  0  0
  -24.1485  -36.7296   23.2639 C   0  0  0  0  0  0
  -25.9455  -30.8169   21.3723 C   0  0  0  0  0  0
  -26.0199  -29.4505   20.7123 C   0  0  0  0  0  0
  -27.2049  -28.6684   20.7097 C   0  0  0  0  0  0
  -26.0337  -26.9304   19.4809 C   0  0  0  0  0  0
  -24.8604  -27.7043   19.4841 C   0  0  0  0  0  0
  -23.6200  -29.8326   20.1626 C   0  0  0  0  0  0
  -25.4111  -36.3114   24.0345 C   0  0  1  0  0  0
  -20.5884  -28.3677   23.1303 C   0  0  2  0  0  0
  -20.6780  -26.9410   22.5406 C   0  0  0  0  0  0
  -19.5747  -26.6384   21.5211 C   0  0  0  0  0  0
  -18.1930  -26.7920   22.1627 C   0  0  0  0  0  0
  -19.1539  -28.8840   23.2892 C   0  0  0  0  0  0
  -18.9458  -30.1446   23.8900 C   0  0  0  0  0  0
  -17.6463  -30.6585   24.0556 C   0  0  0  0  0  0
  -25.9048  -34.9479   23.5142 C   0  0  0  0  0  0
  -16.5354  -29.9086   23.6320 C   0  0  0  0  0  0
  -16.7280  -28.6500   23.0343 C   0  0  0  0  0  0
  -26.4476  -31.6595   25.0739 C   0  0  0  0  0  0
  -25.3711  -31.3674   26.1453 C   0  0  0  0  0  0
  -27.0342  -30.3048   24.6136 C   0  0  0  0  0  0
  -27.6044  -32.4312   25.7519 C   0  0  0  0  0  0
  -27.5582  -37.1812   24.8473 C   0  0  0  0  0  0
  -21.4169  -29.3040   22.3704 N   0  0  0  0  0  0
  -26.4297  -37.3801   23.9412 N   0  0  0  0  0  0
  -24.6766  -31.0732   22.1019 N   0  0  0  0  0  0
  -23.4198  -28.8188   23.3018 O   0  0  0  0  0  0
  -28.3348  -26.5544   20.1961 O   0  0  0  0  0  0
  -26.5607  -34.8933   22.4706 O   0  0  0  0  0  0
  -23.5363  -32.1453   23.7439 O   0  0  0  0  0  0
  -30.3078  -17.2195   18.1400 C   0  0  0  0  0  0
  -28.2301  -20.4382   20.0542 C   0  0  0  0  0  0
  -29.5074  -20.3893   22.1824 C   0  0  0  0  0  0
  -28.5202  -21.9585   19.8798 C   0  0  0  0  0  0
  -29.8265  -21.9043   22.0188 C   0  0  0  0  0  0
  -31.1889  -17.6243   19.2980 C   0  0  0  0  0  0
  -29.6734  -15.9175   18.6389 C   0  0  0  0  0  0
  -29.3438  -19.6759   20.8202 C   0  0  1  0  0  0
  -28.7672  -22.7185   21.2118 C   0  0  1  0  0  0
  -30.3699  -17.1410   20.5081 C   0  0  1  0  0  0
  -28.3911  -17.6000   22.0895 C   0  0  0  0  0  0
  -29.4195  -24.9329   22.3879 C   0  0  0  0  0  0
  -28.0773  -25.1161   20.2675 C   0  0  0  0  0  0
  -29.1314  -18.0913   20.8328 C   0  0  1  0  0  0
  -29.1433  -24.2546   21.0288 C   0  0  2  0  0  0
  -29.9496  -15.7540   20.0917 N   0  0  0  0  0  0
  -31.4617  -12.4668   19.1102 H   0  0  0  0  0  0
  -30.3795  -11.3908   19.9556 H   0  0  0  0  0  0
  -29.7074  -11.4946   17.5855 H   0  0  0  0  0  0
  -29.6531  -13.2109   17.5703 H   0  0  0  0  0  0
  -27.7996  -11.2570   18.8967 H   0  0  0  0  0  0
  -27.3591  -12.5231   17.7881 H   0  0  0  0  0  0
  -27.6282  -14.2264   19.4620 H   0  0  0  0  0  0
  -28.7169  -12.1558   21.4290 H   0  0  0  0  0  0
  -28.4817  -13.8642   21.7446 H   0  0  0  0  0  0
  -25.2740   -9.5679   22.4791 H   0  0  0  0  0  0
  -23.9986   -7.4633   22.7502 H   0  0  0  0  0  0
  -21.0849   -8.8778   19.8949 H   0  0  0  0  0  0
  -22.3703  -10.9679   19.6188 H   0  0  0  0  0  0
  -21.1994   -7.6155   23.9711 H   0  0  0  0  0  0
  -21.1480   -6.0529   25.9079 H   0  0  0  0  0  0
  -22.0600   -2.7614   23.2840 H   0  0  0  0  0  0
  -22.4064  -11.9856   22.4755 H   0  0  0  0  0  0
  -21.1078  -13.1224   22.2562 H   0  0  0  0  0  0
  -24.6732  -15.8511   20.5618 H   0  0  0  0  0  0
  -26.2977  -15.6347   20.1469 H   0  0  0  0  0  0
  -26.7132  -32.5524   23.1160 H   0  0  0  0  0  0
  -25.0074  -33.9785   25.0486 H   0  0  0  0  0  0
  -22.6989  -31.3096   21.4141 H   0  0  0  0  0  0
  -23.3768  -35.9606   23.3303 H   0  0  0  0  0  0
  -24.3579  -36.8918   22.2054 H   0  0  0  0  0  0
  -23.7201  -37.6485   23.6652 H   0  0  0  0  0  0
  -26.0709  -31.5843   20.6073 H   0  0  0  0  0  0
  -26.8283  -30.8635   21.9989 H   0  0  0  0  0  0
  -28.0984  -29.0336   21.1974 H   0  0  0  0  0  0
  -25.9954  -25.9705   18.9872 H   0  0  0  0  0  0
  -23.9670  -27.3252   19.0074 H   0  0  0  0  0  0
  -23.7312  -30.6125   19.4080 H   0  0  0  0  0  0
  -22.7418  -29.2574   19.8627 H   0  0  0  0  0  0
  -25.1274  -36.2000   25.0835 H   0  0  0  0  0  0
  -20.9974  -28.3247   24.1426 H   0  0  0  0  0  0
  -20.5725  -26.2275   23.3594 H   0  0  0  0  0  0
  -21.6644  -26.7470   22.1182 H   0  0  0  0  0  0
  -19.6918  -25.6302   21.1230 H   0  0  0  0  0  0
  -19.6681  -27.3197   20.6744 H   0  0  0  0  0  0
  -17.4205  -26.6667   21.4027 H   0  0  0  0  0  0
  -18.0336  -26.0058   22.9019 H   0  0  0  0  0  0
  -19.7935  -30.7249   24.2278 H   0  0  0  0  0  0
  -17.5025  -31.6266   24.5158 H   0  0  0  0  0  0
  -15.5357  -30.2990   23.7645 H   0  0  0  0  0  0
  -15.8679  -28.0831   22.7051 H   0  0  0  0  0  0
  -24.5901  -30.7032   25.7736 H   0  0  0  0  0  0
  -24.8874  -32.2816   26.4898 H   0  0  0  0  0  0
  -25.8031  -30.8813   27.0212 H   0  0  0  0  0  0
  -26.2925  -29.6799   24.1152 H   0  0  0  0  0  0
  -27.4086  -29.7286   25.4607 H   0  0  0  0  0  0
  -27.8763  -30.4384   23.9343 H   0  0  0  0  0  0
  -27.2677  -33.3621   26.2089 H   0  0  0  0  0  0
  -28.3862  -32.6854   25.0351 H   0  0  0  0  0  0
  -28.0700  -31.8431   26.5438 H   0  0  0  0  0  0
  -28.2591  -38.0118   24.7554 H   0  0  0  0  0  0
  -28.1095  -36.2654   24.6279 H   0  0  0  0  0  0
  -27.2300  -37.1441   25.8875 H   0  0  0  0  0  0
  -20.9340  -29.8765   21.6919 H   0  0  0  0  0  0
  -26.0198  -38.2890   24.1397 H   0  0  0  0  0  0
  -30.8696  -17.0903   17.2136 H   0  0  0  0  0  0
  -29.5422  -17.9750   17.9563 H   0  0  0  0  0  0
  -28.1031  -19.9967   19.0647 H   0  0  0  0  0  0
  -27.2753  -20.3062   20.5666 H   0  0  0  0  0  0
  -28.5971  -20.2845   22.7753 H   0  0  0  0  0  0
  -30.3032  -19.9102   22.7547 H   0  0  0  0  0  0
  -27.6810  -22.4093   19.3498 H   0  0  0  0  0  0
  -29.3869  -22.0790   19.2288 H   0  0  0  0  0  0
  -30.7993  -22.0109   21.5394 H   0  0  0  0  0  0
  -29.9329  -22.3212   23.0196 H   0  0  0  0  0  0
  -31.4774  -18.6709   19.2706 H   0  0  0  0  0  0
  -32.1295  -17.0739   19.2473 H   0  0  0  0  0  0
  -30.1228  -15.1306   18.0418 H   0  0  0  0  0  0
  -28.6033  -15.9097   18.4338 H   0  0  0  0  0  0
  -30.2532  -19.9083   20.2816 H   0  0  0  0  0  0
  -27.8350  -22.6809   21.7787 H   0  0  0  0  0  0
  -31.0211  -17.0944   21.3832 H   0  0  0  0  0  0
  -27.4975  -18.1939   22.2839 H   0  0  0  0  0  0
  -29.0263  -17.6546   22.9741 H   0  0  0  0  0  0
  -28.0675  -16.5643   21.9789 H   0  0  0  0  0  0
  -30.2566  -24.4814   22.9172 H   0  0  0  0  0  0
  -28.5441  -24.8956   23.0374 H   0  0  0  0  0  0
  -29.6807  -25.9828   22.2590 H   0  0  0  0  0  0
  -27.1222  -24.9330   20.7633 H   0  0  0  0  0  0
  -27.9760  -24.7430   19.2489 H   0  0  0  0  0  0
  -28.4198  -17.9103   20.0268 H   0  0  0  0  0  0
  -30.0665  -24.3038   20.4510 H   0  0  0  0  0  0
  1 25  1  0  0  0
  1 30  2  0  0  0
  1 86  1  0  0  0
  2  3  1  0  0  0
  2 25  1  0  0  0
  2 87  1  0  0  0
  2 88  1  0  0  0
  3  4  1  0  0  0
  3 89  1  0  0  0
  3 90  1  0  0  0
  4  5  1  0  0  0
  4 91  1  0  0  0
  4 92  1  0  0  0
  5  6  1  0  0  0
  5 26  1  0  0  0
  5 93  1  0  0  0
  6 25  1  0  0  0
  6 94  1  0  0  0
  6 95  1  0  0  0
  7  8  2  0  0  0
  7 26  1  0  0  0
  7 29  1  0  0  0
  8  9  1  0  0  0
  8 22  1  0  0  0
  9 10  1  0  0  0
  9 27  2  0  0  0
 10 11  2  0  0  0
 10 15  1  0  0  0
 11 12  1  0  0  0
 11 96  1  0  0  0
 12 13  2  0  0  0
 12 97  1  0  0  0
 13 14  1  0  0  0
 13 31  1  0  0  0
 14 15  2  0  0  0
 14 98  1  0  0  0
 15 99  1  0  0  0
 16 17  2  0  0  0
 16 21  1  0  0  0
 16 31  1  0  0  0
 17 18  1  0  0  0
 17100  1  0  0  0
 18 19  2  0  0  0
 18101  1  0  0  0
 19 20  1  0  0  0
 19 24  1  0  0  0
 20 21  2  0  0  0
 20102  1  0  0  0
 21 23  1  0  0  0
 22 28  1  0  0  0
 22 32  2  0  0  0
 26 27  1  0  0  0
 28103  1  0  0  0
 28104  1  0  0  0
 29105  1  0  0  0
 29106  1  0  0  0
 33 34  1  0  0  0
 33 66  1  0  0  0
 33 70  2  0  0  0
 34 36  1  0  0  0
 34 59  1  0  0  0
 34107  1  0  0  0
 35 44  2  0  0  0
 35 45  1  0  0  0
 35 68  1  0  0  0
 36 56  1  0  0  0
 36108  1  0  0  0
 37 39  1  0  0  0
 37 47  1  0  0  0
 37 66  1  0  0  0
 37109  1  0  0  0
 38 43  2  0  0  0
 38 46  1  0  0  0
 38 47  1  0  0  0
 39 64  1  0  0  0
 39 67  2  0  0  0
 40 52  1  0  0  0
 40 53  2  0  0  0
 40 58  1  0  0  0
 41110  1  0  0  0
 41111  1  0  0  0
 41112  1  0  0  0
 41 48  1  0  0  0
 42 43  1  0  0  0
 42 66  1  0  0  0
 42113  1  0  0  0
 42114  1  0  0  0
 43 44  1  0  0  0
 44115  1  0  0  0
 45 46  2  0  0  0
 45116  1  0  0  0
 46117  1  0  0  0
 47118  1  0  0  0
 47119  1  0  0  0
 48 56  1  0  0  0
 48 65  1  0  0  0
 48120  1  0  0  0
 49 50  1  0  0  0
 49 53  1  0  0  0
 49 64  1  0  0  0
 49121  1  0  0  0
 50 51  1  0  0  0
 50122  1  0  0  0
 50123  1  0  0  0
 51 52  1  0  0  0
 51124  1  0  0  0
 51125  1  0  0  0
 52126  1  0  0  0
 52127  1  0  0  0
 53 54  1  0  0  0
 54 55  2  0  0  0
 54128  1  0  0  0
 55 57  1  0  0  0
 55129  1  0  0  0
 56 69  2  0  0  0
 57 58  2  0  0  0
 57130  1  0  0  0
 58131  1  0  0  0
 59 60  1  0  0  0
 59 61  1  0  0  0
 59 62  1  0  0  0
 60132  1  0  0  0
 60133  1  0  0  0
 60134  1  0  0  0
 61135  1  0  0  0
 61136  1  0  0  0
 61137  1  0  0  0
 62138  1  0  0  0
 62139  1  0  0  0
 62140  1  0  0  0
 63 65  1  0  0  0
 63141  1  0  0  0
 63142  1  0  0  0
 63143  1  0  0  0
 64144  1  0  0  0
 65145  1  0  0  0
 68 83  1  0  0  0
 71 76  1  0  0  0
 71 77  1  0  0  0
 71146  1  0  0  0
 71147  1  0  0  0
 72 74  1  0  0  0
 72148  1  0  0  0
 72149  1  0  0  0
 72 78  1  0  0  0
 73 75  1  0  0  0
 73 78  1  0  0  0
 73150  1  0  0  0
 73151  1  0  0  0
 74152  1  0  0  0
 74153  1  0  0  0
 74 79  1  0  0  0
 75 79  1  0  0  0
 75154  1  0  0  0
 75155  1  0  0  0
 76156  1  0  0  0
 76157  1  0  0  0
 76 80  1  0  0  0
 77 86  1  0  0  0
 77158  1  0  0  0
 77159  1  0  0  0
 78 84  1  0  0  0
 78160  1  0  0  0
 79 85  1  0  0  0
 79161  1  0  0  0
 80 84  1  0  0  0
 80 86  1  0  0  0
 80162  1  0  0  0
 81163  1  0  0  0
 81164  1  0  0  0
 81165  1  0  0  0
 81 84  1  0  0  0
 82166  1  0  0  0
 82167  1  0  0  0
 82168  1  0  0  0
 82 85  1  0  0  0
 83 85  1  0  0  0
 83169  1  0  0  0
 83170  1  0  0  0
 84171  1  0  0  0
 85172  1  0  0  0
M  ISO  4   1 100  68 101  83 101  86 100
M  END
> <chiral flag>
0

> <version>
0

> <s_m_source_file>
/data/baiqing/PycharmProjects/Reinvent-master-3.2/result/LINK_invent/BTK/process_docking_weight1_custom_sum_contain_oxygen_bond_distance_aromatic_linkinvent_7_9_3/rearranged_h_0125.sdf

> <i_m_source_file_index>
90

> <r_mmod_Potential_Energy-OPLS-2005>
412.187133789062

> <r_mmod_Stretch_Energy-OPLS-2005>
68.9701614379883

> <r_mmod_Bend_Energy-OPLS-2005>
164.846374511719

> <r_mmod_Torsional_Energy-OPLS-2005>
413.773345947266

> <r_mmod_Improper_Torsional_Energy-OPLS-2005>
17.4231491088867

> <r_mmod_Van_der_Waal_Energy-OPLS-2005>
140.480270385742

> <r_mmod_Electrostatic_Energy-OPLS-2005>
-276.788421630859

> <r_mmod_Solvation_Energy-OPLS-2005>
-172.191986083984

> <b_mmod_Minimization_Converged-OPLS-2005>
0

> <r_mmod_RMS_Derivative-OPLS-2005>
1.84829044342041

$$$$
91
                    3D
 Structure written by MMmdl.
160169  0  0  1  0            999 V2000
  -30.8411  -14.2967   20.7353 C   0  0  0  0  0  0
  -30.4032  -12.2887   19.3776 C   0  0  0  0  0  0
  -29.4642  -12.5202   18.1829 C   0  0  0  0  0  0
  -27.9977  -12.3660   18.6154 C   0  0  0  0  0  0
  -27.6620  -13.2060   19.8729 C   0  0  2  0  0  0
  -28.7030  -12.9832   20.9918 C   0  0  0  0  0  0
  -25.2598  -13.8188   20.5710 C   0  0  0  0  0  0
  -24.1838  -13.0459   20.9186 C   0  0  0  0  0  0
  -24.6384  -11.6926   20.8735 C   0  0  0  0  0  0
  -23.9053  -10.4309   21.0410 C   0  0  0  0  0  0
  -24.3607   -9.4226   21.9189 C   0  0  0  0  0  0
  -23.6287   -8.2257   22.0753 C   0  0  0  0  0  0
  -22.4274   -8.0288   21.3540 C   0  0  0  0  0  0
  -21.9909   -9.0264   20.4645 C   0  0  0  0  0  0
  -22.7230  -10.2147   20.3060 C   0  0  0  0  0  0
  -21.6856   -6.0741   22.5280 C   0  0  0  0  0  0
  -21.4012   -6.5641   23.8213 C   0  0  0  0  0  0
  -21.3654   -5.6791   24.9172 C   0  0  0  0  0  0
  -21.6045   -4.3055   24.7224 C   0  0  0  0  0  0
  -21.8818   -3.8150   23.4345 C   0  0  0  0  0  0
  -21.9193   -4.6969   22.3402 C   0  0  0  0  0  0
  -22.7857  -13.5252   21.1846 C   0  0  0  0  0  0
  -22.1662   -4.2154   21.0982 F   0  0  0  0  0  0
  -21.5629   -3.4537   25.7735 F   0  0  0  0  0  0
  -30.0529  -13.2311   20.4508 N   0  0  0  0  0  0
  -26.3028  -12.9352   20.3392 N   0  0  0  0  0  0
  -25.9313  -11.6511   20.5788 N   0  0  0  0  0  0
  -22.0488  -12.8247   22.0398 N   0  0  0  0  0  0
  -25.4343  -15.1899   20.4133 N   0  0  0  0  0  0
  -31.8033  -14.6277   20.0382 O   0  0  0  0  0  0
  -21.6639   -6.8884   21.4240 O   0  0  0  0  0  0
  -22.3547  -14.5560   20.6699 O   0  0  0  0  0  0
  -24.6103  -31.8706   23.2135 C   0  0  0  0  0  0
  -25.9015  -32.4837   23.8421 C   0  0  1  0  0  0
  -27.2385  -27.4799   20.0860 C   0  0  0  0  0  0
  -25.5898  -33.8637   24.2364 N   0  0  0  0  0  0
  -23.3980  -30.4950   21.5505 C   0  0  2  0  0  0
  -24.8457  -28.9621   20.1188 C   0  0  0  0  0  0
  -22.7404  -29.4658   22.4974 C   0  0  0  0  0  0
  -18.0269  -28.1369   22.8488 C   0  0  0  0  0  0
  -24.1475  -36.7310   23.2643 C   0  0  0  0  0  0
  -25.9234  -30.8473   21.3634 C   0  0  0  0  0  0
  -26.0008  -29.4838   20.7145 C   0  0  0  0  0  0
  -27.2024  -28.7470   20.7011 C   0  0  0  0  0  0
  -26.0739  -26.9574   19.4922 C   0  0  0  0  0  0
  -24.8719  -27.6927   19.5115 C   0  0  0  0  0  0
  -23.6080  -29.8290   20.1647 C   0  0  0  0  0  0
  -25.4097  -36.3123   24.0352 C   0  0  1  0  0  0
  -20.5859  -28.3648   23.1323 C   0  0  2  0  0  0
  -20.6758  -26.9387   22.5419 C   0  0  0  0  0  0
  -19.5740  -26.6374   21.5214 C   0  0  0  0  0  0
  -18.1907  -26.7924   22.1609 C   0  0  0  0  0  0
  -19.1521  -28.8826   23.2902 C   0  0  0  0  0  0
  -18.9449  -30.1432   23.8906 C   0  0  0  0  0  0
  -17.6454  -30.6576   24.0554 C   0  0  0  0  0  0
  -25.9032  -34.9488   23.5158 C   0  0  0  0  0  0
  -16.5336  -29.9074   23.6334 C   0  0  0  0  0  0
  -16.7262  -28.6494   23.0353 C   0  0  0  0  0  0
  -26.4473  -31.6612   25.0742 C   0  0  0  0  0  0
  -25.3769  -31.3676   26.1518 C   0  0  0  0  0  0
  -27.0325  -30.3078   24.6083 C   0  0  0  0  0  0
  -27.6056  -32.4345   25.7501 C   0  0  0  0  0  0
  -27.5574  -37.1800   24.8471 C   0  0  0  0  0  0
  -21.4132  -29.3027   22.3739 N   0  0  0  0  0  0
  -26.4280  -37.3810   23.9426 N   0  0  0  0  0  0
  -24.6613  -31.0855   22.1010 N   0  0  0  0  0  0
  -23.4201  -28.8182   23.2985 O   0  0  0  0  0  0
  -28.4069  -26.7703   20.0187 O   0  0  0  0  0  0
  -26.5580  -34.8924   22.4704 O   0  0  0  0  0  0
  -23.5312  -32.1432   23.7558 O   0  0  0  0  0  0
  -28.9339  -23.9866   19.9085 C   0  0  0  0  0  0
  -28.8727  -22.5848   19.8678 C   0  0  0  0  0  0
  -28.4641  -23.8482   22.2734 C   0  0  0  0  0  0
  -28.7183  -24.6356   21.1363 C   0  0  0  0  0  0
  -28.5931  -21.8766   21.0491 C   0  0  0  0  0  0
  -29.9027  -18.3425   21.6284 C   0  0  0  0  0  0
  -27.6470  -19.5632   21.9607 C   0  0  0  0  0  0
  -28.5152  -20.3789   21.0354 C   0  0  2  0  0  0
  -29.1654  -19.5411   22.1071 C   0  0  2  0  0  0
  -28.7993  -26.1478   21.2367 C   0  0  0  0  0  0
  -31.9498  -17.0022   21.9919 C   0  0  0  0  0  0
  -31.5569  -15.6845   22.6942 C   0  0  0  0  0  0
  -28.3959  -22.4980   22.2348 N   0  0  0  0  0  0
  -31.0165  -18.0701   22.3137 N   0  0  0  0  0  0
  -30.6256  -14.8426   21.9388 N   0  0  0  0  0  0
  -29.5362  -17.6663   20.6646 O   0  0  0  0  0  0
  -31.4422  -12.3868   19.0571 H   0  0  0  0  0  0
  -30.3065  -11.2666   19.7483 H   0  0  0  0  0  0
  -29.6913  -11.8120   17.3849 H   0  0  0  0  0  0
  -29.6249  -13.5156   17.7669 H   0  0  0  0  0  0
  -27.8196  -11.3088   18.8179 H   0  0  0  0  0  0
  -27.3312  -12.6344   17.7954 H   0  0  0  0  0  0
  -27.7126  -14.2546   19.5784 H   0  0  0  0  0  0
  -28.6519  -11.9611   21.3688 H   0  0  0  0  0  0
  -28.4525  -13.6244   21.8368 H   0  0  0  0  0  0
  -25.2751   -9.5705   22.4764 H   0  0  0  0  0  0
  -24.0001   -7.4649   22.7474 H   0  0  0  0  0  0
  -21.0841   -8.8778   19.8949 H   0  0  0  0  0  0
  -22.3687  -10.9683   19.6167 H   0  0  0  0  0  0
  -21.1999   -7.6148   23.9717 H   0  0  0  0  0  0
  -21.1478   -6.0521   25.9074 H   0  0  0  0  0  0
  -22.0600   -2.7614   23.2844 H   0  0  0  0  0  0
  -22.4084  -11.9906   22.4791 H   0  0  0  0  0  0
  -21.1106  -13.1283   22.2593 H   0  0  0  0  0  0
  -24.6785  -15.8548   20.5407 H   0  0  0  0  0  0
  -26.3009  -15.6261   20.1207 H   0  0  0  0  0  0
  -26.7085  -32.5564   23.1186 H   0  0  0  0  0  0
  -25.0108  -33.9808   25.0550 H   0  0  0  0  0  0
  -22.6848  -31.3103   21.4103 H   0  0  0  0  0  0
  -23.3739  -35.9642   23.3341 H   0  0  0  0  0  0
  -24.3555  -36.8892   22.2048 H   0  0  0  0  0  0
  -23.7214  -37.6516   23.6639 H   0  0  0  0  0  0
  -26.0352  -31.6131   20.5946 H   0  0  0  0  0  0
  -26.8114  -30.8976   21.9806 H   0  0  0  0  0  0
  -28.1023  -29.1538   21.1402 H   0  0  0  0  0  0
  -26.0991  -25.9876   19.0145 H   0  0  0  0  0  0
  -23.9816  -27.2836   19.0530 H   0  0  0  0  0  0
  -23.7242  -30.6072   19.4095 H   0  0  0  0  0  0
  -22.7315  -29.2544   19.8601 H   0  0  0  0  0  0
  -25.1259  -36.2003   25.0846 H   0  0  0  0  0  0
  -20.9933  -28.3200   24.1453 H   0  0  0  0  0  0
  -20.5659  -26.2244   23.3595 H   0  0  0  0  0  0
  -21.6629  -26.7435   22.1200 H   0  0  0  0  0  0
  -19.6902  -25.6293   21.1228 H   0  0  0  0  0  0
  -19.6686  -27.3202   20.6766 H   0  0  0  0  0  0
  -17.4188  -26.6691   21.3998 H   0  0  0  0  0  0
  -18.0279  -26.0060   22.8997 H   0  0  0  0  0  0
  -19.7927  -30.7240   24.2271 H   0  0  0  0  0  0
  -17.5015  -31.6264   24.5146 H   0  0  0  0  0  0
  -15.5337  -30.2966   23.7678 H   0  0  0  0  0  0
  -15.8663  -28.0815   22.7065 H   0  0  0  0  0  0
  -24.5929  -30.7038   25.7875 H   0  0  0  0  0  0
  -24.8972  -32.2801   26.5066 H   0  0  0  0  0  0
  -25.8159  -30.8787   27.0224 H   0  0  0  0  0  0
  -26.2838  -29.6773   24.1280 H   0  0  0  0  0  0
  -27.4277  -29.7383   25.4506 H   0  0  0  0  0  0
  -27.8589  -30.4432   23.9102 H   0  0  0  0  0  0
  -27.2677  -33.3622   26.2133 H   0  0  0  0  0  0
  -28.3832  -32.6956   25.0313 H   0  0  0  0  0  0
  -28.0771  -31.8445   26.5369 H   0  0  0  0  0  0
  -28.2607  -38.0086   24.7528 H   0  0  0  0  0  0
  -28.1044  -36.2614   24.6290 H   0  0  0  0  0  0
  -27.2294  -37.1470   25.8877 H   0  0  0  0  0  0
  -20.9287  -29.8779   21.6991 H   0  0  0  0  0  0
  -26.0175  -38.2887   24.1453 H   0  0  0  0  0  0
  -29.1464  -24.5501   19.0111 H   0  0  0  0  0  0
  -29.0412  -22.0626   18.9351 H   0  0  0  0  0  0
  -28.3136  -24.3077   23.2387 H   0  0  0  0  0  0
  -27.1671  -18.6784   21.5463 H   0  0  0  0  0  0
  -27.0878  -20.0705   22.7435 H   0  0  0  0  0  0
  -28.5912  -20.0219   20.0093 H   0  0  0  0  0  0
  -29.5692  -20.0518   22.9800 H   0  0  0  0  0  0
  -29.8316  -26.4267   21.4483 H   0  0  0  0  0  0
  -28.2071  -26.4881   22.0899 H   0  0  0  0  0  0
  -32.0755  -16.9070   20.9130 H   0  0  0  0  0  0
  -32.9258  -17.3174   22.3624 H   0  0  0  0  0  0
  -31.1366  -15.8846   23.6812 H   0  0  0  0  0  0
  -32.4582  -15.0951   22.8730 H   0  0  0  0  0  0
  -31.2546  -18.6714   23.0922 H   0  0  0  0  0  0
  -29.8263  -14.4885   22.4422 H   0  0  0  0  0  0
  1 25  1  0  0  0
  1 30  2  0  0  0
  1 85  1  0  0  0
  2  3  1  0  0  0
  2 25  1  0  0  0
  2 87  1  0  0  0
  2 88  1  0  0  0
  3  4  1  0  0  0
  3 89  1  0  0  0
  3 90  1  0  0  0
  4  5  1  0  0  0
  4 91  1  0  0  0
  4 92  1  0  0  0
  5  6  1  0  0  0
  5 26  1  0  0  0
  5 93  1  0  0  0
  6 25  1  0  0  0
  6 94  1  0  0  0
  6 95  1  0  0  0
  7  8  2  0  0  0
  7 26  1  0  0  0
  7 29  1  0  0  0
  8  9  1  0  0  0
  8 22  1  0  0  0
  9 10  1  0  0  0
  9 27  2  0  0  0
 10 11  2  0  0  0
 10 15  1  0  0  0
 11 12  1  0  0  0
 11 96  1  0  0  0
 12 13  2  0  0  0
 12 97  1  0  0  0
 13 14  1  0  0  0
 13 31  1  0  0  0
 14 15  2  0  0  0
 14 98  1  0  0  0
 15 99  1  0  0  0
 16 17  2  0  0  0
 16 21  1  0  0  0
 16 31  1  0  0  0
 17 18  1  0  0  0
 17100  1  0  0  0
 18 19  2  0  0  0
 18101  1  0  0  0
 19 20  1  0  0  0
 19 24  1  0  0  0
 20 21  2  0  0  0
 20102  1  0  0  0
 21 23  1  0  0  0
 22 28  1  0  0  0
 22 32  2  0  0  0
 26 27  1  0  0  0
 28103  1  0  0  0
 28104  1  0  0  0
 29105  1  0  0  0
 29106  1  0  0  0
 33 34  1  0  0  0
 33 66  1  0  0  0
 33 70  2  0  0  0
 34 36  1  0  0  0
 34 59  1  0  0  0
 34107  1  0  0  0
 35 44  2  0  0  0
 35 45  1  0  0  0
 35 68  1  0  0  0
 36 56  1  0  0  0
 36108  1  0  0  0
 37 39  1  0  0  0
 37 47  1  0  0  0
 37 66  1  0  0  0
 37109  1  0  0  0
 38 43  2  0  0  0
 38 46  1  0  0  0
 38 47  1  0  0  0
 39 64  1  0  0  0
 39 67  2  0  0  0
 40 52  1  0  0  0
 40 53  2  0  0  0
 40 58  1  0  0  0
 41110  1  0  0  0
 41111  1  0  0  0
 41112  1  0  0  0
 41 48  1  0  0  0
 42 43  1  0  0  0
 42 66  1  0  0  0
 42113  1  0  0  0
 42114  1  0  0  0
 43 44  1  0  0  0
 44115  1  0  0  0
 45 46  2  0  0  0
 45116  1  0  0  0
 46117  1  0  0  0
 47118  1  0  0  0
 47119  1  0  0  0
 48 56  1  0  0  0
 48 65  1  0  0  0
 48120  1  0  0  0
 49 50  1  0  0  0
 49 53  1  0  0  0
 49 64  1  0  0  0
 49121  1  0  0  0
 50 51  1  0  0  0
 50122  1  0  0  0
 50123  1  0  0  0
 51 52  1  0  0  0
 51124  1  0  0  0
 51125  1  0  0  0
 52126  1  0  0  0
 52127  1  0  0  0
 53 54  1  0  0  0
 54 55  2  0  0  0
 54128  1  0  0  0
 55 57  1  0  0  0
 55129  1  0  0  0
 56 69  2  0  0  0
 57 58  2  0  0  0
 57130  1  0  0  0
 58131  1  0  0  0
 59 60  1  0  0  0
 59 61  1  0  0  0
 59 62  1  0  0  0
 60132  1  0  0  0
 60133  1  0  0  0
 60134  1  0  0  0
 61135  1  0  0  0
 61136  1  0  0  0
 61137  1  0  0  0
 62138  1  0  0  0
 62139  1  0  0  0
 62140  1  0  0  0
 63 65  1  0  0  0
 63141  1  0  0  0
 63142  1  0  0  0
 63143  1  0  0  0
 64144  1  0  0  0
 65145  1  0  0  0
 68 80  1  0  0  0
 71 72  2  0  0  0
 71 74  1  0  0  0
 71146  1  0  0  0
 72 75  1  0  0  0
 72147  1  0  0  0
 73 74  2  0  0  0
 73 83  1  0  0  0
 73148  1  0  0  0
 74 80  1  0  0  0
 75 83  2  0  0  0
 75 78  1  0  0  0
 76 84  1  0  0  0
 76 86  2  0  0  0
 76 79  1  0  0  0
 77 78  1  0  0  0
 77 79  1  0  0  0
 77149  1  0  0  0
 77150  1  0  0  0
 78 79  1  0  0  0
 78151  1  0  0  0
 79152  1  0  0  0
 80153  1  0  0  0
 80154  1  0  0  0
 81 82  1  0  0  0
 81 84  1  0  0  0
 81155  1  0  0  0
 81156  1  0  0  0
 82 85  1  0  0  0
 82157  1  0  0  0
 82158  1  0  0  0
 84159  1  0  0  0
 85160  1  0  0  0
M  ISO  4   1 100  68 101  80 101  85 100
M  END
> <chiral flag>
0

> <version>
0

> <s_m_source_file>
/data/baiqing/PycharmProjects/Reinvent-master-3.2/result/LINK_invent/BTK/process_docking_weight1_custom_sum_contain_oxygen_bond_distance_aromatic_linkinvent_7_9_3/rearranged_h_0125.sdf

> <i_m_source_file_index>
91

> <r_mmod_Potential_Energy-OPLS-2005>
-373.474182128906

> <r_mmod_Stretch_Energy-OPLS-2005>
30.2545890808105

> <r_mmod_Bend_Energy-OPLS-2005>
86.8756484985352

> <r_mmod_Torsional_Energy-OPLS-2005>
256.187438964844

> <r_mmod_Improper_Torsional_Energy-OPLS-2005>
4.35647630691528

> <r_mmod_Van_der_Waal_Energy-OPLS-2005>
156.108123779297

> <r_mmod_Electrostatic_Energy-OPLS-2005>
-673.206115722656

> <r_mmod_Solvation_Energy-OPLS-2005>
-242.070816040039

> <b_mmod_Minimization_Converged-OPLS-2005>
0

> <r_mmod_RMS_Derivative-OPLS-2005>
2.11232018470764

$$$$
92
                    3D
 Structure written by MMmdl.
169178  0  0  1  0            999 V2000
  -30.6122  -14.6786   20.4233 C   0  0  0  0  0  0
  -30.4209  -12.4014   19.4534 C   0  0  0  0  0  0
  -29.4850  -12.4341   18.2250 C   0  0  0  0  0  0
  -28.0107  -12.2983   18.6500 C   0  0  0  0  0  0
  -27.6266  -13.2013   19.8542 C   0  0  2  0  0  0
  -28.6797  -13.1487   20.9786 C   0  0  0  0  0  0
  -25.2458  -13.8110   20.5769 C   0  0  0  0  0  0
  -24.1730  -13.0388   20.9242 C   0  0  0  0  0  0
  -24.6306  -11.6853   20.8804 C   0  0  0  0  0  0
  -23.9005  -10.4257   21.0455 C   0  0  0  0  0  0
  -24.3578   -9.4177   21.9222 C   0  0  0  0  0  0
  -23.6279   -8.2198   22.0755 C   0  0  0  0  0  0
  -22.4261   -8.0253   21.3535 C   0  0  0  0  0  0
  -21.9895   -9.0223   20.4639 C   0  0  0  0  0  0
  -22.7196  -10.2104   20.3076 C   0  0  0  0  0  0
  -21.6841   -6.0732   22.5288 C   0  0  0  0  0  0
  -21.3998   -6.5637   23.8219 C   0  0  0  0  0  0
  -21.3661   -5.6795   24.9182 C   0  0  0  0  0  0
  -21.6064   -4.3061   24.7234 C   0  0  0  0  0  0
  -21.8813   -3.8152   23.4357 C   0  0  0  0  0  0
  -21.9166   -4.6966   22.3415 C   0  0  0  0  0  0
  -22.7755  -13.5185   21.1882 C   0  0  0  0  0  0
  -22.1638   -4.2157   21.0992 F   0  0  0  0  0  0
  -21.5643   -3.4552   25.7747 F   0  0  0  0  0  0
  -29.9785  -13.4648   20.3757 N   0  0  0  0  0  0
  -26.2838  -12.9238   20.3386 N   0  0  0  0  0  0
  -25.9223  -11.6420   20.5871 N   0  0  0  0  0  0
  -22.0377  -12.8198   22.0433 N   0  0  0  0  0  0
  -25.4239  -15.1826   20.4232 N   0  0  0  0  0  0
  -31.8370  -14.7631   20.3031 O   0  0  0  0  0  0
  -21.6608   -6.8861   21.4243 O   0  0  0  0  0  0
  -22.3461  -14.5489   20.6694 O   0  0  0  0  0  0
  -24.6237  -31.8601   23.1996 C   0  0  0  0  0  0
  -25.9098  -32.4763   23.8328 C   0  0  1  0  0  0
  -27.2272  -27.3185   20.1220 C   0  0  0  0  0  0
  -25.5899  -33.8563   24.2266 N   0  0  0  0  0  0
  -23.4151  -30.4839   21.5390 C   0  0  2  0  0  0
  -24.8635  -28.9297   20.1096 C   0  0  0  0  0  0
  -22.7434  -29.4632   22.4907 C   0  0  0  0  0  0
  -18.0272  -28.1333   22.8473 C   0  0  0  0  0  0
  -24.1477  -36.7323   23.2643 C   0  0  0  0  0  0
  -25.9537  -30.7918   21.3644 C   0  0  0  0  0  0
  -26.0293  -29.4160   20.7138 C   0  0  0  0  0  0
  -27.2093  -28.6215   20.7094 C   0  0  0  0  0  0
  -26.0394  -26.8748   19.5005 C   0  0  0  0  0  0
  -24.8706  -27.6638   19.4990 C   0  0  0  0  0  0
  -23.6309  -29.8123   20.1562 C   0  0  0  0  0  0
  -25.4099  -36.3091   24.0327 C   0  0  1  0  0  0
  -20.5864  -28.3667   23.1266 C   0  0  2  0  0  0
  -20.6760  -26.9388   22.5404 C   0  0  0  0  0  0
  -19.5753  -26.6360   21.5180 C   0  0  0  0  0  0
  -18.1915  -26.7882   22.1590 C   0  0  0  0  0  0
  -19.1510  -28.8813   23.2873 C   0  0  0  0  0  0
  -18.9474  -30.1410   23.8920 C   0  0  0  0  0  0
  -17.6476  -30.6565   24.0546 C   0  0  0  0  0  0
  -25.9050  -34.9448   23.5105 C   0  0  0  0  0  0
  -16.5361  -29.9065   23.6329 C   0  0  0  0  0  0
  -16.7252  -28.6457   23.0368 C   0  0  0  0  0  0
  -26.4497  -31.6578   25.0721 C   0  0  0  0  0  0
  -25.3720  -31.3673   26.1452 C   0  0  0  0  0  0
  -27.0346  -30.3003   24.6158 C   0  0  0  0  0  0
  -27.6043  -32.4325   25.7488 C   0  0  0  0  0  0
  -27.5574  -37.1809   24.8455 C   0  0  0  0  0  0
  -21.4139  -29.3052   22.3676 N   0  0  0  0  0  0
  -26.4276  -37.3788   23.9423 N   0  0  0  0  0  0
  -24.6831  -31.0621   22.0915 N   0  0  0  0  0  0
  -23.4172  -28.8187   23.2990 O   0  0  0  0  0  0
  -28.3722  -26.5173   20.2029 O   0  0  0  0  0  0
  -26.5630  -34.8917   22.4687 O   0  0  0  0  0  0
  -23.5420  -32.1379   23.7347 O   0  0  0  0  0  0
  -26.8245  -20.1907   16.6751 C   0  0  0  0  0  0
  -26.7811  -19.8131   18.1596 C   0  0  0  0  0  0
  -27.9437  -19.1567   16.5302 C   0  0  0  0  0  0
  -29.7001  -15.9377   18.6370 C   0  0  0  0  0  0
  -29.9679  -17.1433   20.7824 C   0  0  0  0  0  0
  -29.7207  -17.3764   18.1108 C   0  0  0  0  0  0
  -28.2649  -19.3920   18.0213 C   0  0  0  0  0  0
  -29.0616  -18.3813   20.2479 C   0  0  1  0  0  0
  -29.6294  -19.8576   20.5589 C   0  0  0  0  0  0
  -28.6554  -21.1148   20.8033 C   0  0  0  0  0  0
  -28.9549  -22.5010   20.0613 C   0  0  0  0  0  0
  -28.2306  -23.8501   20.5360 C   0  0  0  0  0  0
  -28.4802  -25.1534   19.6460 C   0  0  0  0  0  0
  -29.8397  -15.7879   20.1058 N   0  0  0  0  0  0
  -28.6923  -18.1839   18.8036 N   0  3  2  0  0  0
  -31.4570  -12.5380   19.1381 H   0  0  0  0  0  0
  -30.3789  -11.4283   19.9455 H   0  0  0  0  0  0
  -29.7450  -11.6269   17.5390 H   0  0  0  0  0  0
  -29.6236  -13.3501   17.6557 H   0  0  0  0  0  0
  -27.8538  -11.2527   18.9195 H   0  0  0  0  0  0
  -27.3472  -12.4925   17.8066 H   0  0  0  0  0  0
  -27.5927  -14.2167   19.4813 H   0  0  0  0  0  0
  -28.6995  -12.1654   21.4528 H   0  0  0  0  0  0
  -28.4296  -13.8685   21.7608 H   0  0  0  0  0  0
  -25.2729   -9.5650   22.4793 H   0  0  0  0  0  0
  -23.9994   -7.4579   22.7460 H   0  0  0  0  0  0
  -21.0832   -8.8733   19.8948 H   0  0  0  0  0  0
  -22.3678  -10.9639   19.6178 H   0  0  0  0  0  0
  -21.1988   -7.6141   23.9732 H   0  0  0  0  0  0
  -21.1495   -6.0524   25.9085 H   0  0  0  0  0  0
  -22.0592   -2.7616   23.2860 H   0  0  0  0  0  0
  -22.3993  -11.9880   22.4856 H   0  0  0  0  0  0
  -21.0974  -13.1187   22.2590 H   0  0  0  0  0  0
  -24.6706  -15.8457   20.5681 H   0  0  0  0  0  0
  -26.3064  -15.6187   20.1983 H   0  0  0  0  0  0
  -26.7164  -32.5461   23.1084 H   0  0  0  0  0  0
  -25.0029  -33.9695   25.0399 H   0  0  0  0  0  0
  -22.7123  -31.3069   21.3917 H   0  0  0  0  0  0
  -23.3727  -35.9659   23.3270 H   0  0  0  0  0  0
  -24.3577  -36.8999   22.2071 H   0  0  0  0  0  0
  -23.7240  -37.6514   23.6695 H   0  0  0  0  0  0
  -26.0752  -31.5465   20.5862 H   0  0  0  0  0  0
  -26.8365  -30.8507   21.9877 H   0  0  0  0  0  0
  -28.1060  -28.9911   21.1872 H   0  0  0  0  0  0
  -25.9799  -25.9031   19.0349 H   0  0  0  0  0  0
  -23.9735  -27.2806   19.0346 H   0  0  0  0  0  0
  -23.7460  -30.5834   19.3950 H   0  0  0  0  0  0
  -22.7506  -29.2406   19.8587 H   0  0  0  0  0  0
  -25.1252  -36.1941   25.0811 H   0  0  0  0  0  0
  -20.9972  -28.3252   24.1377 H   0  0  0  0  0  0
  -20.5618  -26.2292   23.3615 H   0  0  0  0  0  0
  -21.6651  -26.7399   22.1241 H   0  0  0  0  0  0
  -19.6952  -25.6260   21.1236 H   0  0  0  0  0  0
  -19.6706  -27.3164   20.6699 H   0  0  0  0  0  0
  -17.4204  -26.6646   21.3962 H   0  0  0  0  0  0
  -18.0319  -25.9947   22.8924 H   0  0  0  0  0  0
  -19.7945  -30.7172   24.2363 H   0  0  0  0  0  0
  -17.5029  -31.6262   24.5106 H   0  0  0  0  0  0
  -15.5367  -30.2991   23.7609 H   0  0  0  0  0  0
  -15.8635  -28.0774   22.7140 H   0  0  0  0  0  0
  -24.5973  -30.6925   25.7812 H   0  0  0  0  0  0
  -24.8831  -32.2798   26.4844 H   0  0  0  0  0  0
  -25.8083  -30.8933   27.0258 H   0  0  0  0  0  0
  -26.2915  -29.6736   24.1231 H   0  0  0  0  0  0
  -27.4095  -29.7295   25.4667 H   0  0  0  0  0  0
  -27.8726  -30.4296   23.9312 H   0  0  0  0  0  0
  -27.2658  -33.3654   26.1998 H   0  0  0  0  0  0
  -28.3873  -32.6850   25.0325 H   0  0  0  0  0  0
  -28.0647  -31.8484   26.5471 H   0  0  0  0  0  0
  -28.2560  -38.0135   24.7544 H   0  0  0  0  0  0
  -28.1112  -36.2686   24.6205 H   0  0  0  0  0  0
  -27.2323  -37.1359   25.8861 H   0  0  0  0  0  0
  -20.9315  -29.8834   21.6927 H   0  0  0  0  0  0
  -26.0161  -38.2860   24.1431 H   0  0  0  0  0  0
  -27.1660  -21.2146   16.5008 H   0  0  0  0  0  0
  -25.9189  -19.9656   16.1099 H   0  0  0  0  0  0
  -26.0907  -18.9909   18.3518 H   0  0  0  0  0  0
  -26.5695  -20.6658   18.8011 H   0  0  0  0  0  0
  -28.7438  -19.4429   15.8449 H   0  0  0  0  0  0
  -27.5509  -18.1645   16.3002 H   0  0  0  0  0  0
  -30.4834  -15.3993   18.0968 H   0  0  0  0  0  0
  -28.7679  -15.4802   18.3149 H   0  0  0  0  0  0
  -29.7899  -17.0124   21.8499 H   0  0  0  0  0  0
  -31.0206  -17.4296   20.7049 H   0  0  0  0  0  0
  -29.5645  -17.3200   17.0354 H   0  0  0  0  0  0
  -30.7015  -17.8331   18.2462 H   0  0  0  0  0  0
  -28.9596  -20.2292   18.0925 H   0  0  0  0  0  0
  -28.1179  -18.3076   20.7879 H   0  0  0  0  0  0
  -30.3720  -20.1136   19.8034 H   0  0  0  0  0  0
  -30.2324  -19.7677   21.4650 H   0  0  0  0  0  0
  -28.6638  -21.3152   21.8764 H   0  0  0  0  0  0
  -27.6264  -20.8193   20.6215 H   0  0  0  0  0  0
  -28.7476  -22.3725   18.9973 H   0  0  0  0  0  0
  -30.0308  -22.6762   20.1194 H   0  0  0  0  0  0
  -28.5415  -24.0629   21.5603 H   0  0  0  0  0  0
  -27.1552  -23.6795   20.5908 H   0  0  0  0  0  0
  -27.9258  -25.0708   18.7112 H   0  0  0  0  0  0
  -29.5224  -25.0986   19.3330 H   0  0  0  0  0  0
  -27.8833  -17.5812   18.8236 H   0  0  0  0  0  0
  1 25  1  0  0  0
  1 30  2  0  0  0
  1 84  1  0  0  0
  2  3  1  0  0  0
  2 25  1  0  0  0
  2 86  1  0  0  0
  2 87  1  0  0  0
  3  4  1  0  0  0
  3 88  1  0  0  0
  3 89  1  0  0  0
  4  5  1  0  0  0
  4 90  1  0  0  0
  4 91  1  0  0  0
  5  6  1  0  0  0
  5 26  1  0  0  0
  5 92  1  0  0  0
  6 25  1  0  0  0
  6 93  1  0  0  0
  6 94  1  0  0  0
  7  8  2  0  0  0
  7 26  1  0  0  0
  7 29  1  0  0  0
  8  9  1  0  0  0
  8 22  1  0  0  0
  9 10  1  0  0  0
  9 27  2  0  0  0
 10 11  2  0  0  0
 10 15  1  0  0  0
 11 12  1  0  0  0
 11 95  1  0  0  0
 12 13  2  0  0  0
 12 96  1  0  0  0
 13 14  1  0  0  0
 13 31  1  0  0  0
 14 15  2  0  0  0
 14 97  1  0  0  0
 15 98  1  0  0  0
 16 17  2  0  0  0
 16 21  1  0  0  0
 16 31  1  0  0  0
 17 18  1  0  0  0
 17 99  1  0  0  0
 18 19  2  0  0  0
 18100  1  0  0  0
 19 20  1  0  0  0
 19 24  1  0  0  0
 20 21  2  0  0  0
 20101  1  0  0  0
 21 23  1  0  0  0
 22 28  1  0  0  0
 22 32  2  0  0  0
 26 27  1  0  0  0
 28102  1  0  0  0
 28103  1  0  0  0
 29104  1  0  0  0
 29105  1  0  0  0
 33 34  1  0  0  0
 33 66  1  0  0  0
 33 70  2  0  0  0
 34 36  1  0  0  0
 34 59  1  0  0  0
 34106  1  0  0  0
 35 44  2  0  0  0
 35 45  1  0  0  0
 35 68  1  0  0  0
 36 56  1  0  0  0
 36107  1  0  0  0
 37 39  1  0  0  0
 37 47  1  0  0  0
 37 66  1  0  0  0
 37108  1  0  0  0
 38 43  2  0  0  0
 38 46  1  0  0  0
 38 47  1  0  0  0
 39 64  1  0  0  0
 39 67  2  0  0  0
 40 52  1  0  0  0
 40 53  2  0  0  0
 40 58  1  0  0  0
 41109  1  0  0  0
 41110  1  0  0  0
 41111  1  0  0  0
 41 48  1  0  0  0
 42 43  1  0  0  0
 42 66  1  0  0  0
 42112  1  0  0  0
 42113  1  0  0  0
 43 44  1  0  0  0
 44114  1  0  0  0
 45 46  2  0  0  0
 45115  1  0  0  0
 46116  1  0  0  0
 47117  1  0  0  0
 47118  1  0  0  0
 48 56  1  0  0  0
 48 65  1  0  0  0
 48119  1  0  0  0
 49 50  1  0  0  0
 49 53  1  0  0  0
 49 64  1  0  0  0
 49120  1  0  0  0
 50 51  1  0  0  0
 50121  1  0  0  0
 50122  1  0  0  0
 51 52  1  0  0  0
 51123  1  0  0  0
 51124  1  0  0  0
 52125  1  0  0  0
 52126  1  0  0  0
 53 54  1  0  0  0
 54 55  2  0  0  0
 54127  1  0  0  0
 55 57  1  0  0  0
 55128  1  0  0  0
 56 69  2  0  0  0
 57 58  2  0  0  0
 57129  1  0  0  0
 58130  1  0  0  0
 59 60  1  0  0  0
 59 61  1  0  0  0
 59 62  1  0  0  0
 60131  1  0  0  0
 60132  1  0  0  0
 60133  1  0  0  0
 61134  1  0  0  0
 61135  1  0  0  0
 61136  1  0  0  0
 62137  1  0  0  0
 62138  1  0  0  0
 62139  1  0  0  0
 63 65  1  0  0  0
 63140  1  0  0  0
 63141  1  0  0  0
 63142  1  0  0  0
 64143  1  0  0  0
 65144  1  0  0  0
 68 83  1  0  0  0
 71 72  1  0  0  0
 71 73  1  0  0  0
 71145  1  0  0  0
 71146  1  0  0  0
 72147  1  0  0  0
 72148  1  0  0  0
 72 77  1  0  0  0
 73 77  1  0  0  0
 73149  1  0  0  0
 73150  1  0  0  0
 74 76  1  0  0  0
 74 84  1  0  0  0
 74151  1  0  0  0
 74152  1  0  0  0
 75 78  1  0  0  0
 75 84  1  0  0  0
 75153  1  0  0  0
 75154  1  0  0  0
 76155  1  0  0  0
 76156  1  0  0  0
 76 85  1  0  0  0
 77 85  1  0  0  0
 77157  1  0  0  0
 78 79  1  0  0  0
 78 85  1  0  0  0
 78158  1  0  0  0
 79 80  1  0  0  0
 79159  1  0  0  0
 79160  1  0  0  0
 80 81  1  0  0  0
 80161  1  0  0  0
 80162  1  0  0  0
 81 82  1  0  0  0
 81163  1  0  0  0
 81164  1  0  0  0
 82 83  1  0  0  0
 82165  1  0  0  0
 82166  1  0  0  0
 83167  1  0  0  0
 83168  1  0  0  0
 85169  1  0  0  0
M  CHG  1  85   1
M  ISO  4   1 100  68 101  83 101  84 100
M  END
> <chiral flag>
0

> <version>
0

> <s_m_source_file>
/data/baiqing/PycharmProjects/Reinvent-master-3.2/result/LINK_invent/BTK/process_docking_weight1_custom_sum_contain_oxygen_bond_distance_aromatic_linkinvent_7_9_3/rearranged_h_0125.sdf

> <i_m_source_file_index>
92

> <r_mmod_Potential_Energy-OPLS-2005>
384.410980224609

> <r_mmod_Stretch_Energy-OPLS-2005>
103.334625244141

> <r_mmod_Bend_Energy-OPLS-2005>
197.12956237793

> <r_mmod_Torsional_Energy-OPLS-2005>
454.293609619141

> <r_mmod_Improper_Torsional_Energy-OPLS-2005>
18.7673473358154

> <r_mmod_Van_der_Waal_Energy-OPLS-2005>
137.913269042969

> <r_mmod_Electrostatic_Energy-OPLS-2005>
-162.434677124023

> <r_mmod_Solvation_Energy-OPLS-2005>
-430.766174316406

> <b_mmod_Minimization_Converged-OPLS-2005>
0

> <r_mmod_RMS_Derivative-OPLS-2005>
4.19760847091675

$$$$
93
                    3D
 Structure written by MMmdl.
181190  0  0  1  0            999 V2000
  -30.4499  -15.0912   20.2772 C   0  0  0  0  0  0
  -30.4628  -12.6731   19.4732 C   0  0  0  0  0  0
  -29.5446  -12.4909   18.2463 C   0  0  0  0  0  0
  -28.0818  -12.2711   18.6736 C   0  0  0  0  0  0
  -27.6198  -13.2484   19.7873 C   0  0  2  0  0  0
  -28.6548  -13.3614   20.9190 C   0  0  0  0  0  0
  -25.2424  -13.8090   20.5557 C   0  0  0  0  0  0
  -24.1859  -13.0397   20.9184 C   0  0  0  0  0  0
  -24.6399  -11.6844   20.8663 C   0  0  0  0  0  0
  -23.9068  -10.4262   21.0353 C   0  0  0  0  0  0
  -24.3562   -9.4195   21.9198 C   0  0  0  0  0  0
  -23.6249   -8.2218   22.0774 C   0  0  0  0  0  0
  -22.4236   -8.0244   21.3549 C   0  0  0  0  0  0
  -21.9875   -9.0211   20.4639 C   0  0  0  0  0  0
  -22.7181  -10.2105   20.3051 C   0  0  0  0  0  0
  -21.6834   -6.0720   22.5309 C   0  0  0  0  0  0
  -21.3998   -6.5637   23.8222 C   0  0  0  0  0  0
  -21.3656   -5.6787   24.9189 C   0  0  0  0  0  0
  -21.6036   -4.3051   24.7245 C   0  0  0  0  0  0
  -21.8805   -3.8143   23.4367 C   0  0  0  0  0  0
  -21.9194   -4.6972   22.3416 C   0  0  0  0  0  0
  -22.7801  -13.5134   21.1809 C   0  0  0  0  0  0
  -22.1663   -4.2129   21.1004 F   0  0  0  0  0  0
  -21.5622   -3.4549   25.7768 F   0  0  0  0  0  0
  -29.9060  -13.7971   20.2815 N   0  0  0  0  0  0
  -26.2851  -12.9354   20.2876 N   0  0  0  0  0  0
  -25.9300  -11.6500   20.5525 N   0  0  0  0  0  0
  -22.0380  -12.8258   22.0356 N   0  0  0  0  0  0
  -25.4017  -15.1891   20.3932 N   0  0  0  0  0  0
  -31.6766  -15.1451   20.1429 O   0  0  0  0  0  0
  -21.6623   -6.8871   21.4236 O   0  0  0  0  0  0
  -22.3492  -14.5463   20.6632 O   0  0  0  0  0  0
  -24.6326  -31.8350   23.1523 C   0  0  0  0  0  0
  -25.9228  -32.4555   23.7887 C   0  0  1  0  0  0
  -27.2398  -27.1269   20.1301 C   0  0  0  0  0  0
  -25.6015  -33.8271   24.2145 N   0  0  0  0  0  0
  -23.4175  -30.4198   21.5363 C   0  0  2  0  0  0
  -24.8769  -28.8411   20.0945 C   0  0  0  0  0  0
  -22.7447  -29.4447   22.5205 C   0  0  0  0  0  0
  -18.0180  -28.1326   22.8557 C   0  0  0  0  0  0
  -24.1290  -36.6860   23.2579 C   0  0  0  0  0  0
  -25.9614  -30.7013   21.3302 C   0  0  0  0  0  0
  -26.0522  -29.3131   20.6835 C   0  0  0  0  0  0
  -27.2131  -28.4610   20.7024 C   0  0  0  0  0  0
  -26.0594  -26.7668   19.4499 C   0  0  0  0  0  0
  -24.9006  -27.5862   19.4541 C   0  0  0  0  0  0
  -23.6004  -29.6822   20.1758 C   0  0  0  0  0  0
  -25.4017  -36.2935   24.0264 C   0  0  1  0  0  0
  -20.5840  -28.3669   23.1521 C   0  0  2  0  0  0
  -20.6871  -26.9506   22.5474 C   0  0  0  0  0  0
  -19.5909  -26.6441   21.5238 C   0  0  0  0  0  0
  -18.1959  -26.7926   22.1550 C   0  0  0  0  0  0
  -19.1459  -28.8814   23.2969 C   0  0  0  0  0  0
  -18.9396  -30.1421   23.8934 C   0  0  0  0  0  0
  -17.6394  -30.6612   24.0564 C   0  0  0  0  0  0
  -25.9168  -34.9255   23.5099 C   0  0  0  0  0  0
  -16.5271  -29.9018   23.6376 C   0  0  0  0  0  0
  -16.7130  -28.6380   23.0420 C   0  0  0  0  0  0
  -26.4452  -31.6312   25.0320 C   0  0  0  0  0  0
  -25.3674  -31.3216   26.1079 C   0  0  0  0  0  0
  -27.0296  -30.2877   24.5481 C   0  0  0  0  0  0
  -27.6045  -32.3768   25.7426 C   0  0  0  0  0  0
  -27.5354  -37.2224   24.8113 C   0  0  0  0  0  0
  -21.4208  -29.2916   22.3939 N   0  0  0  0  0  0
  -26.3932  -37.3893   23.9157 N   0  0  0  0  0  0
  -24.6966  -30.9935   22.0750 N   0  0  0  0  0  0
  -23.4073  -28.8066   23.3414 O   0  0  0  0  0  0
  -28.2888  -26.1811   20.4261 O   0  0  0  0  0  0
  -26.5740  -34.8815   22.4690 O   0  0  0  0  0  0
  -23.5529  -32.1266   23.6878 O   0  0  0  0  0  0
  -28.6085  -23.2680   17.9698 C   0  0  0  0  0  0
  -28.6792  -22.0207   20.0204 C   0  0  0  0  0  0
  -28.5791  -23.3830   19.3664 C   0  0  0  0  0  0
  -28.4128  -22.0464   17.3002 C   0  0  0  0  0  0
  -28.4952  -20.6972   19.3358 C   0  0  0  0  0  0
  -27.9074  -20.9490   18.0364 C   0  0  0  0  0  0
  -23.8444  -28.2791   15.0867 C   0  0  0  0  0  0
  -25.2848  -27.8329   15.3426 C   0  0  0  0  0  0
  -22.9397  -27.6034   16.1176 C   0  0  0  0  0  0
  -25.4506  -26.2826   15.3459 C   0  0  0  0  0  0
  -23.0161  -26.0721   15.9126 C   0  0  0  0  0  0
  -24.4196  -25.5183   16.2432 C   0  0  0  0  0  0
  -28.5452  -21.9915   15.7809 C   0  0  0  0  0  0
  -28.5704  -19.0949   19.9247 C   0  0  0  0  0  0
  -26.3458  -20.9772   18.0636 C   0  0  0  0  0  0
  -28.9777  -24.9330   19.7937 C   0  0  0  0  0  0
  -24.4216  -23.9505   16.2219 C   0  0  0  0  0  0
  -29.8007  -17.8513   19.8768 C   0  0  0  0  0  0
  -25.5824  -23.2799   17.0085 C   0  0  0  0  0  0
  -29.6031  -16.2684   20.1794 N   0  0  0  0  0  0
  -25.5713  -21.7684   17.0166 N   0  3  0  0  0  0
  -31.4722  -12.8890   19.1165 H   0  0  0  0  0  0
  -30.5369  -11.7642   20.0715 H   0  0  0  0  0  0
  -29.8869  -11.6576   17.6332 H   0  0  0  0  0  0
  -29.6261  -13.3778   17.6163 H   0  0  0  0  0  0
  -27.9876  -11.2427   19.0126 H   0  0  0  0  0  0
  -27.4411  -12.3467   17.7955 H   0  0  0  0  0  0
  -27.5468  -14.2247   19.2954 H   0  0  0  0  0  0
  -28.7661  -12.4090   21.4357 H   0  0  0  0  0  0
  -28.3320  -14.1120   21.6403 H   0  0  0  0  0  0
  -25.2691   -9.5729   22.4831 H   0  0  0  0  0  0
  -23.9946   -7.4642   22.7560 H   0  0  0  0  0  0
  -21.0772   -8.8706   19.8980 H   0  0  0  0  0  0
  -22.3571  -10.9640   19.6203 H   0  0  0  0  0  0
  -21.1964   -7.6138   23.9713 H   0  0  0  0  0  0
  -21.1490   -6.0528   25.9079 H   0  0  0  0  0  0
  -22.0586   -2.7605   23.2875 H   0  0  0  0  0  0
  -22.3812  -11.9938   22.4965 H   0  0  0  0  0  0
  -21.0960  -13.1417   22.2412 H   0  0  0  0  0  0
  -24.6047  -15.8135   20.4858 H   0  0  0  0  0  0
  -26.1918  -15.6316   19.9539 H   0  0  0  0  0  0
  -26.7347  -32.5216   23.0555 H   0  0  0  0  0  0
  -24.9968  -33.9514   25.0187 H   0  0  0  0  0  0
  -22.7212  -31.2422   21.3541 H   0  0  0  0  0  0
  -23.3559  -35.9241   23.3745 H   0  0  0  0  0  0
  -24.3157  -36.7798   22.1895 H   0  0  0  0  0  0
  -23.7068  -37.6332   23.5960 H   0  0  0  0  0  0
  -26.0334  -31.4251   20.5134 H   0  0  0  0  0  0
  -26.8663  -30.8330   21.9081 H   0  0  0  0  0  0
  -28.0761  -28.8055   21.2605 H   0  0  0  0  0  0
  -26.0115  -25.7878   18.9925 H   0  0  0  0  0  0
  -23.9965  -27.2105   18.9911 H   0  0  0  0  0  0
  -23.5844  -30.3746   19.3380 H   0  0  0  0  0  0
  -22.7363  -29.0268   19.9834 H   0  0  0  0  0  0
  -25.1136  -36.1833   25.0768 H   0  0  0  0  0  0
  -20.9922  -28.3156   24.1679 H   0  0  0  0  0  0
  -20.6127  -26.2181   23.3486 H   0  0  0  0  0  0
  -21.6699  -26.7797   22.1138 H   0  0  0  0  0  0
  -19.7189  -25.6372   21.1122 H   0  0  0  0  0  0
  -19.6897  -27.3393   20.6863 H   0  0  0  0  0  0
  -17.4416  -26.6712   21.3743 H   0  0  0  0  0  0
  -18.0299  -25.9983   22.8875 H   0  0  0  0  0  0
  -19.7800  -30.7269   24.2404 H   0  0  0  0  0  0
  -17.4831  -31.6384   24.5069 H   0  0  0  0  0  0
  -15.5271  -30.2942   23.7715 H   0  0  0  0  0  0
  -15.8454  -28.0666   22.7259 H   0  0  0  0  0  0
  -24.6020  -30.6413   25.7309 H   0  0  0  0  0  0
  -24.8613  -32.2246   26.4567 H   0  0  0  0  0  0
  -25.8070  -30.8373   26.9895 H   0  0  0  0  0  0
  -26.3081  -29.7042   23.9806 H   0  0  0  0  0  0
  -27.3635  -29.6490   25.3645 H   0  0  0  0  0  0
  -27.8962  -30.4467   23.9039 H   0  0  0  0  0  0
  -27.2934  -33.3207   26.1906 H   0  0  0  0  0  0
  -28.4233  -32.5969   25.0555 H   0  0  0  0  0  0
  -28.0241  -31.7682   26.5493 H   0  0  0  0  0  0
  -28.2011  -38.0783   24.7070 H   0  0  0  0  0  0
  -28.1258  -36.3350   24.5720 H   0  0  0  0  0  0
  -27.2320  -37.1828   25.8620 H   0  0  0  0  0  0
  -20.9572  -29.8357   21.6850 H   0  0  0  0  0  0
  -25.9605  -38.2925   24.1114 H   0  0  0  0  0  0
  -28.7880  -24.1578   17.3877 H   0  0  0  0  0  0
  -28.9400  -21.9830   21.0766 H   0  0  0  0  0  0
  -23.5452  -28.0231   14.0739 H   0  0  0  0  0  0
  -23.7500  -29.3649   15.1256 H   0  0  0  0  0  0
  -25.5594  -28.2783   16.2966 H   0  0  0  0  0  0
  -25.9517  -28.2993   14.6149 H   0  0  0  0  0  0
  -21.9173  -27.9676   16.0483 H   0  0  0  0  0  0
  -23.2983  -27.8786   17.1092 H   0  0  0  0  0  0
  -26.4661  -26.0555   15.6605 H   0  0  0  0  0  0
  -25.3747  -25.9654   14.3041 H   0  0  0  0  0  0
  -22.7484  -25.8407   14.8735 H   0  0  0  0  0  0
  -22.2518  -25.5722   16.5022 H   0  0  0  0  0  0
  -24.6608  -25.7837   17.2637 H   0  0  0  0  0  0
  -29.4314  -21.3832   15.5317 H   0  0  0  0  0  0
  -28.6727  -22.9780   15.3223 H   0  0  0  0  0  0
  -27.6830  -21.5140   15.3025 H   0  0  0  0  0  0
  -27.7322  -18.6284   19.3985 H   0  0  0  0  0  0
  -28.2051  -19.1730   20.9604 H   0  0  0  0  0  0
  -26.0211  -21.3554   19.0388 H   0  0  0  0  0  0
  -26.0263  -19.9373   18.0490 H   0  0  0  0  0  0
  -29.3876  -25.3957   18.9015 H   0  0  0  0  0  0
  -29.8389  -24.7519   20.4398 H   0  0  0  0  0  0
  -24.4152  -23.5991   15.1953 H   0  0  0  0  0  0
  -23.4825  -23.5869   16.6435 H   0  0  0  0  0  0
  -30.5845  -18.1629   20.5629 H   0  0  0  0  0  0
  -30.2843  -17.9245   18.9022 H   0  0  0  0  0  0
  -25.5637  -23.6741   18.0238 H   0  0  0  0  0  0
  -26.4876  -23.6727   16.5538 H   0  0  0  0  0  0
  -28.6291  -16.0306   20.2738 H   0  0  0  0  0  0
  -24.6027  -21.5339   17.1820 H   0  0  0  0  0  0
  -25.7726  -21.4202   16.0858 H   0  0  0  0  0  0
  1 25  1  0  0  0
  1 30  2  0  0  0
  1 90  1  0  0  0
  2  3  1  0  0  0
  2 25  1  0  0  0
  2 92  1  0  0  0
  2 93  1  0  0  0
  3  4  1  0  0  0
  3 94  1  0  0  0
  3 95  1  0  0  0
  4  5  1  0  0  0
  4 96  1  0  0  0
  4 97  1  0  0  0
  5  6  1  0  0  0
  5 26  1  0  0  0
  5 98  1  0  0  0
  6 25  1  0  0  0
  6 99  1  0  0  0
  6100  1  0  0  0
  7  8  2  0  0  0
  7 26  1  0  0  0
  7 29  1  0  0  0
  8  9  1  0  0  0
  8 22  1  0  0  0
  9 10  1  0  0  0
  9 27  2  0  0  0
 10 11  2  0  0  0
 10 15  1  0  0  0
 11 12  1  0  0  0
 11101  1  0  0  0
 12 13  2  0  0  0
 12102  1  0  0  0
 13 14  1  0  0  0
 13 31  1  0  0  0
 14 15  2  0  0  0
 14103  1  0  0  0
 15104  1  0  0  0
 16 17  2  0  0  0
 16 21  1  0  0  0
 16 31  1  0  0  0
 17 18  1  0  0  0
 17105  1  0  0  0
 18 19  2  0  0  0
 18106  1  0  0  0
 19 20  1  0  0  0
 19 24  1  0  0  0
 20 21  2  0  0  0
 20107  1  0  0  0
 21 23  1  0  0  0
 22 28  1  0  0  0
 22 32  2  0  0  0
 26 27  1  0  0  0
 28108  1  0  0  0
 28109  1  0  0  0
 29110  1  0  0  0
 29111  1  0  0  0
 33 34  1  0  0  0
 33 66  1  0  0  0
 33 70  2  0  0  0
 34 36  1  0  0  0
 34 59  1  0  0  0
 34112  1  0  0  0
 35 44  2  0  0  0
 35 45  1  0  0  0
 35 68  1  0  0  0
 36 56  1  0  0  0
 36113  1  0  0  0
 37 39  1  0  0  0
 37 47  1  0  0  0
 37 66  1  0  0  0
 37114  1  0  0  0
 38 43  2  0  0  0
 38 46  1  0  0  0
 38 47  1  0  0  0
 39 64  1  0  0  0
 39 67  2  0  0  0
 40 52  1  0  0  0
 40 53  2  0  0  0
 40 58  1  0  0  0
 41115  1  0  0  0
 41116  1  0  0  0
 41117  1  0  0  0
 41 48  1  0  0  0
 42 43  1  0  0  0
 42 66  1  0  0  0
 42118  1  0  0  0
 42119  1  0  0  0
 43 44  1  0  0  0
 44120  1  0  0  0
 45 46  2  0  0  0
 45121  1  0  0  0
 46122  1  0  0  0
 47123  1  0  0  0
 47124  1  0  0  0
 48 56  1  0  0  0
 48 65  1  0  0  0
 48125  1  0  0  0
 49 50  1  0  0  0
 49 53  1  0  0  0
 49 64  1  0  0  0
 49126  1  0  0  0
 50 51  1  0  0  0
 50127  1  0  0  0
 50128  1  0  0  0
 51 52  1  0  0  0
 51129  1  0  0  0
 51130  1  0  0  0
 52131  1  0  0  0
 52132  1  0  0  0
 53 54  1  0  0  0
 54 55  2  0  0  0
 54133  1  0  0  0
 55 57  1  0  0  0
 55134  1  0  0  0
 56 69  2  0  0  0
 57 58  2  0  0  0
 57135  1  0  0  0
 58136  1  0  0  0
 59 60  1  0  0  0
 59 61  1  0  0  0
 59 62  1  0  0  0
 60137  1  0  0  0
 60138  1  0  0  0
 60139  1  0  0  0
 61140  1  0  0  0
 61141  1  0  0  0
 61142  1  0  0  0
 62143  1  0  0  0
 62144  1  0  0  0
 62145  1  0  0  0
 63 65  1  0  0  0
 63146  1  0  0  0
 63147  1  0  0  0
 63148  1  0  0  0
 64149  1  0  0  0
 65150  1  0  0  0
 68 86  1  0  0  0
 71 73  2  0  0  0
 71 74  1  0  0  0
 71151  1  0  0  0
 72 73  1  0  0  0
 72 75  2  0  0  0
 72152  1  0  0  0
 73 86  1  0  0  0
 74 76  2  0  0  0
 74 83  1  0  0  0
 75 76  1  0  0  0
 75 84  1  0  0  0
 76 85  1  0  0  0
 77 78  1  0  0  0
 77 79  1  0  0  0
 77153  1  0  0  0
 77154  1  0  0  0
 78 80  1  0  0  0
 78155  1  0  0  0
 78156  1  0  0  0
 79 81  1  0  0  0
 79157  1  0  0  0
 79158  1  0  0  0
 80 82  1  0  0  0
 80159  1  0  0  0
 80160  1  0  0  0
 81 82  1  0  0  0
 81161  1  0  0  0
 81162  1  0  0  0
 82 87  1  0  0  0
 82163  1  0  0  0
 83164  1  0  0  0
 83165  1  0  0  0
 83166  1  0  0  0
 84 88  1  0  0  0
 84167  1  0  0  0
 84168  1  0  0  0
 85 91  1  0  0  0
 85169  1  0  0  0
 85170  1  0  0  0
 86171  1  0  0  0
 86172  1  0  0  0
 87 89  1  0  0  0
 87173  1  0  0  0
 87174  1  0  0  0
 88 90  1  0  0  0
 88175  1  0  0  0
 88176  1  0  0  0
 89 91  1  0  0  0
 89177  1  0  0  0
 89178  1  0  0  0
 90179  1  0  0  0
 91180  1  0  0  0
 91181  1  0  0  0
M  CHG  1  91   1
M  ISO  4   1 100  68 101  86 101  90 100
M  END
> <chiral flag>
0

> <version>
0

> <s_m_source_file>
/data/baiqing/PycharmProjects/Reinvent-master-3.2/result/LINK_invent/BTK/process_docking_weight1_custom_sum_contain_oxygen_bond_distance_aromatic_linkinvent_7_9_3/rearranged_h_0125.sdf

> <i_m_source_file_index>
93

> <r_mmod_Potential_Energy-OPLS-2005>
1006.29376220703

> <r_mmod_Stretch_Energy-OPLS-2005>
373.816192626953

> <r_mmod_Bend_Energy-OPLS-2005>
494.492004394531

> <r_mmod_Torsional_Energy-OPLS-2005>
440.542388916016

> <r_mmod_Improper_Torsional_Energy-OPLS-2005>
35.1860847473145

> <r_mmod_Van_der_Waal_Energy-OPLS-2005>
129.360610961914

> <r_mmod_Electrostatic_Energy-OPLS-2005>
-281.676788330078

> <r_mmod_Solvation_Energy-OPLS-2005>
-470.670043945312

> <b_mmod_Minimization_Converged-OPLS-2005>
0

> <r_mmod_RMS_Derivative-OPLS-2005>
20.4120025634766

$$$$
94
                    3D
 Structure written by MMmdl.
189199  0  0  1  0            999 V2000
  -30.5972  -14.7083   20.4592 C   0  0  0  0  0  0
  -30.4294  -12.4283   19.4617 C   0  0  0  0  0  0
  -29.5084  -12.5238   18.2274 C   0  0  0  0  0  0
  -28.0260  -12.3620   18.6263 C   0  0  0  0  0  0
  -27.6381  -13.2296   19.8541 C   0  0  2  0  0  0
  -28.6840  -13.1274   20.9838 C   0  0  0  0  0  0
  -25.2494  -13.8075   20.5755 C   0  0  0  0  0  0
  -24.1786  -13.0378   20.9292 C   0  0  0  0  0  0
  -24.6350  -11.6876   20.8832 C   0  0  0  0  0  0
  -23.9034  -10.4259   21.0458 C   0  0  0  0  0  0
  -24.3601   -9.4145   21.9164 C   0  0  0  0  0  0
  -23.6325   -8.2166   22.0718 C   0  0  0  0  0  0
  -22.4300   -8.0239   21.3513 C   0  0  0  0  0  0
  -21.9910   -9.0227   20.4652 C   0  0  0  0  0  0
  -22.7186  -10.2150   20.3118 C   0  0  0  0  0  0
  -21.6844   -6.0752   22.5265 C   0  0  0  0  0  0
  -21.4002   -6.5659   23.8199 C   0  0  0  0  0  0
  -21.3640   -5.6823   24.9174 C   0  0  0  0  0  0
  -21.6034   -4.3085   24.7216 C   0  0  0  0  0  0
  -21.8815   -3.8175   23.4331 C   0  0  0  0  0  0
  -21.9165   -4.6993   22.3403 C   0  0  0  0  0  0
  -22.7795  -13.5216   21.1935 C   0  0  0  0  0  0
  -22.1636   -4.2160   21.0983 F   0  0  0  0  0  0
  -21.5624   -3.4587   25.7729 F   0  0  0  0  0  0
  -29.9914  -13.4761   20.4117 N   0  0  0  0  0  0
  -26.2918  -12.9329   20.3313 N   0  0  0  0  0  0
  -25.9283  -11.6478   20.5799 N   0  0  0  0  0  0
  -22.0518  -12.8402   22.0685 N   0  0  0  0  0  0
  -25.4267  -15.1739   20.4090 N   0  0  0  0  0  0
  -31.7642  -14.8439   20.0882 O   0  0  0  0  0  0
  -21.6628   -6.8884   21.4225 O   0  0  0  0  0  0
  -22.3425  -14.5401   20.6667 O   0  0  0  0  0  0
  -24.6274  -31.8549   23.1999 C   0  0  0  0  0  0
  -25.9141  -32.4740   23.8336 C   0  0  1  0  0  0
  -27.2280  -27.2707   20.1337 C   0  0  0  0  0  0
  -25.5953  -33.8558   24.2265 N   0  0  0  0  0  0
  -23.4193  -30.4766   21.5394 C   0  0  2  0  0  0
  -24.8717  -28.9221   20.0992 C   0  0  0  0  0  0
  -22.7489  -29.4566   22.4901 C   0  0  0  0  0  0
  -18.0283  -28.1325   22.8530 C   0  0  0  0  0  0
  -24.1465  -36.7241   23.2627 C   0  0  0  0  0  0
  -25.9617  -30.7678   21.3796 C   0  0  0  0  0  0
  -26.0354  -29.3916   20.7192 C   0  0  0  0  0  0
  -27.2086  -28.5757   20.7315 C   0  0  0  0  0  0
  -26.0419  -26.8595   19.4850 C   0  0  0  0  0  0
  -24.8794  -27.6637   19.4693 C   0  0  0  0  0  0
  -23.6384  -29.8080   20.1539 C   0  0  0  0  0  0
  -25.4102  -36.3062   24.0318 C   0  0  1  0  0  0
  -20.5886  -28.3641   23.1264 C   0  0  2  0  0  0
  -20.6750  -26.9353   22.5400 C   0  0  0  0  0  0
  -19.5715  -26.6338   21.5221 C   0  0  0  0  0  0
  -18.1900  -26.7869   22.1653 C   0  0  0  0  0  0
  -19.1535  -28.8816   23.2881 C   0  0  0  0  0  0
  -18.9469  -30.1436   23.8869 C   0  0  0  0  0  0
  -17.6454  -30.6546   24.0559 C   0  0  0  0  0  0
  -25.9046  -34.9442   23.5086 C   0  0  0  0  0  0
  -16.5351  -29.9030   23.6330 C   0  0  0  0  0  0
  -16.7254  -28.6435   23.0370 C   0  0  0  0  0  0
  -26.4535  -31.6566   25.0710 C   0  0  0  0  0  0
  -25.3778  -31.3725   26.1449 C   0  0  0  0  0  0
  -27.0387  -30.2975   24.6209 C   0  0  0  0  0  0
  -27.6049  -32.4347   25.7508 C   0  0  0  0  0  0
  -27.5542  -37.1783   24.8454 C   0  0  0  0  0  0
  -21.4190  -29.3006   22.3687 N   0  0  0  0  0  0
  -26.4236  -37.3796   23.9415 N   0  0  0  0  0  0
  -24.6869  -31.0530   22.0961 N   0  0  0  0  0  0
  -23.4225  -28.8103   23.2964 O   0  0  0  0  0  0
  -28.3493  -26.4201   20.2535 O   0  0  0  0  0  0
  -26.5613  -34.8940   22.4657 O   0  0  0  0  0  0
  -23.5450  -32.1377   23.7340 O   0  0  0  0  0  0
  -29.3122  -21.9226   21.4848 C   0  0  0  0  0  0
  -28.7144  -19.7314   20.0048 C   0  0  0  0  0  0
  -23.0749  -17.4937   18.8468 C   0  0  0  0  0  0
  -24.4505  -17.9852   18.3745 C   0  0  0  0  0  0
  -31.4885  -17.6380   21.3323 C   0  0  0  0  0  0
  -28.6513  -22.3724   19.2570 C   0  0  0  0  0  0
  -32.5103  -17.8008   20.1780 C   0  0  0  0  0  0
  -30.7251  -18.5927   18.6581 C   0  0  0  0  0  0
  -23.2402  -19.1406   20.7730 C   0  0  0  0  0  0
  -29.3433  -21.2158   20.1155 C   0  0  1  0  0  0
  -29.5876  -18.3626   19.6992 C   0  0  1  0  0  0
  -22.3282  -18.5725   19.6537 C   0  0  2  0  0  0
  -30.0386  -17.3326   20.8782 C   0  0  1  0  0  0
  -28.2537  -23.6134   20.1688 C   0  0  2  0  0  0
  -25.2936  -18.5777   19.5238 C   0  0  1  0  0  0
  -19.9844  -19.0913   20.5900 C   0  0  0  0  0  0
  -20.9984  -18.0096   20.1961 C   0  0  0  0  0  0
  -28.5268  -25.0993   19.5662 C   0  0  0  0  0  0
  -26.6395  -19.0890   18.9843 C   0  0  0  0  0  0
  -27.4294  -19.7625   20.0097 N   0  0  0  0  0  0
  -28.9076  -23.2140   21.4164 N   0  0  0  0  0  0
  -29.7996  -15.8123   20.7271 N   0  0  0  0  0  0
  -31.8841  -17.6869   18.8422 N   0  3  0  0  0  0
  -24.5288  -19.6310   20.2259 N   0  3  0  0  0  0
  -29.7056  -21.3892   22.5216 O   0  0  0  0  0  0
  -31.4717  -12.5501   19.1617 H   0  0  0  0  0  0
  -30.3625  -11.4406   19.9250 H   0  0  0  0  0  0
  -29.7886  -11.7766   17.4840 H   0  0  0  0  0  0
  -29.6501  -13.4969   17.7539 H   0  0  0  0  0  0
  -27.8475  -11.3080   18.8452 H   0  0  0  0  0  0
  -27.3819  -12.6060   17.7793 H   0  0  0  0  0  0
  -27.6360  -14.2606   19.4988 H   0  0  0  0  0  0
  -28.7004  -12.1152   21.3895 H   0  0  0  0  0  0
  -28.4225  -13.7860   21.8154 H   0  0  0  0  0  0
  -25.2762   -9.5581   22.4716 H   0  0  0  0  0  0
  -24.0053   -7.4511   22.7400 H   0  0  0  0  0  0
  -21.0815   -8.8708   19.8985 H   0  0  0  0  0  0
  -22.3573  -10.9703   19.6291 H   0  0  0  0  0  0
  -21.2026   -7.6171   23.9695 H   0  0  0  0  0  0
  -21.1472   -6.0554   25.9073 H   0  0  0  0  0  0
  -22.0637   -2.7642   23.2821 H   0  0  0  0  0  0
  -22.4181  -12.0187   22.5247 H   0  0  0  0  0  0
  -21.1261  -13.1653   22.3089 H   0  0  0  0  0  0
  -24.6316  -15.8015   20.4279 H   0  0  0  0  0  0
  -26.2489  -15.5576   19.9656 H   0  0  0  0  0  0
  -26.7195  -32.5422   23.1072 H   0  0  0  0  0  0
  -25.0202  -33.9712   25.0484 H   0  0  0  0  0  0
  -22.7096  -31.2952   21.3957 H   0  0  0  0  0  0
  -23.3753  -35.9540   23.3277 H   0  0  0  0  0  0
  -24.3513  -36.8905   22.2029 H   0  0  0  0  0  0
  -23.7218  -37.6427   23.6687 H   0  0  0  0  0  0
  -26.1055  -31.5294   20.6126 H   0  0  0  0  0  0
  -26.8372  -30.8130   22.0134 H   0  0  0  0  0  0
  -28.0909  -28.9250   21.2487 H   0  0  0  0  0  0
  -25.9837  -25.8908   19.0151 H   0  0  0  0  0  0
  -23.9886  -27.2991   18.9763 H   0  0  0  0  0  0
  -23.7552  -30.5829   19.3934 H   0  0  0  0  0  0
  -22.7584  -29.2332   19.8591 H   0  0  0  0  0  0
  -25.1301  -36.1860   25.0805 H   0  0  0  0  0  0
  -21.0004  -28.3219   24.1373 H   0  0  0  0  0  0
  -20.5606  -26.2276   23.3617 H   0  0  0  0  0  0
  -21.6626  -26.7326   22.1241 H   0  0  0  0  0  0
  -19.6846  -25.6261   21.1211 H   0  0  0  0  0  0
  -19.6630  -27.3197   20.6788 H   0  0  0  0  0  0
  -17.4189  -26.6665   21.4009 H   0  0  0  0  0  0
  -18.0262  -25.9969   22.9008 H   0  0  0  0  0  0
  -19.7951  -30.7269   24.2179 H   0  0  0  0  0  0
  -17.5012  -31.6220   24.5170 H   0  0  0  0  0  0
  -15.5349  -30.2919   23.7640 H   0  0  0  0  0  0
  -15.8665  -28.0730   22.7072 H   0  0  0  0  0  0
  -24.5934  -30.7076   25.7799 H   0  0  0  0  0  0
  -24.8984  -32.2906   26.4855 H   0  0  0  0  0  0
  -25.8100  -30.8921   27.0241 H   0  0  0  0  0  0
  -26.2982  -29.6744   24.1155 H   0  0  0  0  0  0
  -27.3967  -29.7216   25.4753 H   0  0  0  0  0  0
  -27.8928  -30.4202   23.9538 H   0  0  0  0  0  0
  -27.2583  -33.3654   26.2031 H   0  0  0  0  0  0
  -28.3908  -32.6924   25.0386 H   0  0  0  0  0  0
  -28.0688  -31.8537   26.5497 H   0  0  0  0  0  0
  -28.2564  -38.0074   24.7557 H   0  0  0  0  0  0
  -28.1047  -36.2620   24.6242 H   0  0  0  0  0  0
  -27.2251  -37.1395   25.8853 H   0  0  0  0  0  0
  -20.9326  -29.8804   21.6991 H   0  0  0  0  0  0
  -26.0085  -38.2838   24.1509 H   0  0  0  0  0  0
  -23.1943  -16.5999   19.4544 H   0  0  0  0  0  0
  -22.4863  -17.1950   17.9779 H   0  0  0  0  0  0
  -24.3201  -18.7301   17.5874 H   0  0  0  0  0  0
  -24.9895  -17.1542   17.9192 H   0  0  0  0  0  0
  -31.4849  -18.5630   21.9118 H   0  0  0  0  0  0
  -31.8361  -16.8761   22.0318 H   0  0  0  0  0  0
  -27.7738  -22.0232   18.7089 H   0  0  0  0  0  0
  -29.3497  -22.6919   18.4841 H   0  0  0  0  0  0
  -33.2934  -17.0427   20.2491 H   0  0  0  0  0  0
  -33.0160  -18.7644   20.2671 H   0  0  0  0  0  0
  -31.1093  -19.6079   18.6623 H   0  0  0  0  0  0
  -30.3279  -18.4386   17.6544 H   0  0  0  0  0  0
  -23.4351  -18.3734   21.5259 H   0  0  0  0  0  0
  -22.7434  -19.9643   21.2892 H   0  0  0  0  0  0
  -30.4009  -21.1769   19.8656 H   0  0  0  0  0  0
  -28.9231  -17.7018   19.1560 H   0  0  0  0  0  0
  -22.0825  -19.3819   18.9680 H   0  0  0  0  0  0
  -29.4025  -17.5738   21.7346 H   0  0  0  0  0  0
  -27.1845  -23.5439   20.3740 H   0  0  0  0  0  0
  -25.5139  -17.8071   20.2590 H   0  0  0  0  0  0
  -19.0641  -18.6390   20.9574 H   0  0  0  0  0  0
  -19.7159  -19.7015   19.7265 H   0  0  0  0  0  0
  -20.3653  -19.7528   21.3684 H   0  0  0  0  0  0
  -20.5331  -17.3861   19.4302 H   0  0  0  0  0  0
  -21.1845  -17.3460   21.0417 H   0  0  0  0  0  0
  -28.0028  -25.1553   18.6133 H   0  0  0  0  0  0
  -29.5784  -25.0981   19.2757 H   0  0  0  0  0  0
  -26.4331  -19.8207   18.1990 H   0  0  0  0  0  0
  -27.1421  -18.2842   18.4557 H   0  0  0  0  0  0
  -28.8606  -23.7993   22.2401 H   0  0  0  0  0  0
  -28.8683  -15.5283   20.9934 H   0  0  0  0  0  0
  -31.6157  -16.7235   18.7046 H   0  0  0  0  0  0
  -32.5808  -17.8987   18.1428 H   0  0  0  0  0  0
  -25.1097  -19.9875   20.9695 H   0  0  0  0  0  0
  -24.3534  -20.4024   19.6036 H   0  0  0  0  0  0
  1 25  1  0  0  0
  1 30  2  0  0  0
  1 92  1  0  0  0
  2  3  1  0  0  0
  2 25  1  0  0  0
  2 96  1  0  0  0
  2 97  1  0  0  0
  3  4  1  0  0  0
  3 98  1  0  0  0
  3 99  1  0  0  0
  4  5  1  0  0  0
  4100  1  0  0  0
  4101  1  0  0  0
  5  6  1  0  0  0
  5 26  1  0  0  0
  5102  1  0  0  0
  6 25  1  0  0  0
  6103  1  0  0  0
  6104  1  0  0  0
  7  8  2  0  0  0
  7 26  1  0  0  0
  7 29  1  0  0  0
  8  9  1  0  0  0
  8 22  1  0  0  0
  9 10  1  0  0  0
  9 27  2  0  0  0
 10 11  2  0  0  0
 10 15  1  0  0  0
 11 12  1  0  0  0
 11105  1  0  0  0
 12 13  2  0  0  0
 12106  1  0  0  0
 13 14  1  0  0  0
 13 31  1  0  0  0
 14 15  2  0  0  0
 14107  1  0  0  0
 15108  1  0  0  0
 16 17  2  0  0  0
 16 21  1  0  0  0
 16 31  1  0  0  0
 17 18  1  0  0  0
 17109  1  0  0  0
 18 19  2  0  0  0
 18110  1  0  0  0
 19 20  1  0  0  0
 19 24  1  0  0  0
 20 21  2  0  0  0
 20111  1  0  0  0
 21 23  1  0  0  0
 22 28  1  0  0  0
 22 32  2  0  0  0
 26 27  1  0  0  0
 28112  1  0  0  0
 28113  1  0  0  0
 29114  1  0  0  0
 29115  1  0  0  0
 33 34  1  0  0  0
 33 66  1  0  0  0
 33 70  2  0  0  0
 34 36  1  0  0  0
 34 59  1  0  0  0
 34116  1  0  0  0
 35 44  2  0  0  0
 35 45  1  0  0  0
 35 68  1  0  0  0
 36 56  1  0  0  0
 36117  1  0  0  0
 37 39  1  0  0  0
 37 47  1  0  0  0
 37 66  1  0  0  0
 37118  1  0  0  0
 38 43  2  0  0  0
 38 46  1  0  0  0
 38 47  1  0  0  0
 39 64  1  0  0  0
 39 67  2  0  0  0
 40 52  1  0  0  0
 40 53  2  0  0  0
 40 58  1  0  0  0
 41119  1  0  0  0
 41120  1  0  0  0
 41121  1  0  0  0
 41 48  1  0  0  0
 42 43  1  0  0  0
 42 66  1  0  0  0
 42122  1  0  0  0
 42123  1  0  0  0
 43 44  1  0  0  0
 44124  1  0  0  0
 45 46  2  0  0  0
 45125  1  0  0  0
 46126  1  0  0  0
 47127  1  0  0  0
 47128  1  0  0  0
 48 56  1  0  0  0
 48 65  1  0  0  0
 48129  1  0  0  0
 49 50  1  0  0  0
 49 53  1  0  0  0
 49 64  1  0  0  0
 49130  1  0  0  0
 50 51  1  0  0  0
 50131  1  0  0  0
 50132  1  0  0  0
 51 52  1  0  0  0
 51133  1  0  0  0
 51134  1  0  0  0
 52135  1  0  0  0
 52136  1  0  0  0
 53 54  1  0  0  0
 54 55  2  0  0  0
 54137  1  0  0  0
 55 57  1  0  0  0
 55138  1  0  0  0
 56 69  2  0  0  0
 57 58  2  0  0  0
 57139  1  0  0  0
 58140  1  0  0  0
 59 60  1  0  0  0
 59 61  1  0  0  0
 59 62  1  0  0  0
 60141  1  0  0  0
 60142  1  0  0  0
 60143  1  0  0  0
 61144  1  0  0  0
 61145  1  0  0  0
 61146  1  0  0  0
 62147  1  0  0  0
 62148  1  0  0  0
 62149  1  0  0  0
 63 65  1  0  0  0
 63150  1  0  0  0
 63151  1  0  0  0
 63152  1  0  0  0
 64153  1  0  0  0
 65154  1  0  0  0
 68 88  1  0  0  0
 71 80  1  0  0  0
 71 91  1  0  0  0
 71 95  2  0  0  0
 72 90  2  0  0  0
 72 80  1  0  0  0
 72 81  1  0  0  0
 73 74  1  0  0  0
 73 82  1  0  0  0
 73155  1  0  0  0
 73156  1  0  0  0
 74 85  1  0  0  0
 74157  1  0  0  0
 74158  1  0  0  0
 75 77  1  0  0  0
 75 83  1  0  0  0
 75159  1  0  0  0
 75160  1  0  0  0
 76 80  1  0  0  0
 76 84  1  0  0  0
 76161  1  0  0  0
 76162  1  0  0  0
 77 93  1  0  0  0
 77163  1  0  0  0
 77164  1  0  0  0
 78 81  1  0  0  0
 78 93  1  0  0  0
 78165  1  0  0  0
 78166  1  0  0  0
 79 82  1  0  0  0
 79 94  1  0  0  0
 79167  1  0  0  0
 79168  1  0  0  0
 80169  1  0  0  0
 81 83  1  0  0  0
 81170  1  0  0  0
 82 87  1  0  0  0
 82171  1  0  0  0
 83 92  1  0  0  0
 83172  1  0  0  0
 84 88  1  0  0  0
 84 91  1  0  0  0
 84173  1  0  0  0
 85 89  1  0  0  0
 85 94  1  0  0  0
 85174  1  0  0  0
 86 87  1  0  0  0
 86175  1  0  0  0
 86176  1  0  0  0
 86177  1  0  0  0
 87178  1  0  0  0
 87179  1  0  0  0
 88180  1  0  0  0
 88181  1  0  0  0
 89 90  1  0  0  0
 89182  1  0  0  0
 89183  1  0  0  0
 91184  1  0  0  0
 92185  1  0  0  0
 93186  1  0  0  0
 93187  1  0  0  0
 94188  1  0  0  0
 94189  1  0  0  0
M  CHG  2  93   1  94   1
M  ISO  4   1 100  68 101  88 101  92 100
M  END
> <chiral flag>
0

> <version>
0

> <s_m_source_file>
/data/baiqing/PycharmProjects/Reinvent-master-3.2/result/LINK_invent/BTK/process_docking_weight1_custom_sum_contain_oxygen_bond_distance_aromatic_linkinvent_7_9_3/rearranged_h_0125.sdf

> <i_m_source_file_index>
94

> <r_mmod_Potential_Energy-OPLS-2005>
54.0996475219727

> <r_mmod_Stretch_Energy-OPLS-2005>
147.481033325195

> <r_mmod_Bend_Energy-OPLS-2005>
275.292877197266

> <r_mmod_Torsional_Energy-OPLS-2005>
394.759094238281

> <r_mmod_Improper_Torsional_Energy-OPLS-2005>
9.52377986907959

> <r_mmod_Van_der_Waal_Energy-OPLS-2005>
117.216621398926

> <r_mmod_Electrostatic_Energy-OPLS-2005>
-80.3339996337891

> <r_mmod_Solvation_Energy-OPLS-2005>
-884.851928710938

> <b_mmod_Minimization_Converged-OPLS-2005>
0

> <r_mmod_RMS_Derivative-OPLS-2005>
5.57130289077759

$$$$
95
                    3D
 Structure written by MMmdl.
170180  0  0  1  0            999 V2000
  -30.6522  -14.6658   20.5013 C   0  0  0  0  0  0
  -30.4336  -12.4084   19.4662 C   0  0  0  0  0  0
  -29.5202  -12.5050   18.2230 C   0  0  0  0  0  0
  -28.0405  -12.3446   18.6320 C   0  0  0  0  0  0
  -27.6546  -13.2283   19.8526 C   0  0  2  0  0  0
  -28.6980  -13.1188   20.9901 C   0  0  0  0  0  0
  -25.2587  -13.8197   20.5679 C   0  0  0  0  0  0
  -24.1854  -13.0480   20.9227 C   0  0  0  0  0  0
  -24.6411  -11.6956   20.8743 C   0  0  0  0  0  0
  -23.9057  -10.4330   21.0402 C   0  0  0  0  0  0
  -24.3612   -9.4227   21.9179 C   0  0  0  0  0  0
  -23.6299   -8.2242   22.0734 C   0  0  0  0  0  0
  -22.4258   -8.0286   21.3546 C   0  0  0  0  0  0
  -21.9893   -9.0272   20.4635 C   0  0  0  0  0  0
  -22.7239  -10.2161   20.3041 C   0  0  0  0  0  0
  -21.6845   -6.0727   22.5273 C   0  0  0  0  0  0
  -21.4046   -6.5629   23.8217 C   0  0  0  0  0  0
  -21.3665   -5.6773   24.9163 C   0  0  0  0  0  0
  -21.6016   -4.3025   24.7234 C   0  0  0  0  0  0
  -21.8813   -3.8137   23.4347 C   0  0  0  0  0  0
  -21.9202   -4.6955   22.3415 C   0  0  0  0  0  0
  -22.7884  -13.5266   21.1881 C   0  0  0  0  0  0
  -22.1668   -4.2148   21.0991 F   0  0  0  0  0  0
  -21.5631   -3.4517   25.7751 F   0  0  0  0  0  0
  -30.0091  -13.4593   20.4156 N   0  0  0  0  0  0
  -26.2994  -12.9397   20.3241 N   0  0  0  0  0  0
  -25.9322  -11.6550   20.5693 N   0  0  0  0  0  0
  -22.0427  -12.8308   22.0384 N   0  0  0  0  0  0
  -25.4289  -15.1929   20.4107 N   0  0  0  0  0  0
  -31.8283  -14.7813   20.1402 O   0  0  0  0  0  0
  -21.6618   -6.8883   21.4235 O   0  0  0  0  0  0
  -22.3594  -14.5570   20.6702 O   0  0  0  0  0  0
  -24.6272  -31.8566   23.2012 C   0  0  0  0  0  0
  -25.9089  -32.4762   23.8376 C   0  0  1  0  0  0
  -27.2089  -27.2833   20.1445 C   0  0  0  0  0  0
  -25.5873  -33.8569   24.2290 N   0  0  0  0  0  0
  -23.4261  -30.4844   21.5395 C   0  0  2  0  0  0
  -24.8732  -28.9325   20.1121 C   0  0  0  0  0  0
  -22.7506  -29.4631   22.4858 C   0  0  0  0  0  0
  -18.0309  -28.1425   22.8480 C   0  0  0  0  0  0
  -24.1473  -36.7302   23.2636 C   0  0  0  0  0  0
  -25.9712  -30.7788   21.3811 C   0  0  0  0  0  0
  -26.0439  -29.4025   20.7222 C   0  0  0  0  0  0
  -27.2198  -28.5931   20.7236 C   0  0  0  0  0  0
  -26.0241  -26.8717   19.5017 C   0  0  0  0  0  0
  -24.8681  -27.6736   19.4899 C   0  0  0  0  0  0
  -23.6461  -29.8221   20.1550 C   0  0  0  0  0  0
  -25.4091  -36.3079   24.0337 C   0  0  1  0  0  0
  -20.5913  -28.3744   23.1238 C   0  0  2  0  0  0
  -20.6785  -26.9455   22.5395 C   0  0  0  0  0  0
  -19.5759  -26.6420   21.5193 C   0  0  0  0  0  0
  -18.1944  -26.7964   22.1618 C   0  0  0  0  0  0
  -19.1553  -28.8884   23.2870 C   0  0  0  0  0  0
  -18.9477  -30.1479   23.8912 C   0  0  0  0  0  0
  -17.6476  -30.6607   24.0574 C   0  0  0  0  0  0
  -25.9029  -34.9446   23.5131 C   0  0  0  0  0  0
  -16.5368  -29.9120   23.6325 C   0  0  0  0  0  0
  -16.7294  -28.6534   23.0340 C   0  0  0  0  0  0
  -26.4452  -31.6588   25.0772 C   0  0  0  0  0  0
  -25.3703  -31.3743   26.1525 C   0  0  0  0  0  0
  -27.0254  -30.2984   24.6263 C   0  0  0  0  0  0
  -27.6028  -32.4332   25.7508 C   0  0  0  0  0  0
  -27.5573  -37.1791   24.8451 C   0  0  0  0  0  0
  -21.4206  -29.3082   22.3611 N   0  0  0  0  0  0
  -26.4275  -37.3773   23.9421 N   0  0  0  0  0  0
  -24.6933  -31.0577   22.0964 N   0  0  0  0  0  0
  -23.4205  -28.8193   23.2974 O   0  0  0  0  0  0
  -28.2869  -26.3841   20.1866 O   0  0  0  0  0  0
  -26.5638  -34.8901   22.4716 O   0  0  0  0  0  0
  -23.5421  -32.1371   23.7315 O   0  0  0  0  0  0
  -29.6569  -22.6914   18.1595 C   0  0  0  0  0  0
  -28.9803  -23.7772   18.7505 C   0  0  0  0  0  0
  -28.7580  -22.4560   20.7808 C   0  0  0  0  0  0
  -29.9635  -21.5258   18.9000 C   0  0  0  0  0  0
  -29.3955  -21.3035   20.1769 C   0  0  0  0  0  0
  -28.6042  -23.7307   20.1039 C   0  0  0  0  0  0
  -31.0616  -20.5983   18.4013 C   0  0  0  0  0  0
  -31.9918  -20.0843   19.5367 C   0  0  0  0  0  0
  -31.3852  -20.1335   20.9522 C   0  0  0  0  0  0
  -28.5585  -18.2085   19.3676 C   0  0  0  0  0  0
  -27.1923  -18.8728   19.5370 C   0  0  0  0  0  0
  -28.0952  -18.2354   21.6470 C   0  0  0  0  0  0
  -29.8505  -19.9997   20.9707 C   0  0  2  0  0  0
  -29.3045  -18.4493   20.7000 C   0  0  2  0  0  0
  -28.0209  -25.0341   20.7772 C   0  0  0  0  0  0
  -30.3615  -17.2358   20.9318 C   0  0  0  0  0  0
  -29.9120  -15.7789   20.8284 N   0  0  0  0  0  0
  -26.9240  -18.8308   20.9803 N   0  3  0  0  0  0
  -31.4830  -12.5073   19.1836 H   0  0  0  0  0  0
  -30.3508  -11.4230   19.9292 H   0  0  0  0  0  0
  -29.7988  -11.7340   17.5007 H   0  0  0  0  0  0
  -29.6673  -13.4626   17.7196 H   0  0  0  0  0  0
  -27.8790  -11.2937   18.8756 H   0  0  0  0  0  0
  -27.3905  -12.5604   17.7837 H   0  0  0  0  0  0
  -27.6692  -14.2605   19.4994 H   0  0  0  0  0  0
  -28.7183  -12.1089   21.4060 H   0  0  0  0  0  0
  -28.4425  -13.7810   21.8185 H   0  0  0  0  0  0
  -25.2760   -9.5701   22.4748 H   0  0  0  0  0  0
  -24.0001   -7.4622   22.7450 H   0  0  0  0  0  0
  -21.0819   -8.8801   19.8949 H   0  0  0  0  0  0
  -22.3686  -10.9699   19.6142 H   0  0  0  0  0  0
  -21.2023   -7.6142   23.9734 H   0  0  0  0  0  0
  -21.1494   -6.0492   25.9073 H   0  0  0  0  0  0
  -22.0582   -2.7612   23.2843 H   0  0  0  0  0  0
  -22.3998  -12.0033   22.4920 H   0  0  0  0  0  0
  -21.1006  -13.1347   22.2432 H   0  0  0  0  0  0
  -24.6201  -15.8018   20.4304 H   0  0  0  0  0  0
  -26.2077  -15.5740   19.8929 H   0  0  0  0  0  0
  -26.7163  -32.5411   23.1132 H   0  0  0  0  0  0
  -24.9908  -33.9703   25.0350 H   0  0  0  0  0  0
  -22.7218  -31.3067   21.3965 H   0  0  0  0  0  0
  -23.3720  -35.9641   23.3272 H   0  0  0  0  0  0
  -24.3583  -36.8946   22.2059 H   0  0  0  0  0  0
  -23.7229  -37.6502   23.6673 H   0  0  0  0  0  0
  -26.1157  -31.5417   20.6151 H   0  0  0  0  0  0
  -26.8447  -30.8213   22.0203 H   0  0  0  0  0  0
  -28.1197  -28.9503   21.2036 H   0  0  0  0  0  0
  -25.9862  -25.9036   19.0209 H   0  0  0  0  0  0
  -23.9737  -27.3098   19.0023 H   0  0  0  0  0  0
  -23.7835  -30.6017   19.4060 H   0  0  0  0  0  0
  -22.7633  -29.2645   19.8402 H   0  0  0  0  0  0
  -25.1248  -36.1935   25.0824 H   0  0  0  0  0  0
  -21.0032  -28.3345   24.1347 H   0  0  0  0  0  0
  -20.5686  -26.2364   23.3617 H   0  0  0  0  0  0
  -21.6661  -26.7476   22.1196 H   0  0  0  0  0  0
  -19.6929  -25.6324   21.1237 H   0  0  0  0  0  0
  -19.6694  -27.3215   20.6710 H   0  0  0  0  0  0
  -17.4217  -26.6713   21.4020 H   0  0  0  0  0  0
  -18.0365  -26.0114   22.9030 H   0  0  0  0  0  0
  -19.7946  -30.7286   24.2317 H   0  0  0  0  0  0
  -17.5027  -31.6281   24.5193 H   0  0  0  0  0  0
  -15.5372  -30.3031   23.7613 H   0  0  0  0  0  0
  -15.8701  -28.0850   22.7053 H   0  0  0  0  0  0
  -24.5867  -30.7083   25.7883 H   0  0  0  0  0  0
  -24.8895  -32.2911   26.4953 H   0  0  0  0  0  0
  -25.8046  -30.8944   27.0311 H   0  0  0  0  0  0
  -26.2820  -29.6802   24.1228 H   0  0  0  0  0  0
  -27.3811  -29.7182   25.4786 H   0  0  0  0  0  0
  -27.8759  -30.4193   23.9559 H   0  0  0  0  0  0
  -27.2627  -33.3611   26.2116 H   0  0  0  0  0  0
  -28.3788  -32.6958   25.0309 H   0  0  0  0  0  0
  -28.0766  -31.8478   26.5399 H   0  0  0  0  0  0
  -28.2580  -38.0099   24.7506 H   0  0  0  0  0  0
  -28.1084  -36.2639   24.6231 H   0  0  0  0  0  0
  -27.2329  -37.1390   25.8865 H   0  0  0  0  0  0
  -20.9399  -29.8782   21.6774 H   0  0  0  0  0  0
  -26.0149  -38.2838   24.1458 H   0  0  0  0  0  0
  -30.0217  -22.8051   17.1477 H   0  0  0  0  0  0
  -28.8093  -24.6800   18.1788 H   0  0  0  0  0  0
  -28.4661  -22.3945   21.8196 H   0  0  0  0  0  0
  -31.6655  -21.1301   17.6654 H   0  0  0  0  0  0
  -30.6165  -19.7694   17.8591 H   0  0  0  0  0  0
  -32.8875  -20.7106   19.5697 H   0  0  0  0  0  0
  -32.3546  -19.0819   19.3117 H   0  0  0  0  0  0
  -31.6195  -21.1210   21.3620 H   0  0  0  0  0  0
  -31.8832  -19.4426   21.6315 H   0  0  0  0  0  0
  -29.0969  -18.4912   18.4702 H   0  0  0  0  0  0
  -28.3555  -17.1400   19.2553 H   0  0  0  0  0  0
  -26.4095  -18.3498   18.9869 H   0  0  0  0  0  0
  -27.2093  -19.9094   19.1973 H   0  0  0  0  0  0
  -28.2367  -18.6133   22.6585 H   0  0  0  0  0  0
  -27.8765  -17.1714   21.7479 H   0  0  0  0  0  0
  -29.5877  -20.2237   22.0014 H   0  0  0  0  0  0
  -28.4390  -25.0619   21.7841 H   0  0  0  0  0  0
  -26.9541  -24.8616   20.9262 H   0  0  0  0  0  0
  -30.7763  -17.3367   21.9348 H   0  0  0  0  0  0
  -31.2075  -17.3715   20.2558 H   0  0  0  0  0  0
  -28.9482  -15.5821   21.0518 H   0  0  0  0  0  0
  -26.1034  -18.2831   21.1725 H   0  0  0  0  0  0
  -26.7686  -19.7670   21.3199 H   0  0  0  0  0  0
  1 25  1  0  0  0
  1 30  2  0  0  0
  1 87  1  0  0  0
  2  3  1  0  0  0
  2 25  1  0  0  0
  2 89  1  0  0  0
  2 90  1  0  0  0
  3  4  1  0  0  0
  3 91  1  0  0  0
  3 92  1  0  0  0
  4  5  1  0  0  0
  4 93  1  0  0  0
  4 94  1  0  0  0
  5  6  1  0  0  0
  5 26  1  0  0  0
  5 95  1  0  0  0
  6 25  1  0  0  0
  6 96  1  0  0  0
  6 97  1  0  0  0
  7  8  2  0  0  0
  7 26  1  0  0  0
  7 29  1  0  0  0
  8  9  1  0  0  0
  8 22  1  0  0  0
  9 10  1  0  0  0
  9 27  2  0  0  0
 10 11  2  0  0  0
 10 15  1  0  0  0
 11 12  1  0  0  0
 11 98  1  0  0  0
 12 13  2  0  0  0
 12 99  1  0  0  0
 13 14  1  0  0  0
 13 31  1  0  0  0
 14 15  2  0  0  0
 14100  1  0  0  0
 15101  1  0  0  0
 16 17  2  0  0  0
 16 21  1  0  0  0
 16 31  1  0  0  0
 17 18  1  0  0  0
 17102  1  0  0  0
 18 19  2  0  0  0
 18103  1  0  0  0
 19 20  1  0  0  0
 19 24  1  0  0  0
 20 21  2  0  0  0
 20104  1  0  0  0
 21 23  1  0  0  0
 22 28  1  0  0  0
 22 32  2  0  0  0
 26 27  1  0  0  0
 28105  1  0  0  0
 28106  1  0  0  0
 29107  1  0  0  0
 29108  1  0  0  0
 33 34  1  0  0  0
 33 66  1  0  0  0
 33 70  2  0  0  0
 34 36  1  0  0  0
 34 59  1  0  0  0
 34109  1  0  0  0
 35 44  2  0  0  0
 35 45  1  0  0  0
 35 68  1  0  0  0
 36 56  1  0  0  0
 36110  1  0  0  0
 37 39  1  0  0  0
 37 47  1  0  0  0
 37 66  1  0  0  0
 37111  1  0  0  0
 38 43  2  0  0  0
 38 46  1  0  0  0
 38 47  1  0  0  0
 39 64  1  0  0  0
 39 67  2  0  0  0
 40 52  1  0  0  0
 40 53  2  0  0  0
 40 58  1  0  0  0
 41112  1  0  0  0
 41113  1  0  0  0
 41114  1  0  0  0
 41 48  1  0  0  0
 42 43  1  0  0  0
 42 66  1  0  0  0
 42115  1  0  0  0
 42116  1  0  0  0
 43 44  1  0  0  0
 44117  1  0  0  0
 45 46  2  0  0  0
 45118  1  0  0  0
 46119  1  0  0  0
 47120  1  0  0  0
 47121  1  0  0  0
 48 56  1  0  0  0
 48 65  1  0  0  0
 48122  1  0  0  0
 49 50  1  0  0  0
 49 53  1  0  0  0
 49 64  1  0  0  0
 49123  1  0  0  0
 50 51  1  0  0  0
 50124  1  0  0  0
 50125  1  0  0  0
 51 52  1  0  0  0
 51126  1  0  0  0
 51127  1  0  0  0
 52128  1  0  0  0
 52129  1  0  0  0
 53 54  1  0  0  0
 54 55  2  0  0  0
 54130  1  0  0  0
 55 57  1  0  0  0
 55131  1  0  0  0
 56 69  2  0  0  0
 57 58  2  0  0  0
 57132  1  0  0  0
 58133  1  0  0  0
 59 60  1  0  0  0
 59 61  1  0  0  0
 59 62  1  0  0  0
 60134  1  0  0  0
 60135  1  0  0  0
 60136  1  0  0  0
 61137  1  0  0  0
 61138  1  0  0  0
 61139  1  0  0  0
 62140  1  0  0  0
 62141  1  0  0  0
 62142  1  0  0  0
 63 65  1  0  0  0
 63143  1  0  0  0
 63144  1  0  0  0
 63145  1  0  0  0
 64146  1  0  0  0
 65147  1  0  0  0
 68 85  1  0  0  0
 71 72  2  0  0  0
 71 74  1  0  0  0
 71148  1  0  0  0
 72 76  1  0  0  0
 72149  1  0  0  0
 73 75  1  0  0  0
 73 76  2  0  0  0
 73150  1  0  0  0
 74 75  2  0  0  0
 74 77  1  0  0  0
 75 83  1  0  0  0
 76 85  1  0  0  0
 77 78  1  0  0  0
 77151  1  0  0  0
 77152  1  0  0  0
 78 79  1  0  0  0
 78153  1  0  0  0
 78154  1  0  0  0
 79155  1  0  0  0
 79156  1  0  0  0
 79 83  1  0  0  0
 80 81  1  0  0  0
 80 84  1  0  0  0
 80157  1  0  0  0
 80158  1  0  0  0
 81 88  1  0  0  0
 81159  1  0  0  0
 81160  1  0  0  0
 82 84  1  0  0  0
 82 88  1  0  0  0
 82161  1  0  0  0
 82162  1  0  0  0
 83 84  1  0  0  0
 83163  1  0  0  0
 84 86  1  0  0  0
 85164  1  0  0  0
 85165  1  0  0  0
 86 87  1  0  0  0
 86166  1  0  0  0
 86167  1  0  0  0
 87168  1  0  0  0
 88169  1  0  0  0
 88170  1  0  0  0
M  CHG  1  88   1
M  ISO  4   1 100  68 101  85 101  87 100
M  END
> <chiral flag>
0

> <version>
0

> <s_m_source_file>
/data/baiqing/PycharmProjects/Reinvent-master-3.2/result/LINK_invent/BTK/process_docking_weight1_custom_sum_contain_oxygen_bond_distance_aromatic_linkinvent_7_9_3/rearranged_h_0125.sdf

> <i_m_source_file_index>
95

> <r_mmod_Potential_Energy-OPLS-2005>
130.6650390625

> <r_mmod_Stretch_Energy-OPLS-2005>
121.621643066406

> <r_mmod_Bend_Energy-OPLS-2005>
201.412017822266

> <r_mmod_Torsional_Energy-OPLS-2005>
356.865142822266

> <r_mmod_Improper_Torsional_Energy-OPLS-2005>
9.54273414611816

> <r_mmod_Van_der_Waal_Energy-OPLS-2005>
138.949966430664

> <r_mmod_Electrostatic_Energy-OPLS-2005>
-281.985076904297

> <r_mmod_Solvation_Energy-OPLS-2005>
-480.919799804688

> <b_mmod_Minimization_Converged-OPLS-2005>
0

> <r_mmod_RMS_Derivative-OPLS-2005>
6.28930807113647

$$$$
96
                    3D
 Structure written by MMmdl.
166175  0  0  1  0            999 V2000
  -30.7017  -14.4512   20.5734 C   0  0  0  0  0  0
  -30.4210  -12.2913   19.4226 C   0  0  0  0  0  0
  -29.4948  -12.5034   18.2074 C   0  0  0  0  0  0
  -28.0147  -12.3682   18.6174 C   0  0  0  0  0  0
  -27.6631  -13.2045   19.8775 C   0  0  2  0  0  0
  -28.7018  -12.9713   20.9977 C   0  0  0  0  0  0
  -25.2592  -13.8162   20.5677 C   0  0  0  0  0  0
  -24.1838  -13.0443   20.9172 C   0  0  0  0  0  0
  -24.6386  -11.6907   20.8733 C   0  0  0  0  0  0
  -23.9054  -10.4293   21.0404 C   0  0  0  0  0  0
  -24.3611   -9.4210   21.9180 C   0  0  0  0  0  0
  -23.6289   -8.2244   22.0754 C   0  0  0  0  0  0
  -22.4271   -8.0281   21.3546 C   0  0  0  0  0  0
  -21.9903   -9.0251   20.4647 C   0  0  0  0  0  0
  -22.7229  -10.2130   20.3052 C   0  0  0  0  0  0
  -21.6851   -6.0734   22.5279 C   0  0  0  0  0  0
  -21.4012   -6.5639   23.8214 C   0  0  0  0  0  0
  -21.3659   -5.6790   24.9174 C   0  0  0  0  0  0
  -21.6043   -4.3051   24.7224 C   0  0  0  0  0  0
  -21.8819   -3.8145   23.4343 C   0  0  0  0  0  0
  -21.9193   -4.6963   22.3399 C   0  0  0  0  0  0
  -22.7860  -13.5242   21.1839 C   0  0  0  0  0  0
  -22.1658   -4.2148   21.0976 F   0  0  0  0  0  0
  -21.5630   -3.4531   25.7733 F   0  0  0  0  0  0
  -30.0376  -13.2705   20.4516 N   0  0  0  0  0  0
  -26.3026  -12.9326   20.3369 N   0  0  0  0  0  0
  -25.9314  -11.6488   20.5766 N   0  0  0  0  0  0
  -22.0500  -12.8230   22.0393 N   0  0  0  0  0  0
  -25.4325  -15.1877   20.4082 N   0  0  0  0  0  0
  -31.8293  -14.6247   20.1020 O   0  0  0  0  0  0
  -21.6638   -6.8876   21.4241 O   0  0  0  0  0  0
  -22.3548  -14.5554   20.6699 O   0  0  0  0  0  0
  -24.6111  -31.8696   23.2117 C   0  0  0  0  0  0
  -25.9012  -32.4835   23.8409 C   0  0  1  0  0  0
  -27.2488  -27.4522   20.1068 C   0  0  0  0  0  0
  -25.5876  -33.8632   24.2342 N   0  0  0  0  0  0
  -23.4000  -30.4907   21.5501 C   0  0  2  0  0  0
  -24.8525  -28.9561   20.1184 C   0  0  0  0  0  0
  -22.7398  -29.4658   22.4996 C   0  0  0  0  0  0
  -18.0262  -28.1381   22.8496 C   0  0  0  0  0  0
  -24.1480  -36.7319   23.2629 C   0  0  0  0  0  0
  -25.9243  -30.8414   21.3621 C   0  0  0  0  0  0
  -26.0063  -29.4723   20.7211 C   0  0  0  0  0  0
  -27.2056  -28.7269   20.7226 C   0  0  0  0  0  0
  -26.0839  -26.9554   19.4884 C   0  0  0  0  0  0
  -24.8842  -27.6934   19.5004 C   0  0  0  0  0  0
  -23.6110  -29.8188   20.1657 C   0  0  0  0  0  0
  -25.4090  -36.3117   24.0345 C   0  0  1  0  0  0
  -20.5851  -28.3658   23.1329 C   0  0  2  0  0  0
  -20.6752  -26.9399   22.5426 C   0  0  0  0  0  0
  -19.5734  -26.6390   21.5220 C   0  0  0  0  0  0
  -18.1910  -26.7931   22.1625 C   0  0  0  0  0  0
  -19.1512  -28.8837   23.2910 C   0  0  0  0  0  0
  -18.9445  -30.1446   23.8916 C   0  0  0  0  0  0
  -17.6448  -30.6589   24.0568 C   0  0  0  0  0  0
  -25.9027  -34.9484   23.5145 C   0  0  0  0  0  0
  -16.5337  -29.9094   23.6328 C   0  0  0  0  0  0
  -16.7251  -28.6513   23.0345 C   0  0  0  0  0  0
  -26.4458  -31.6598   25.0719 C   0  0  0  0  0  0
  -25.3745  -31.3706   26.1488 C   0  0  0  0  0  0
  -27.0274  -30.3045   24.6060 C   0  0  0  0  0  0
  -27.6052  -32.4304   25.7464 C   0  0  0  0  0  0
  -27.5600  -37.1774   24.8431 C   0  0  0  0  0  0
  -21.4128  -29.3027   22.3741 N   0  0  0  0  0  0
  -26.4265  -37.3815   23.9452 N   0  0  0  0  0  0
  -24.6630  -31.0812   22.1009 N   0  0  0  0  0  0
  -23.4185  -28.8200   23.3026 O   0  0  0  0  0  0
  -28.3786  -26.6652   20.0489 O   0  0  0  0  0  0
  -26.5596  -34.8934   22.4710 O   0  0  0  0  0  0
  -23.5310  -32.1429   23.7529 O   0  0  0  0  0  0
  -31.1023  -18.8873   20.0428 C   0  0  0  0  0  0
  -31.0280  -17.4852   20.1418 C   0  0  0  0  0  0
  -29.3767  -19.1039   21.7328 C   0  0  0  0  0  0
  -30.2816  -19.7137   20.8362 C   0  0  0  0  0  0
  -29.2967  -17.6931   21.8390 C   0  0  0  0  0  0
  -30.1330  -16.8622   21.0474 C   0  0  0  0  0  0
  -29.1217  -21.9681   20.3133 C   0  0  0  0  0  0
  -30.9441  -21.8908   22.0021 C   0  0  0  0  0  0
  -29.3828  -23.4820   20.1041 C   0  0  0  0  0  0
  -31.2086  -23.3928   21.7726 C   0  0  0  0  0  0
  -30.4131  -21.2364   20.7207 C   0  0  1  0  0  0
  -28.2994  -17.0839   22.8116 C   0  0  0  0  0  0
  -30.3300  -25.5814   21.0633 C   0  0  0  0  0  0
  -29.1524  -26.5665   21.2438 C   0  0  0  0  0  0
  -29.9993  -15.4388   21.1651 N   0  0  0  0  0  0
  -30.0068  -24.1372   21.2921 N   0  3  1  0  0  0
  -31.4666  -12.3838   19.1232 H   0  0  0  0  0  0
  -30.3146  -11.2778   19.8125 H   0  0  0  0  0  0
  -29.7324  -11.7832   17.4232 H   0  0  0  0  0  0
  -29.6686  -13.4918   17.7781 H   0  0  0  0  0  0
  -27.8211  -11.3119   18.8091 H   0  0  0  0  0  0
  -27.3657  -12.6473   17.7865 H   0  0  0  0  0  0
  -27.7124  -14.2546   19.5879 H   0  0  0  0  0  0
  -28.6705  -11.9326   21.3299 H   0  0  0  0  0  0
  -28.4620  -13.5615   21.8828 H   0  0  0  0  0  0
  -25.2761   -9.5683   22.4746 H   0  0  0  0  0  0
  -24.0002   -7.4633   22.7470 H   0  0  0  0  0  0
  -21.0837   -8.8764   19.8952 H   0  0  0  0  0  0
  -22.3693  -10.9662   19.6154 H   0  0  0  0  0  0
  -21.2001   -7.6148   23.9718 H   0  0  0  0  0  0
  -21.1478   -6.0516   25.9078 H   0  0  0  0  0  0
  -22.0596   -2.7607   23.2839 H   0  0  0  0  0  0
  -22.4108  -11.9884   22.4769 H   0  0  0  0  0  0
  -21.1119  -13.1259   22.2598 H   0  0  0  0  0  0
  -24.6664  -15.8440   20.5122 H   0  0  0  0  0  0
  -26.2851  -15.6239   20.0800 H   0  0  0  0  0  0
  -26.7088  -32.5570   23.1188 H   0  0  0  0  0  0
  -25.0015  -33.9797   25.0481 H   0  0  0  0  0  0
  -22.6875  -31.3060   21.4089 H   0  0  0  0  0  0
  -23.3764  -35.9625   23.3233 H   0  0  0  0  0  0
  -24.3601  -36.8987   22.2057 H   0  0  0  0  0  0
  -23.7193  -37.6495   23.6670 H   0  0  0  0  0  0
  -26.0260  -31.6019   20.5866 H   0  0  0  0  0  0
  -26.8157  -30.9067   21.9738 H   0  0  0  0  0  0
  -28.0880  -29.1499   21.1807 H   0  0  0  0  0  0
  -26.1053  -25.9885   19.0054 H   0  0  0  0  0  0
  -23.9992  -27.2901   19.0275 H   0  0  0  0  0  0
  -23.7167  -30.5907   19.4026 H   0  0  0  0  0  0
  -22.7375  -29.2337   19.8717 H   0  0  0  0  0  0
  -25.1251  -36.1966   25.0832 H   0  0  0  0  0  0
  -20.9939  -28.3218   24.1450 H   0  0  0  0  0  0
  -20.5654  -26.2267   23.3614 H   0  0  0  0  0  0
  -21.6625  -26.7446   22.1215 H   0  0  0  0  0  0
  -19.6894  -25.6308   21.1232 H   0  0  0  0  0  0
  -19.6678  -27.3218   20.6765 H   0  0  0  0  0  0
  -17.4187  -26.6691   21.4018 H   0  0  0  0  0  0
  -18.0297  -26.0067   22.9012 H   0  0  0  0  0  0
  -19.7922  -30.7252   24.2295 H   0  0  0  0  0  0
  -17.5008  -31.6272   24.5165 H   0  0  0  0  0  0
  -15.5340  -30.3004   23.7646 H   0  0  0  0  0  0
  -15.8650  -28.0844   22.7042 H   0  0  0  0  0  0
  -24.5890  -30.7078   25.7837 H   0  0  0  0  0  0
  -24.8967  -32.2865   26.4973 H   0  0  0  0  0  0
  -25.8112  -30.8849   27.0223 H   0  0  0  0  0  0
  -26.2796  -29.6816   24.1135 H   0  0  0  0  0  0
  -27.4079  -29.7265   25.4491 H   0  0  0  0  0  0
  -27.8618  -30.4377   23.9172 H   0  0  0  0  0  0
  -27.2689  -33.3599   26.2071 H   0  0  0  0  0  0
  -28.3839  -32.6869   25.0268 H   0  0  0  0  0  0
  -28.0744  -31.8404   26.5350 H   0  0  0  0  0  0
  -28.2507  -38.0182   24.7662 H   0  0  0  0  0  0
  -28.1210  -36.2735   24.6007 H   0  0  0  0  0  0
  -27.2368  -37.1106   25.8834 H   0  0  0  0  0  0
  -20.9283  -29.8766   21.6981 H   0  0  0  0  0  0
  -26.0152  -38.2867   24.1568 H   0  0  0  0  0  0
  -31.8042  -19.3226   19.3450 H   0  0  0  0  0  0
  -31.6729  -16.9139   19.4924 H   0  0  0  0  0  0
  -28.7403  -19.7258   22.3469 H   0  0  0  0  0  0
  -28.7335  -21.5408   19.3879 H   0  0  0  0  0  0
  -28.3463  -21.8233   21.0662 H   0  0  0  0  0  0
  -30.2431  -21.7510   22.8261 H   0  0  0  0  0  0
  -31.8737  -21.4077   22.3054 H   0  0  0  0  0  0
  -28.4450  -23.9818   19.8596 H   0  0  0  0  0  0
  -30.0350  -23.6142   19.2390 H   0  0  0  0  0  0
  -32.0156  -23.5104   21.0470 H   0  0  0  0  0  0
  -31.5668  -23.8328   22.7045 H   0  0  0  0  0  0
  -31.1472  -21.4235   19.9344 H   0  0  0  0  0  0
  -27.7602  -17.8522   23.3662 H   0  0  0  0  0  0
  -28.8077  -16.4476   23.5368 H   0  0  0  0  0  0
  -27.5624  -16.4821   22.2789 H   0  0  0  0  0  0
  -31.0751  -25.8780   21.8031 H   0  0  0  0  0  0
  -30.8123  -25.7282   20.0961 H   0  0  0  0  0  0
  -29.5740  -27.5455   21.4726 H   0  0  0  0  0  0
  -28.5283  -26.2825   22.0927 H   0  0  0  0  0  0
  -29.1621  -15.1233   21.6290 H   0  0  0  0  0  0
  -29.3328  -24.0974   22.0440 H   0  0  0  0  0  0
  1 25  1  0  0  0
  1 30  2  0  0  0
  1 85  1  0  0  0
  2  3  1  0  0  0
  2 25  1  0  0  0
  2 87  1  0  0  0
  2 88  1  0  0  0
  3  4  1  0  0  0
  3 89  1  0  0  0
  3 90  1  0  0  0
  4  5  1  0  0  0
  4 91  1  0  0  0
  4 92  1  0  0  0
  5  6  1  0  0  0
  5 26  1  0  0  0
  5 93  1  0  0  0
  6 25  1  0  0  0
  6 94  1  0  0  0
  6 95  1  0  0  0
  7  8  2  0  0  0
  7 26  1  0  0  0
  7 29  1  0  0  0
  8  9  1  0  0  0
  8 22  1  0  0  0
  9 10  1  0  0  0
  9 27  2  0  0  0
 10 11  2  0  0  0
 10 15  1  0  0  0
 11 12  1  0  0  0
 11 96  1  0  0  0
 12 13  2  0  0  0
 12 97  1  0  0  0
 13 14  1  0  0  0
 13 31  1  0  0  0
 14 15  2  0  0  0
 14 98  1  0  0  0
 15 99  1  0  0  0
 16 17  2  0  0  0
 16 21  1  0  0  0
 16 31  1  0  0  0
 17 18  1  0  0  0
 17100  1  0  0  0
 18 19  2  0  0  0
 18101  1  0  0  0
 19 20  1  0  0  0
 19 24  1  0  0  0
 20 21  2  0  0  0
 20102  1  0  0  0
 21 23  1  0  0  0
 22 28  1  0  0  0
 22 32  2  0  0  0
 26 27  1  0  0  0
 28103  1  0  0  0
 28104  1  0  0  0
 29105  1  0  0  0
 29106  1  0  0  0
 33 34  1  0  0  0
 33 66  1  0  0  0
 33 70  2  0  0  0
 34 36  1  0  0  0
 34 59  1  0  0  0
 34107  1  0  0  0
 35 44  2  0  0  0
 35 45  1  0  0  0
 35 68  1  0  0  0
 36 56  1  0  0  0
 36108  1  0  0  0
 37 39  1  0  0  0
 37 47  1  0  0  0
 37 66  1  0  0  0
 37109  1  0  0  0
 38 43  2  0  0  0
 38 46  1  0  0  0
 38 47  1  0  0  0
 39 64  1  0  0  0
 39 67  2  0  0  0
 40 52  1  0  0  0
 40 53  2  0  0  0
 40 58  1  0  0  0
 41110  1  0  0  0
 41111  1  0  0  0
 41112  1  0  0  0
 41 48  1  0  0  0
 42 43  1  0  0  0
 42 66  1  0  0  0
 42113  1  0  0  0
 42114  1  0  0  0
 43 44  1  0  0  0
 44115  1  0  0  0
 45 46  2  0  0  0
 45116  1  0  0  0
 46117  1  0  0  0
 47118  1  0  0  0
 47119  1  0  0  0
 48 56  1  0  0  0
 48 65  1  0  0  0
 48120  1  0  0  0
 49 50  1  0  0  0
 49 53  1  0  0  0
 49 64  1  0  0  0
 49121  1  0  0  0
 50 51  1  0  0  0
 50122  1  0  0  0
 50123  1  0  0  0
 51 52  1  0  0  0
 51124  1  0  0  0
 51125  1  0  0  0
 52126  1  0  0  0
 52127  1  0  0  0
 53 54  1  0  0  0
 54 55  2  0  0  0
 54128  1  0  0  0
 55 57  1  0  0  0
 55129  1  0  0  0
 56 69  2  0  0  0
 57 58  2  0  0  0
 57130  1  0  0  0
 58131  1  0  0  0
 59 60  1  0  0  0
 59 61  1  0  0  0
 59 62  1  0  0  0
 60132  1  0  0  0
 60133  1  0  0  0
 60134  1  0  0  0
 61135  1  0  0  0
 61136  1  0  0  0
 61137  1  0  0  0
 62138  1  0  0  0
 62139  1  0  0  0
 62140  1  0  0  0
 63 65  1  0  0  0
 63141  1  0  0  0
 63142  1  0  0  0
 63143  1  0  0  0
 64144  1  0  0  0
 65145  1  0  0  0
 68 84  1  0  0  0
 71 72  2  0  0  0
 71 74  1  0  0  0
 71146  1  0  0  0
 72 76  1  0  0  0
 72147  1  0  0  0
 73 74  2  0  0  0
 73 75  1  0  0  0
 73148  1  0  0  0
 74 81  1  0  0  0
 75 76  2  0  0  0
 75 82  1  0  0  0
 76 85  1  0  0  0
 77 79  1  0  0  0
 77 81  1  0  0  0
 77149  1  0  0  0
 77150  1  0  0  0
 78 80  1  0  0  0
 78 81  1  0  0  0
 78151  1  0  0  0
 78152  1  0  0  0
 79 86  1  0  0  0
 79153  1  0  0  0
 79154  1  0  0  0
 80 86  1  0  0  0
 80155  1  0  0  0
 80156  1  0  0  0
 81157  1  0  0  0
 82158  1  0  0  0
 82159  1  0  0  0
 82160  1  0  0  0
 83 84  1  0  0  0
 83161  1  0  0  0
 83162  1  0  0  0
 83 86  1  0  0  0
 84163  1  0  0  0
 84164  1  0  0  0
 85165  1  0  0  0
 86166  1  0  0  0
M  CHG  1  86   1
M  ISO  4   1 100  68 101  84 101  85 100
M  END
> <chiral flag>
0

> <version>
0

> <s_m_source_file>
/data/baiqing/PycharmProjects/Reinvent-master-3.2/result/LINK_invent/BTK/process_docking_weight1_custom_sum_contain_oxygen_bond_distance_aromatic_linkinvent_7_9_3/rearranged_h_0125.sdf

> <i_m_source_file_index>
96

> <r_mmod_Potential_Energy-OPLS-2005>
-136.557846069336

> <r_mmod_Stretch_Energy-OPLS-2005>
38.6461563110352

> <r_mmod_Bend_Energy-OPLS-2005>
104.562080383301

> <r_mmod_Torsional_Energy-OPLS-2005>
257.339324951172

> <r_mmod_Improper_Torsional_Energy-OPLS-2005>
2.97801494598389

> <r_mmod_Van_der_Waal_Energy-OPLS-2005>
159.07421875

> <r_mmod_Electrostatic_Energy-OPLS-2005>
-291.661376953125

> <r_mmod_Solvation_Energy-OPLS-2005>
-417.758941650391

> <b_mmod_Minimization_Converged-OPLS-2005>
0

> <r_mmod_RMS_Derivative-OPLS-2005>
0.651695370674133

$$$$
