0
                    3D
 Structure written by MMmdl.
161169  0  0  1  0            999 V2000
  -30.7477  -14.4281   20.5481 C   0  0  0  0  0  0
  -30.4042  -12.2670   19.4185 C   0  0  0  0  0  0
  -29.4888  -12.5044   18.2032 C   0  0  0  0  0  0
  -28.0032  -12.4027   18.6061 C   0  0  0  0  0  0
  -27.6654  -13.2151   19.8879 C   0  0  2  0  0  0
  -28.7158  -12.9925   21.0020 C   0  0  0  0  0  0
  -25.2615  -13.8190   20.5723 C   0  0  0  0  0  0
  -24.1871  -13.0437   20.9209 C   0  0  0  0  0  0
  -24.6429  -11.6922   20.8759 C   0  0  0  0  0  0
  -23.9083  -10.4305   21.0406 C   0  0  0  0  0  0
  -24.3638   -9.4229   21.9175 C   0  0  0  0  0  0
  -23.6314   -8.2263   22.0737 C   0  0  0  0  0  0
  -22.4272   -8.0312   21.3544 C   0  0  0  0  0  0
  -21.9927   -9.0269   20.4626 C   0  0  0  0  0  0
  -22.7264  -10.2150   20.3046 C   0  0  0  0  0  0
  -21.6848   -6.0770   22.5268 C   0  0  0  0  0  0
  -21.4005   -6.5656   23.8217 C   0  0  0  0  0  0
  -21.3685   -5.6795   24.9171 C   0  0  0  0  0  0
  -21.6048   -4.3051   24.7230 C   0  0  0  0  0  0
  -21.8820   -3.8178   23.4338 C   0  0  0  0  0  0
  -21.9206   -4.6999   22.3405 C   0  0  0  0  0  0
  -22.7923  -13.5234   21.1895 C   0  0  0  0  0  0
  -22.1666   -4.2201   21.0983 F   0  0  0  0  0  0
  -21.5656   -3.4529   25.7746 F   0  0  0  0  0  0
  -30.0437  -13.2703   20.4287 N   0  0  0  0  0  0
  -26.3062  -12.9369   20.3488 N   0  0  0  0  0  0
  -25.9347  -11.6513   20.5832 N   0  0  0  0  0  0
  -22.0557  -12.8148   22.0421 N   0  0  0  0  0  0
  -25.4333  -15.1892   20.4109 N   0  0  0  0  0  0
  -31.8714  -14.5860   20.0696 O   0  0  0  0  0  0
  -21.6634   -6.8891   21.4228 O   0  0  0  0  0  0
  -22.3611  -14.5577   20.6830 O   0  0  0  0  0  0
  -24.6108  -31.8695   23.2148 C   0  0  0  0  0  0
  -25.8995  -32.4838   23.8439 C   0  0  1  0  0  0
  -27.2404  -27.4576   20.0645 C   0  0  0  0  0  0
  -25.5861  -33.8649   24.2363 N   0  0  0  0  0  0
  -23.3977  -30.4938   21.5567 C   0  0  2  0  0  0
  -24.8381  -28.9518   20.1254 C   0  0  0  0  0  0
  -22.7344  -29.4683   22.5041 C   0  0  0  0  0  0
  -18.0268  -28.1407   22.8501 C   0  0  0  0  0  0
  -24.1466  -36.7308   23.2630 C   0  0  0  0  0  0
  -25.9202  -30.8359   21.3597 C   0  0  0  0  0  0
  -25.9972  -29.4681   20.7165 C   0  0  0  0  0  0
  -27.1981  -28.7279   20.6842 C   0  0  0  0  0  0
  -26.0578  -26.9476   19.4858 C   0  0  0  0  0  0
  -24.8585  -27.6847   19.5183 C   0  0  0  0  0  0
  -23.5976  -29.8131   20.1773 C   0  0  0  0  0  0
  -25.4097  -36.3117   24.0331 C   0  0  1  0  0  0
  -20.5830  -28.3663   23.1389 C   0  0  2  0  0  0
  -20.6770  -26.9423   22.5446 C   0  0  0  0  0  0
  -19.5763  -26.6425   21.5224 C   0  0  0  0  0  0
  -18.1924  -26.7986   22.1622 C   0  0  0  0  0  0
  -19.1492  -28.8857   23.2965 C   0  0  0  0  0  0
  -18.9438  -30.1477   23.8967 C   0  0  0  0  0  0
  -17.6438  -30.6611   24.0574 C   0  0  0  0  0  0
  -25.9019  -34.9470   23.5139 C   0  0  0  0  0  0
  -16.5336  -29.9086   23.6359 C   0  0  0  0  0  0
  -16.7255  -28.6502   23.0376 C   0  0  0  0  0  0
  -26.4437  -31.6605   25.0735 C   0  0  0  0  0  0
  -25.3716  -31.3596   26.1444 C   0  0  0  0  0  0
  -27.0297  -30.3073   24.6088 C   0  0  0  0  0  0
  -27.6093  -32.4234   25.7456 C   0  0  0  0  0  0
  -27.5570  -37.1777   24.8474 C   0  0  0  0  0  0
  -21.4067  -29.3027   22.3769 N   0  0  0  0  0  0
  -26.4291  -37.3800   23.9426 N   0  0  0  0  0  0
  -24.6636  -31.0786   22.1050 N   0  0  0  0  0  0
  -23.4119  -28.8222   23.3104 O   0  0  0  0  0  0
  -28.4595  -26.8342   19.9176 O   0  0  0  0  0  0
  -26.5552  -34.8903   22.4685 O   0  0  0  0  0  0
  -23.5339  -32.1429   23.7576 O   0  0  0  0  0  0
  -29.0806  -20.5807   19.2348 C   0  0  0  0  0  0
  -30.1840  -21.6824   21.0670 C   0  0  0  0  0  0
  -29.9793  -20.5110   20.3162 C   0  0  0  0  0  0
  -28.4451  -21.8104   18.9373 C   0  0  0  0  0  0
  -28.7642  -22.9528   19.7198 C   0  0  0  0  0  0
  -26.1249  -21.1463   18.1249 C   0  0  0  0  0  0
  -30.7587  -19.2414   20.6698 C   0  0  0  0  0  0
  -27.4438  -21.8536   17.7855 C   0  0  0  0  0  0
  -28.1996  -24.3514   19.4070 C   0  0  0  0  0  0
  -30.0129  -17.8978   20.4908 C   0  0  0  0  0  0
  -30.6524  -16.7864   21.3619 C   0  0  0  0  0  0
  -28.6660  -25.4876   20.3552 C   0  0  0  0  0  0
  -29.6069  -22.8638   20.7739 N   0  0  0  0  0  0
  -30.0900  -15.4520   21.1155 N   0  0  0  0  0  0
  -31.4547  -12.3125   19.1245 H   0  0  0  0  0  0
  -30.2452  -11.2625   19.8130 H   0  0  0  0  0  0
  -29.7093  -11.7794   17.4177 H   0  0  0  0  0  0
  -29.6999  -13.4879   17.7784 H   0  0  0  0  0  0
  -27.7588  -11.3487   18.7514 H   0  0  0  0  0  0
  -27.3749  -12.7382   17.7797 H   0  0  0  0  0  0
  -27.7025  -14.2713   19.6213 H   0  0  0  0  0  0
  -28.6761  -11.9642   21.3592 H   0  0  0  0  0  0
  -28.4987  -13.6043   21.8779 H   0  0  0  0  0  0
  -25.2785   -9.5727   22.4739 H   0  0  0  0  0  0
  -24.0078   -7.4644   22.7410 H   0  0  0  0  0  0
  -21.0891   -8.8739   19.8894 H   0  0  0  0  0  0
  -22.3703  -10.9677   19.6160 H   0  0  0  0  0  0
  -21.1928   -7.6150   23.9724 H   0  0  0  0  0  0
  -21.1518   -6.0525   25.9074 H   0  0  0  0  0  0
  -22.0573   -2.7647   23.2811 H   0  0  0  0  0  0
  -22.4171  -11.9776   22.4738 H   0  0  0  0  0  0
  -21.1170  -13.1142   22.2617 H   0  0  0  0  0  0
  -24.6703  -15.8477   20.5254 H   0  0  0  0  0  0
  -26.2944  -15.6246   20.1050 H   0  0  0  0  0  0
  -26.7047  -32.5496   23.1208 H   0  0  0  0  0  0
  -25.0068  -33.9896   25.0529 H   0  0  0  0  0  0
  -22.6887  -31.3101   21.4158 H   0  0  0  0  0  0
  -23.3761  -35.9611   23.3305 H   0  0  0  0  0  0
  -24.3581  -36.8941   22.2054 H   0  0  0  0  0  0
  -23.7192  -37.6497   23.6655 H   0  0  0  0  0  0
  -26.0108  -31.5931   20.5808 H   0  0  0  0  0  0
  -26.8192  -30.9080   21.9619 H   0  0  0  0  0  0
  -28.1017  -29.1401   21.1109 H   0  0  0  0  0  0
  -26.0530  -26.0088   18.9625 H   0  0  0  0  0  0
  -23.9659  -27.2840   19.0594 H   0  0  0  0  0  0
  -23.6908  -30.5787   19.4069 H   0  0  0  0  0  0
  -22.7187  -29.2254   19.8997 H   0  0  0  0  0  0
  -25.1279  -36.2007   25.0835 H   0  0  0  0  0  0
  -20.9929  -28.3200   24.1512 H   0  0  0  0  0  0
  -20.5736  -26.2228   23.3590 H   0  0  0  0  0  0
  -21.6631  -26.7533   22.1200 H   0  0  0  0  0  0
  -19.6908  -25.6330   21.1235 H   0  0  0  0  0  0
  -19.6739  -27.3256   20.6771 H   0  0  0  0  0  0
  -17.4223  -26.6787   21.3978 H   0  0  0  0  0  0
  -18.0288  -26.0127   22.9015 H   0  0  0  0  0  0
  -19.7907  -30.7306   24.2321 H   0  0  0  0  0  0
  -17.4986  -31.6304   24.5149 H   0  0  0  0  0  0
  -15.5327  -30.3001   23.7692 H   0  0  0  0  0  0
  -15.8664  -28.0844   22.7083 H   0  0  0  0  0  0
  -24.6033  -30.6779   25.7742 H   0  0  0  0  0  0
  -24.8702  -32.2687   26.4788 H   0  0  0  0  0  0
  -25.8087  -30.8860   27.0259 H   0  0  0  0  0  0
  -26.2865  -29.6797   24.1166 H   0  0  0  0  0  0
  -27.4134  -29.7295   25.4520 H   0  0  0  0  0  0
  -27.8644  -30.4446   23.9216 H   0  0  0  0  0  0
  -27.2878  -33.3628   26.1964 H   0  0  0  0  0  0
  -28.3955  -32.6606   25.0261 H   0  0  0  0  0  0
  -28.0692  -31.8337   26.5410 H   0  0  0  0  0  0
  -28.2554  -38.0089   24.7587 H   0  0  0  0  0  0
  -28.1080  -36.2634   24.6248 H   0  0  0  0  0  0
  -27.2292  -37.1400   25.8866 H   0  0  0  0  0  0
  -20.9175  -29.8565   21.6873 H   0  0  0  0  0  0
  -26.0167  -38.2866   24.1476 H   0  0  0  0  0  0
  -28.8751  -19.7040   18.6365 H   0  0  0  0  0  0
  -30.8501  -21.6880   21.9158 H   0  0  0  0  0  0
  -25.4512  -21.1511   17.2675 H   0  0  0  0  0  0
  -25.5966  -21.6351   18.9435 H   0  0  0  0  0  0
  -26.2900  -20.1096   18.4163 H   0  0  0  0  0  0
  -31.0969  -19.3283   21.7081 H   0  0  0  0  0  0
  -31.6758  -19.2334   20.0737 H   0  0  0  0  0  0
  -27.8955  -21.3746   16.9144 H   0  0  0  0  0  0
  -27.2256  -22.8772   17.4834 H   0  0  0  0  0  0
  -27.1148  -24.2803   19.4249 H   0  0  0  0  0  0
  -28.4818  -24.6088   18.3854 H   0  0  0  0  0  0
  -30.0197  -17.6170   19.4329 H   0  0  0  0  0  0
  -28.9645  -18.0066   20.7793 H   0  0  0  0  0  0
  -30.4845  -17.0106   22.4168 H   0  0  0  0  0  0
  -31.7383  -16.7891   21.2347 H   0  0  0  0  0  0
  -29.7522  -25.4351   20.4313 H   0  0  0  0  0  0
  -28.2784  -25.3450   21.3633 H   0  0  0  0  0  0
  -29.1365  -15.2834   21.3995 H   0  0  0  0  0  0
  1 25  1  0  0  0
  1 30  2  0  0  0
  1 84  1  0  0  0
  2  3  1  0  0  0
  2 25  1  0  0  0
  2 85  1  0  0  0
  2 86  1  0  0  0
  3  4  1  0  0  0
  3 87  1  0  0  0
  3 88  1  0  0  0
  4  5  1  0  0  0
  4 89  1  0  0  0
  4 90  1  0  0  0
  5  6  1  0  0  0
  5 26  1  0  0  0
  5 91  1  0  0  0
  6 25  1  0  0  0
  6 92  1  0  0  0
  6 93  1  0  0  0
  7  8  2  0  0  0
  7 26  1  0  0  0
  7 29  1  0  0  0
  8  9  1  0  0  0
  8 22  1  0  0  0
  9 10  1  0  0  0
  9 27  2  0  0  0
 10 11  2  0  0  0
 10 15  1  0  0  0
 11 12  1  0  0  0
 11 94  1  0  0  0
 12 13  2  0  0  0
 12 95  1  0  0  0
 13 14  1  0  0  0
 13 31  1  0  0  0
 14 15  2  0  0  0
 14 96  1  0  0  0
 15 97  1  0  0  0
 16 17  2  0  0  0
 16 21  1  0  0  0
 16 31  1  0  0  0
 17 18  1  0  0  0
 17 98  1  0  0  0
 18 19  2  0  0  0
 18 99  1  0  0  0
 19 20  1  0  0  0
 19 24  1  0  0  0
 20 21  2  0  0  0
 20100  1  0  0  0
 21 23  1  0  0  0
 22 28  1  0  0  0
 22 32  2  0  0  0
 26 27  1  0  0  0
 28101  1  0  0  0
 28102  1  0  0  0
 29103  1  0  0  0
 29104  1  0  0  0
 33 34  1  0  0  0
 33 66  1  0  0  0
 33 70  2  0  0  0
 34 36  1  0  0  0
 34 59  1  0  0  0
 34105  1  0  0  0
 35 44  2  0  0  0
 35 45  1  0  0  0
 35 68  1  0  0  0
 36 56  1  0  0  0
 36106  1  0  0  0
 37 39  1  0  0  0
 37 47  1  0  0  0
 37 66  1  0  0  0
 37107  1  0  0  0
 38 43  2  0  0  0
 38 46  1  0  0  0
 38 47  1  0  0  0
 39 64  1  0  0  0
 39 67  2  0  0  0
 40 52  1  0  0  0
 40 53  2  0  0  0
 40 58  1  0  0  0
 41108  1  0  0  0
 41109  1  0  0  0
 41110  1  0  0  0
 41 48  1  0  0  0
 42 43  1  0  0  0
 42 66  1  0  0  0
 42111  1  0  0  0
 42112  1  0  0  0
 43 44  1  0  0  0
 44113  1  0  0  0
 45 46  2  0  0  0
 45114  1  0  0  0
 46115  1  0  0  0
 47116  1  0  0  0
 47117  1  0  0  0
 48 56  1  0  0  0
 48 65  1  0  0  0
 48118  1  0  0  0
 49 50  1  0  0  0
 49 53  1  0  0  0
 49 64  1  0  0  0
 49119  1  0  0  0
 50 51  1  0  0  0
 50120  1  0  0  0
 50121  1  0  0  0
 51 52  1  0  0  0
 51122  1  0  0  0
 51123  1  0  0  0
 52124  1  0  0  0
 52125  1  0  0  0
 53 54  1  0  0  0
 54 55  2  0  0  0
 54126  1  0  0  0
 55 57  1  0  0  0
 55127  1  0  0  0
 56 69  2  0  0  0
 57 58  2  0  0  0
 57128  1  0  0  0
 58129  1  0  0  0
 59 60  1  0  0  0
 59 61  1  0  0  0
 59 62  1  0  0  0
 60130  1  0  0  0
 60131  1  0  0  0
 60132  1  0  0  0
 61133  1  0  0  0
 61134  1  0  0  0
 61135  1  0  0  0
 62136  1  0  0  0
 62137  1  0  0  0
 62138  1  0  0  0
 63 65  1  0  0  0
 63139  1  0  0  0
 63140  1  0  0  0
 63141  1  0  0  0
 64142  1  0  0  0
 65143  1  0  0  0
 68 82  1  0  0  0
 71 73  2  0  0  0
 71 74  1  0  0  0
 71144  1  0  0  0
 72 73  1  0  0  0
 72 83  2  0  0  0
 72145  1  0  0  0
 73 77  1  0  0  0
 74 75  2  0  0  0
 74 78  1  0  0  0
 75 79  1  0  0  0
 75 83  1  0  0  0
 76 78  1  0  0  0
 76146  1  0  0  0
 76147  1  0  0  0
 76148  1  0  0  0
 77 80  1  0  0  0
 77149  1  0  0  0
 77150  1  0  0  0
 78151  1  0  0  0
 78152  1  0  0  0
 79 82  1  0  0  0
 79153  1  0  0  0
 79154  1  0  0  0
 80 81  1  0  0  0
 80155  1  0  0  0
 80156  1  0  0  0
 81 84  1  0  0  0
 81157  1  0  0  0
 81158  1  0  0  0
 82159  1  0  0  0
 82160  1  0  0  0
 84161  1  0  0  0
M  ISO  4   1 100  68 101  82 101  84 100
M  END
> <chiral flag>
0

> <version>
0

> <s_m_source_file>
/data/baiqing/PycharmProjects/Reinvent-master-3.2/result/LINK_invent/BTK/process_docking_weight1_custom_sum_contain_oxygen_bond_distance_aromatic_linkinvent_7_9_3/rearranged_h_0038.sdf

> <i_m_source_file_index>
1

> <r_mmod_Potential_Energy-OPLS-2005>
-168.00700378418

> <r_mmod_Stretch_Energy-OPLS-2005>
35.62109375

> <r_mmod_Bend_Energy-OPLS-2005>
108.163566589355

> <r_mmod_Torsional_Energy-OPLS-2005>
219.164596557617

> <r_mmod_Improper_Torsional_Energy-OPLS-2005>
3.36258411407471

> <r_mmod_Van_der_Waal_Energy-OPLS-2005>
157.458862304688

> <r_mmod_Electrostatic_Energy-OPLS-2005>
-484.608764648438

> <r_mmod_Solvation_Energy-OPLS-2005>
-220.302871704102

> <b_mmod_Minimization_Converged-OPLS-2005>
0

> <r_mmod_RMS_Derivative-OPLS-2005>
7.12017250061035

$$$$
1
                    3D
 Structure written by MMmdl.
167175  0  0  1  0            999 V2000
  -30.7450  -14.3958   20.5975 C   0  0  0  0  0  0
  -30.4113  -12.2688   19.4136 C   0  0  0  0  0  0
  -29.4899  -12.5063   18.2007 C   0  0  0  0  0  0
  -28.0097  -12.3836   18.6080 C   0  0  0  0  0  0
  -27.6664  -13.2041   19.8798 C   0  0  2  0  0  0
  -28.7067  -12.9638   20.9975 C   0  0  0  0  0  0
  -25.2637  -13.8169   20.5674 C   0  0  0  0  0  0
  -24.1884  -13.0445   20.9173 C   0  0  0  0  0  0
  -24.6415  -11.6907   20.8699 C   0  0  0  0  0  0
  -23.9067  -10.4289   21.0369 C   0  0  0  0  0  0
  -24.3617   -9.4225   21.9167 C   0  0  0  0  0  0
  -23.6308   -8.2250   22.0743 C   0  0  0  0  0  0
  -22.4285   -8.0271   21.3531 C   0  0  0  0  0  0
  -21.9905   -9.0251   20.4638 C   0  0  0  0  0  0
  -22.7220  -10.2143   20.3043 C   0  0  0  0  0  0
  -21.6865   -6.0733   22.5280 C   0  0  0  0  0  0
  -21.4004   -6.5645   23.8208 C   0  0  0  0  0  0
  -21.3668   -5.6797   24.9168 C   0  0  0  0  0  0
  -21.6057   -4.3060   24.7216 C   0  0  0  0  0  0
  -21.8822   -3.8151   23.4336 C   0  0  0  0  0  0
  -21.9197   -4.6962   22.3397 C   0  0  0  0  0  0
  -22.7904  -13.5234   21.1847 C   0  0  0  0  0  0
  -22.1665   -4.2150   21.0966 F   0  0  0  0  0  0
  -21.5639   -3.4537   25.7724 F   0  0  0  0  0  0
  -30.0420  -13.2456   20.4457 N   0  0  0  0  0  0
  -26.3065  -12.9320   20.3385 N   0  0  0  0  0  0
  -25.9341  -11.6480   20.5753 N   0  0  0  0  0  0
  -22.0544  -12.8227   22.0397 N   0  0  0  0  0  0
  -25.4402  -15.1878   20.4060 N   0  0  0  0  0  0
  -31.8692  -14.5671   20.1217 O   0  0  0  0  0  0
  -21.6650   -6.8872   21.4238 O   0  0  0  0  0  0
  -22.3570  -14.5544   20.6701 O   0  0  0  0  0  0
  -24.6079  -31.8730   23.2136 C   0  0  0  0  0  0
  -25.8994  -32.4858   23.8424 C   0  0  1  0  0  0
  -27.2591  -27.4980   20.0993 C   0  0  0  0  0  0
  -25.5868  -33.8653   24.2363 N   0  0  0  0  0  0
  -23.3928  -30.4943   21.5530 C   0  0  2  0  0  0
  -24.8432  -28.9634   20.1194 C   0  0  0  0  0  0
  -22.7381  -29.4676   22.5031 C   0  0  0  0  0  0
  -18.0267  -28.1372   22.8498 C   0  0  0  0  0  0
  -24.1476  -36.7343   23.2640 C   0  0  0  0  0  0
  -25.9099  -30.8635   21.3491 C   0  0  0  0  0  0
  -25.9942  -29.4970   20.7100 C   0  0  0  0  0  0
  -27.2015  -28.7756   20.7027 C   0  0  0  0  0  0
  -26.0911  -26.9655   19.5148 C   0  0  0  0  0  0
  -24.8830  -27.6912   19.5193 C   0  0  0  0  0  0
  -23.5987  -29.8205   20.1678 C   0  0  0  0  0  0
  -25.4092  -36.3143   24.0350 C   0  0  1  0  0  0
  -20.5856  -28.3650   23.1345 C   0  0  2  0  0  0
  -20.6754  -26.9392   22.5431 C   0  0  0  0  0  0
  -19.5738  -26.6385   21.5217 C   0  0  0  0  0  0
  -18.1913  -26.7923   22.1618 C   0  0  0  0  0  0
  -19.1514  -28.8826   23.2921 C   0  0  0  0  0  0
  -18.9441  -30.1434   23.8931 C   0  0  0  0  0  0
  -17.6445  -30.6579   24.0567 C   0  0  0  0  0  0
  -25.9014  -34.9499   23.5156 C   0  0  0  0  0  0
  -16.5337  -29.9089   23.6315 C   0  0  0  0  0  0
  -16.7255  -28.6501   23.0341 C   0  0  0  0  0  0
  -26.4457  -31.6613   25.0718 C   0  0  0  0  0  0
  -25.3755  -31.3686   26.1494 C   0  0  0  0  0  0
  -27.0260  -30.3073   24.5996 C   0  0  0  0  0  0
  -27.6060  -32.4313   25.7461 C   0  0  0  0  0  0
  -27.5584  -37.1818   24.8464 C   0  0  0  0  0  0
  -21.4119  -29.3022   22.3761 N   0  0  0  0  0  0
  -26.4291  -37.3817   23.9417 N   0  0  0  0  0  0
  -24.6556  -31.0896   22.0997 N   0  0  0  0  0  0
  -23.4186  -28.8232   23.3063 O   0  0  0  0  0  0
  -28.3974  -26.7289   20.0418 O   0  0  0  0  0  0
  -26.5581  -34.8947   22.4719 O   0  0  0  0  0  0
  -23.5288  -32.1436   23.7585 O   0  0  0  0  0  0
  -32.7904  -24.4216   20.3477 C   0  0  0  0  0  0
  -30.7434  -25.3014   19.4220 C   0  0  0  0  0  0
  -31.7666  -24.3416   19.3860 C   0  0  0  0  0  0
  -32.7350  -25.4436   21.3126 C   0  0  0  0  0  0
  -30.7560  -26.2806   20.4291 C   0  0  0  0  0  0
  -33.8008  -25.5527   22.3822 C   0  0  0  0  0  0
  -31.7290  -23.2397   18.3479 C   0  0  0  0  0  0
  -29.6223  -27.2875   20.5208 C   0  0  0  0  0  0
  -31.7231  -21.8331   18.9666 C   0  0  0  0  0  0
  -31.1394  -20.8013   17.9925 C   0  0  0  0  0  0
  -31.4216  -19.3424   18.3637 C   0  0  0  0  0  0
  -30.8751  -18.9096   19.7341 C   0  0  0  0  0  0
  -30.7181  -17.3859   19.7907 C   0  0  0  0  0  0
  -30.4885  -16.8088   21.2049 C   0  0  0  0  0  0
  -31.7380  -26.3552   21.3581 N   0  0  0  0  0  0
  -30.0709  -15.4041   21.1680 N   0  0  0  0  0  0
  -31.4591  -12.3423   19.1175 H   0  0  0  0  0  0
  -30.2815  -11.2562   19.8008 H   0  0  0  0  0  0
  -29.7170  -11.7956   17.4048 H   0  0  0  0  0  0
  -29.6755  -13.5004   17.7897 H   0  0  0  0  0  0
  -27.7975  -11.3280   18.7787 H   0  0  0  0  0  0
  -27.3668  -12.6916   17.7827 H   0  0  0  0  0  0
  -27.7204  -14.2568   19.6031 H   0  0  0  0  0  0
  -28.6696  -11.9253   21.3290 H   0  0  0  0  0  0
  -28.4766  -13.5596   21.8815 H   0  0  0  0  0  0
  -25.2754   -9.5725   22.4760 H   0  0  0  0  0  0
  -24.0030   -7.4638   22.7458 H   0  0  0  0  0  0
  -21.0839   -8.8755   19.8940 H   0  0  0  0  0  0
  -22.3647  -10.9691   19.6169 H   0  0  0  0  0  0
  -21.1972   -7.6144   23.9707 H   0  0  0  0  0  0
  -21.1500   -6.0522   25.9082 H   0  0  0  0  0  0
  -22.0593   -2.7613   23.2835 H   0  0  0  0  0  0
  -22.4125  -11.9874   22.4787 H   0  0  0  0  0  0
  -21.1169  -13.1274   22.2603 H   0  0  0  0  0  0
  -24.6802  -15.8502   20.5164 H   0  0  0  0  0  0
  -26.2997  -15.6209   20.0903 H   0  0  0  0  0  0
  -26.7081  -32.5618   23.1219 H   0  0  0  0  0  0
  -25.0015  -33.9817   25.0506 H   0  0  0  0  0  0
  -22.6783  -31.3089   21.4147 H   0  0  0  0  0  0
  -23.3729  -35.9686   23.3317 H   0  0  0  0  0  0
  -24.3576  -36.8938   22.2052 H   0  0  0  0  0  0
  -23.7231  -37.6560   23.6633 H   0  0  0  0  0  0
  -25.9949  -31.6215   20.5691 H   0  0  0  0  0  0
  -26.8084  -30.9397   21.9493 H   0  0  0  0  0  0
  -28.0704  -29.2259   21.1592 H   0  0  0  0  0  0
  -26.1231  -25.9895   19.0499 H   0  0  0  0  0  0
  -23.9988  -27.2692   19.0612 H   0  0  0  0  0  0
  -23.7008  -30.5934   19.4048 H   0  0  0  0  0  0
  -22.7256  -29.2342   19.8762 H   0  0  0  0  0  0
  -25.1259  -36.2026   25.0843 H   0  0  0  0  0  0
  -20.9943  -28.3201   24.1466 H   0  0  0  0  0  0
  -20.5647  -26.2255   23.3611 H   0  0  0  0  0  0
  -21.6627  -26.7435   22.1229 H   0  0  0  0  0  0
  -19.6897  -25.6303   21.1228 H   0  0  0  0  0  0
  -19.6682  -27.3212   20.6763 H   0  0  0  0  0  0
  -17.4190  -26.6692   21.4009 H   0  0  0  0  0  0
  -18.0297  -26.0055   22.8999 H   0  0  0  0  0  0
  -19.7922  -30.7237   24.2321 H   0  0  0  0  0  0
  -17.5003  -31.6261   24.5166 H   0  0  0  0  0  0
  -15.5340  -30.2998   23.7620 H   0  0  0  0  0  0
  -15.8657  -28.0831   22.7036 H   0  0  0  0  0  0
  -24.5923  -30.7029   25.7846 H   0  0  0  0  0  0
  -24.8945  -32.2827   26.4991 H   0  0  0  0  0  0
  -25.8146  -30.8835   27.0221 H   0  0  0  0  0  0
  -26.2742  -29.6853   24.1108 H   0  0  0  0  0  0
  -27.4142  -29.7290   25.4394 H   0  0  0  0  0  0
  -27.8541  -30.4445   23.9029 H   0  0  0  0  0  0
  -27.2696  -33.3589   26.2109 H   0  0  0  0  0  0
  -28.3822  -32.6910   25.0248 H   0  0  0  0  0  0
  -28.0779  -31.8387   26.5311 H   0  0  0  0  0  0
  -28.2618  -38.0101   24.7509 H   0  0  0  0  0  0
  -28.1060  -36.2638   24.6277 H   0  0  0  0  0  0
  -27.2315  -37.1464   25.8872 H   0  0  0  0  0  0
  -20.9274  -29.8741   21.6982 H   0  0  0  0  0  0
  -26.0194  -38.2904   24.1413 H   0  0  0  0  0  0
  -33.5970  -23.7017   20.3538 H   0  0  0  0  0  0
  -29.9363  -25.2788   18.7028 H   0  0  0  0  0  0
  -34.7576  -25.1851   22.0112 H   0  0  0  0  0  0
  -33.5246  -24.9579   23.2529 H   0  0  0  0  0  0
  -33.9392  -26.5854   22.7029 H   0  0  0  0  0  0
  -32.5697  -23.3528   17.6631 H   0  0  0  0  0  0
  -30.8326  -23.3721   17.7413 H   0  0  0  0  0  0
  -29.8892  -28.1666   19.9310 H   0  0  0  0  0  0
  -29.5178  -27.5965   21.5619 H   0  0  0  0  0  0
  -31.1122  -21.8333   19.8710 H   0  0  0  0  0  0
  -32.7350  -21.5640   19.2741 H   0  0  0  0  0  0
  -31.5436  -20.9826   16.9955 H   0  0  0  0  0  0
  -30.0606  -20.9491   17.9099 H   0  0  0  0  0  0
  -32.4953  -19.1486   18.3198 H   0  0  0  0  0  0
  -30.9746  -18.7200   17.5876 H   0  0  0  0  0  0
  -29.9055  -19.3736   19.9202 H   0  0  0  0  0  0
  -31.5453  -19.2556   20.5233 H   0  0  0  0  0  0
  -31.6172  -16.9423   19.3608 H   0  0  0  0  0  0
  -29.8966  -17.0972   19.1333 H   0  0  0  0  0  0
  -29.7152  -17.3812   21.7192 H   0  0  0  0  0  0
  -31.3958  -16.9002   21.8045 H   0  0  0  0  0  0
  -29.1477  -15.1898   21.5160 H   0  0  0  0  0  0
  1 25  1  0  0  0
  1 30  2  0  0  0
  1 86  1  0  0  0
  2  3  1  0  0  0
  2 25  1  0  0  0
  2 87  1  0  0  0
  2 88  1  0  0  0
  3  4  1  0  0  0
  3 89  1  0  0  0
  3 90  1  0  0  0
  4  5  1  0  0  0
  4 91  1  0  0  0
  4 92  1  0  0  0
  5  6  1  0  0  0
  5 26  1  0  0  0
  5 93  1  0  0  0
  6 25  1  0  0  0
  6 94  1  0  0  0
  6 95  1  0  0  0
  7  8  2  0  0  0
  7 26  1  0  0  0
  7 29  1  0  0  0
  8  9  1  0  0  0
  8 22  1  0  0  0
  9 10  1  0  0  0
  9 27  2  0  0  0
 10 11  2  0  0  0
 10 15  1  0  0  0
 11 12  1  0  0  0
 11 96  1  0  0  0
 12 13  2  0  0  0
 12 97  1  0  0  0
 13 14  1  0  0  0
 13 31  1  0  0  0
 14 15  2  0  0  0
 14 98  1  0  0  0
 15 99  1  0  0  0
 16 17  2  0  0  0
 16 21  1  0  0  0
 16 31  1  0  0  0
 17 18  1  0  0  0
 17100  1  0  0  0
 18 19  2  0  0  0
 18101  1  0  0  0
 19 20  1  0  0  0
 19 24  1  0  0  0
 20 21  2  0  0  0
 20102  1  0  0  0
 21 23  1  0  0  0
 22 28  1  0  0  0
 22 32  2  0  0  0
 26 27  1  0  0  0
 28103  1  0  0  0
 28104  1  0  0  0
 29105  1  0  0  0
 29106  1  0  0  0
 33 34  1  0  0  0
 33 66  1  0  0  0
 33 70  2  0  0  0
 34 36  1  0  0  0
 34 59  1  0  0  0
 34107  1  0  0  0
 35 44  2  0  0  0
 35 45  1  0  0  0
 35 68  1  0  0  0
 36 56  1  0  0  0
 36108  1  0  0  0
 37 39  1  0  0  0
 37 47  1  0  0  0
 37 66  1  0  0  0
 37109  1  0  0  0
 38 43  2  0  0  0
 38 46  1  0  0  0
 38 47  1  0  0  0
 39 64  1  0  0  0
 39 67  2  0  0  0
 40 52  1  0  0  0
 40 53  2  0  0  0
 40 58  1  0  0  0
 41110  1  0  0  0
 41111  1  0  0  0
 41112  1  0  0  0
 41 48  1  0  0  0
 42 43  1  0  0  0
 42 66  1  0  0  0
 42113  1  0  0  0
 42114  1  0  0  0
 43 44  1  0  0  0
 44115  1  0  0  0
 45 46  2  0  0  0
 45116  1  0  0  0
 46117  1  0  0  0
 47118  1  0  0  0
 47119  1  0  0  0
 48 56  1  0  0  0
 48 65  1  0  0  0
 48120  1  0  0  0
 49 50  1  0  0  0
 49 53  1  0  0  0
 49 64  1  0  0  0
 49121  1  0  0  0
 50 51  1  0  0  0
 50122  1  0  0  0
 50123  1  0  0  0
 51 52  1  0  0  0
 51124  1  0  0  0
 51125  1  0  0  0
 52126  1  0  0  0
 52127  1  0  0  0
 53 54  1  0  0  0
 54 55  2  0  0  0
 54128  1  0  0  0
 55 57  1  0  0  0
 55129  1  0  0  0
 56 69  2  0  0  0
 57 58  2  0  0  0
 57130  1  0  0  0
 58131  1  0  0  0
 59 60  1  0  0  0
 59 61  1  0  0  0
 59 62  1  0  0  0
 60132  1  0  0  0
 60133  1  0  0  0
 60134  1  0  0  0
 61135  1  0  0  0
 61136  1  0  0  0
 61137  1  0  0  0
 62138  1  0  0  0
 62139  1  0  0  0
 62140  1  0  0  0
 63 65  1  0  0  0
 63141  1  0  0  0
 63142  1  0  0  0
 63143  1  0  0  0
 64144  1  0  0  0
 65145  1  0  0  0
 68 78  1  0  0  0
 71 73  2  0  0  0
 71 74  1  0  0  0
 71146  1  0  0  0
 72 73  1  0  0  0
 72 75  2  0  0  0
 72147  1  0  0  0
 73 77  1  0  0  0
 74 76  1  0  0  0
 74 85  2  0  0  0
 75 78  1  0  0  0
 75 85  1  0  0  0
 76148  1  0  0  0
 76149  1  0  0  0
 76150  1  0  0  0
 77 79  1  0  0  0
 77151  1  0  0  0
 77152  1  0  0  0
 78153  1  0  0  0
 78154  1  0  0  0
 79 80  1  0  0  0
 79155  1  0  0  0
 79156  1  0  0  0
 80 81  1  0  0  0
 80157  1  0  0  0
 80158  1  0  0  0
 81 82  1  0  0  0
 81159  1  0  0  0
 81160  1  0  0  0
 82 83  1  0  0  0
 82161  1  0  0  0
 82162  1  0  0  0
 83 84  1  0  0  0
 83163  1  0  0  0
 83164  1  0  0  0
 84 86  1  0  0  0
 84165  1  0  0  0
 84166  1  0  0  0
 86167  1  0  0  0
M  ISO  4   1 100  68 101  78 101  86 100
M  END
> <chiral flag>
0

> <version>
0

> <s_m_source_file>
/data/baiqing/PycharmProjects/Reinvent-master-3.2/result/LINK_invent/BTK/process_docking_weight1_custom_sum_contain_oxygen_bond_distance_aromatic_linkinvent_7_9_3/rearranged_h_0038.sdf

> <i_m_source_file_index>
2

> <r_mmod_Potential_Energy-OPLS-2005>
-201.663604736328

> <r_mmod_Stretch_Energy-OPLS-2005>
30.7494411468506

> <r_mmod_Bend_Energy-OPLS-2005>
93.4388809204102

> <r_mmod_Torsional_Energy-OPLS-2005>
203.024017333984

> <r_mmod_Improper_Torsional_Energy-OPLS-2005>
3.48318815231323

> <r_mmod_Van_der_Waal_Energy-OPLS-2005>
163.744934082031

> <r_mmod_Electrostatic_Energy-OPLS-2005>
-490.056274414062

> <r_mmod_Solvation_Energy-OPLS-2005>
-214.381790161133

> <b_mmod_Minimization_Converged-OPLS-2005>
0

> <r_mmod_RMS_Derivative-OPLS-2005>
2.268874168396

$$$$
2
                    3D
 Structure written by MMmdl.
163171  0  0  1  0            999 V2000
  -30.8587  -14.2053   20.7989 C   0  0  0  0  0  0
  -30.4031  -12.2864   19.3308 C   0  0  0  0  0  0
  -29.4481  -12.5201   18.1521 C   0  0  0  0  0  0
  -27.9868  -12.3526   18.5995 C   0  0  0  0  0  0
  -27.6568  -13.1959   19.8563 C   0  0  2  0  0  0
  -28.6962  -12.9505   20.9684 C   0  0  0  0  0  0
  -25.2577  -13.8151   20.5660 C   0  0  0  0  0  0
  -24.1820  -13.0437   20.9171 C   0  0  0  0  0  0
  -24.6354  -11.6901   20.8729 C   0  0  0  0  0  0
  -23.9023  -10.4290   21.0404 C   0  0  0  0  0  0
  -24.3592   -9.4209   21.9177 C   0  0  0  0  0  0
  -23.6275   -8.2239   22.0745 C   0  0  0  0  0  0
  -22.4262   -8.0268   21.3535 C   0  0  0  0  0  0
  -21.9886   -9.0243   20.4649 C   0  0  0  0  0  0
  -22.7197  -10.2130   20.3057 C   0  0  0  0  0  0
  -21.6848   -6.0725   22.5275 C   0  0  0  0  0  0
  -21.4009   -6.5631   23.8207 C   0  0  0  0  0  0
  -21.3656   -5.6788   24.9171 C   0  0  0  0  0  0
  -21.6045   -4.3052   24.7230 C   0  0  0  0  0  0
  -21.8820   -3.8139   23.4352 C   0  0  0  0  0  0
  -21.9187   -4.6952   22.3404 C   0  0  0  0  0  0
  -22.7849  -13.5241   21.1849 C   0  0  0  0  0  0
  -22.1654   -4.2132   21.0983 F   0  0  0  0  0  0
  -21.5630   -3.4540   25.7747 F   0  0  0  0  0  0
  -30.0473  -13.1915   20.4286 N   0  0  0  0  0  0
  -26.2988  -12.9306   20.3283 N   0  0  0  0  0  0
  -25.9267  -11.6479   20.5723 N   0  0  0  0  0  0
  -22.0492  -12.8257   22.0431 N   0  0  0  0  0  0
  -25.4347  -15.1862   20.4096 N   0  0  0  0  0  0
  -31.7588  -14.6666   20.0889 O   0  0  0  0  0  0
  -21.6625   -6.8868   21.4238 O   0  0  0  0  0  0
  -22.3534  -14.5534   20.6670 O   0  0  0  0  0  0
  -24.6108  -31.8699   23.2137 C   0  0  0  0  0  0
  -25.9032  -32.4834   23.8401 C   0  0  1  0  0  0
  -27.2434  -27.4796   20.0777 C   0  0  0  0  0  0
  -25.5925  -33.8634   24.2363 N   0  0  0  0  0  0
  -23.3933  -30.4933   21.5559 C   0  0  2  0  0  0
  -24.8332  -28.9540   20.1288 C   0  0  0  0  0  0
  -22.7360  -29.4669   22.5044 C   0  0  0  0  0  0
  -18.0257  -28.1403   22.8501 C   0  0  0  0  0  0
  -24.1480  -36.7289   23.2627 C   0  0  0  0  0  0
  -25.9124  -30.8495   21.3527 C   0  0  0  0  0  0
  -25.9886  -29.4783   20.7195 C   0  0  0  0  0  0
  -27.1882  -28.7429   20.6985 C   0  0  0  0  0  0
  -26.0617  -26.9448   19.5087 C   0  0  0  0  0  0
  -24.8608  -27.6803   19.5326 C   0  0  0  0  0  0
  -23.5971  -29.8219   20.1701 C   0  0  0  0  0  0
  -25.4089  -36.3107   24.0353 C   0  0  1  0  0  0
  -20.5829  -28.3651   23.1363 C   0  0  2  0  0  0
  -20.6748  -26.9404   22.5442 C   0  0  0  0  0  0
  -19.5725  -26.6418   21.5226 C   0  0  0  0  0  0
  -18.1902  -26.7964   22.1636 C   0  0  0  0  0  0
  -19.1508  -28.8852   23.2914 C   0  0  0  0  0  0
  -18.9448  -30.1463   23.8908 C   0  0  0  0  0  0
  -17.6451  -30.6597   24.0589 C   0  0  0  0  0  0
  -25.9015  -34.9484   23.5138 C   0  0  0  0  0  0
  -16.5335  -29.9117   23.6327 C   0  0  0  0  0  0
  -16.7254  -28.6536   23.0350 C   0  0  0  0  0  0
  -26.4512  -31.6584   25.0688 C   0  0  0  0  0  0
  -25.3828  -31.3708   26.1479 C   0  0  0  0  0  0
  -27.0283  -30.3038   24.5967 C   0  0  0  0  0  0
  -27.6118  -32.4273   25.7433 C   0  0  0  0  0  0
  -27.5587  -37.1757   24.8454 C   0  0  0  0  0  0
  -21.4100  -29.3010   22.3776 N   0  0  0  0  0  0
  -26.4262  -37.3810   23.9451 N   0  0  0  0  0  0
  -24.6580  -31.0853   22.1013 N   0  0  0  0  0  0
  -23.4149  -28.8217   23.3069 O   0  0  0  0  0  0
  -28.4973  -26.9320   19.9457 O   0  0  0  0  0  0
  -26.5546  -34.8942   22.4679 O   0  0  0  0  0  0
  -23.5323  -32.1437   23.7581 O   0  0  0  0  0  0
  -28.3494  -24.6151   19.1438 C   0  0  0  0  0  0
  -28.9787  -23.3557   19.1760 C   0  0  0  0  0  0
  -30.0950  -23.2173   20.0316 C   0  0  0  0  0  0
  -28.8178  -25.6073   20.0312 C   0  0  0  0  0  0
  -28.4697  -22.2200   18.3054 C   0  0  0  0  0  0
  -30.9554  -21.9726   20.0514 C   0  0  0  0  0  0
  -30.5745  -21.0260   21.1894 C   0  0  0  0  0  0
  -31.3554  -19.7151   21.1025 C   0  0  0  0  0  0
  -31.1543  -18.8405   22.3403 C   0  0  0  0  0  0
  -31.6326  -17.4150   22.0785 C   0  0  0  0  0  0
  -31.4872  -16.5037   23.3008 C   0  0  0  0  0  0
  -31.8028  -15.0420   22.9649 C   0  0  0  0  0  0
  -30.4936  -24.2055   20.8675 N   0  0  0  0  0  0
  -29.8595  -25.3790   20.8690 N   0  0  0  0  0  0
  -30.7800  -14.4456   22.1133 N   0  0  0  0  0  0
  -31.4367  -12.4127   19.0025 H   0  0  0  0  0  0
  -30.3268  -11.2543   19.6788 H   0  0  0  0  0  0
  -29.6682  -11.8166   17.3472 H   0  0  0  0  0  0
  -29.5985  -13.5183   17.7403 H   0  0  0  0  0  0
  -27.8211  -11.2948   18.8100 H   0  0  0  0  0  0
  -27.3096  -12.6069   17.7826 H   0  0  0  0  0  0
  -27.7130  -14.2449   19.5628 H   0  0  0  0  0  0
  -28.6377  -11.9210   21.3229 H   0  0  0  0  0  0
  -28.4503  -13.5843   21.8221 H   0  0  0  0  0  0
  -25.2747   -9.5678   22.4747 H   0  0  0  0  0  0
  -23.9980   -7.4629   22.7468 H   0  0  0  0  0  0
  -21.0808   -8.8762   19.8975 H   0  0  0  0  0  0
  -22.3642  -10.9666   19.6169 H   0  0  0  0  0  0
  -21.1995   -7.6136   23.9705 H   0  0  0  0  0  0
  -21.1479   -6.0518   25.9070 H   0  0  0  0  0  0
  -22.0601   -2.7603   23.2858 H   0  0  0  0  0  0
  -22.4106  -11.9925   22.4838 H   0  0  0  0  0  0
  -21.1125  -13.1321   22.2660 H   0  0  0  0  0  0
  -24.6820  -15.8545   20.5329 H   0  0  0  0  0  0
  -26.3028  -15.6195   20.1189 H   0  0  0  0  0  0
  -26.7091  -32.5566   23.1154 H   0  0  0  0  0  0
  -25.0254  -33.9785   25.0641 H   0  0  0  0  0  0
  -22.6796  -31.3079   21.4212 H   0  0  0  0  0  0
  -23.3752  -35.9610   23.3301 H   0  0  0  0  0  0
  -24.3605  -36.8874   22.2037 H   0  0  0  0  0  0
  -23.7197  -37.6495   23.6607 H   0  0  0  0  0  0
  -25.9997  -31.6036   20.5685 H   0  0  0  0  0  0
  -26.8116  -30.9236   21.9522 H   0  0  0  0  0  0
  -28.0898  -29.1653   21.1227 H   0  0  0  0  0  0
  -26.0394  -25.9924   19.0088 H   0  0  0  0  0  0
  -23.9700  -27.2715   19.0719 H   0  0  0  0  0  0
  -23.7081  -30.5960   19.4084 H   0  0  0  0  0  0
  -22.7202  -29.2423   19.8737 H   0  0  0  0  0  0
  -25.1255  -36.1990   25.0845 H   0  0  0  0  0  0
  -20.9907  -28.3222   24.1483 H   0  0  0  0  0  0
  -20.5654  -26.2255   23.3610 H   0  0  0  0  0  0
  -21.6626  -26.7452   22.1230 H   0  0  0  0  0  0
  -19.6849  -25.6333   21.1243 H   0  0  0  0  0  0
  -19.6690  -27.3229   20.6756 H   0  0  0  0  0  0
  -17.4182  -26.6731   21.4035 H   0  0  0  0  0  0
  -18.0268  -26.0118   22.9038 H   0  0  0  0  0  0
  -19.7923  -30.7286   24.2271 H   0  0  0  0  0  0
  -17.5013  -31.6276   24.5208 H   0  0  0  0  0  0
  -15.5337  -30.3037   23.7627 H   0  0  0  0  0  0
  -15.8662  -28.0857   22.7046 H   0  0  0  0  0  0
  -24.6003  -30.7013   25.7889 H   0  0  0  0  0  0
  -24.9029  -32.2872   26.4919 H   0  0  0  0  0  0
  -25.8258  -30.8948   27.0231 H   0  0  0  0  0  0
  -26.2726  -29.6816   24.1145 H   0  0  0  0  0  0
  -27.4207  -29.7262   25.4342 H   0  0  0  0  0  0
  -27.8523  -30.4384   23.8950 H   0  0  0  0  0  0
  -27.2751  -33.3564   26.2048 H   0  0  0  0  0  0
  -28.3910  -32.6820   25.0231 H   0  0  0  0  0  0
  -28.0796  -31.8373   26.5323 H   0  0  0  0  0  0
  -28.2558  -38.0106   24.7614 H   0  0  0  0  0  0
  -28.1126  -36.2639   24.6139 H   0  0  0  0  0  0
  -27.2345  -37.1270   25.8868 H   0  0  0  0  0  0
  -20.9252  -29.8751   21.7025 H   0  0  0  0  0  0
  -26.0157  -38.2873   24.1575 H   0  0  0  0  0  0
  -27.5856  -24.8182   18.4117 H   0  0  0  0  0  0
  -27.4518  -22.4178   17.9676 H   0  0  0  0  0  0
  -28.4526  -21.2882   18.8729 H   0  0  0  0  0  0
  -29.1040  -22.0846   17.4305 H   0  0  0  0  0  0
  -31.9997  -22.2719   20.1579 H   0  0  0  0  0  0
  -30.8939  -21.4661   19.0882 H   0  0  0  0  0  0
  -29.5065  -20.8094   21.1413 H   0  0  0  0  0  0
  -30.7512  -21.5190   22.1467 H   0  0  0  0  0  0
  -32.4209  -19.9140   20.9665 H   0  0  0  0  0  0
  -31.0316  -19.1796   20.2083 H   0  0  0  0  0  0
  -30.0963  -18.8168   22.6063 H   0  0  0  0  0  0
  -31.6864  -19.2731   23.1909 H   0  0  0  0  0  0
  -32.6740  -17.4184   21.7508 H   0  0  0  0  0  0
  -31.0495  -17.0163   21.2490 H   0  0  0  0  0  0
  -30.4805  -16.5765   23.7146 H   0  0  0  0  0  0
  -32.1616  -16.8440   24.0889 H   0  0  0  0  0  0
  -31.8393  -14.4576   23.8856 H   0  0  0  0  0  0
  -32.7913  -14.9550   22.5115 H   0  0  0  0  0  0
  -30.0267  -13.9680   22.5866 H   0  0  0  0  0  0
  1 25  1  0  0  0
  1 30  2  0  0  0
  1 85  1  0  0  0
  2  3  1  0  0  0
  2 25  1  0  0  0
  2 86  1  0  0  0
  2 87  1  0  0  0
  3  4  1  0  0  0
  3 88  1  0  0  0
  3 89  1  0  0  0
  4  5  1  0  0  0
  4 90  1  0  0  0
  4 91  1  0  0  0
  5  6  1  0  0  0
  5 26  1  0  0  0
  5 92  1  0  0  0
  6 25  1  0  0  0
  6 93  1  0  0  0
  6 94  1  0  0  0
  7  8  2  0  0  0
  7 26  1  0  0  0
  7 29  1  0  0  0
  8  9  1  0  0  0
  8 22  1  0  0  0
  9 10  1  0  0  0
  9 27  2  0  0  0
 10 11  2  0  0  0
 10 15  1  0  0  0
 11 12  1  0  0  0
 11 95  1  0  0  0
 12 13  2  0  0  0
 12 96  1  0  0  0
 13 14  1  0  0  0
 13 31  1  0  0  0
 14 15  2  0  0  0
 14 97  1  0  0  0
 15 98  1  0  0  0
 16 17  2  0  0  0
 16 21  1  0  0  0
 16 31  1  0  0  0
 17 18  1  0  0  0
 17 99  1  0  0  0
 18 19  2  0  0  0
 18100  1  0  0  0
 19 20  1  0  0  0
 19 24  1  0  0  0
 20 21  2  0  0  0
 20101  1  0  0  0
 21 23  1  0  0  0
 22 28  1  0  0  0
 22 32  2  0  0  0
 26 27  1  0  0  0
 28102  1  0  0  0
 28103  1  0  0  0
 29104  1  0  0  0
 29105  1  0  0  0
 33 34  1  0  0  0
 33 66  1  0  0  0
 33 70  2  0  0  0
 34 36  1  0  0  0
 34 59  1  0  0  0
 34106  1  0  0  0
 35 44  2  0  0  0
 35 45  1  0  0  0
 35 68  1  0  0  0
 36 56  1  0  0  0
 36107  1  0  0  0
 37 39  1  0  0  0
 37 47  1  0  0  0
 37 66  1  0  0  0
 37108  1  0  0  0
 38 43  2  0  0  0
 38 46  1  0  0  0
 38 47  1  0  0  0
 39 64  1  0  0  0
 39 67  2  0  0  0
 40 52  1  0  0  0
 40 53  2  0  0  0
 40 58  1  0  0  0
 41109  1  0  0  0
 41110  1  0  0  0
 41111  1  0  0  0
 41 48  1  0  0  0
 42 43  1  0  0  0
 42 66  1  0  0  0
 42112  1  0  0  0
 42113  1  0  0  0
 43 44  1  0  0  0
 44114  1  0  0  0
 45 46  2  0  0  0
 45115  1  0  0  0
 46116  1  0  0  0
 47117  1  0  0  0
 47118  1  0  0  0
 48 56  1  0  0  0
 48 65  1  0  0  0
 48119  1  0  0  0
 49 50  1  0  0  0
 49 53  1  0  0  0
 49 64  1  0  0  0
 49120  1  0  0  0
 50 51  1  0  0  0
 50121  1  0  0  0
 50122  1  0  0  0
 51 52  1  0  0  0
 51123  1  0  0  0
 51124  1  0  0  0
 52125  1  0  0  0
 52126  1  0  0  0
 53 54  1  0  0  0
 54 55  2  0  0  0
 54127  1  0  0  0
 55 57  1  0  0  0
 55128  1  0  0  0
 56 69  2  0  0  0
 57 58  2  0  0  0
 57129  1  0  0  0
 58130  1  0  0  0
 59 60  1  0  0  0
 59 61  1  0  0  0
 59 62  1  0  0  0
 60131  1  0  0  0
 60132  1  0  0  0
 60133  1  0  0  0
 61134  1  0  0  0
 61135  1  0  0  0
 61136  1  0  0  0
 62137  1  0  0  0
 62138  1  0  0  0
 62139  1  0  0  0
 63 65  1  0  0  0
 63140  1  0  0  0
 63141  1  0  0  0
 63142  1  0  0  0
 64143  1  0  0  0
 65144  1  0  0  0
 68 74  1  0  0  0
 71 72  2  0  0  0
 71 74  1  0  0  0
 71145  1  0  0  0
 72 73  1  0  0  0
 72 75  1  0  0  0
 73 76  1  0  0  0
 73 83  2  0  0  0
 74 84  2  0  0  0
 75146  1  0  0  0
 75147  1  0  0  0
 75148  1  0  0  0
 76 77  1  0  0  0
 76149  1  0  0  0
 76150  1  0  0  0
 77 78  1  0  0  0
 77151  1  0  0  0
 77152  1  0  0  0
 78 79  1  0  0  0
 78153  1  0  0  0
 78154  1  0  0  0
 79 80  1  0  0  0
 79155  1  0  0  0
 79156  1  0  0  0
 80 81  1  0  0  0
 80157  1  0  0  0
 80158  1  0  0  0
 81 82  1  0  0  0
 81159  1  0  0  0
 81160  1  0  0  0
 82 85  1  0  0  0
 82161  1  0  0  0
 82162  1  0  0  0
 83 84  1  0  0  0
 85163  1  0  0  0
M  ISO  4   1 100  68 101  74 101  85 100
M  END
> <chiral flag>
0

> <version>
0

> <s_m_source_file>
/data/baiqing/PycharmProjects/Reinvent-master-3.2/result/LINK_invent/BTK/process_docking_weight1_custom_sum_contain_oxygen_bond_distance_aromatic_linkinvent_7_9_3/rearranged_h_0038.sdf

> <i_m_source_file_index>
3

> <r_mmod_Potential_Energy-OPLS-2005>
7.32977390289307

> <r_mmod_Stretch_Energy-OPLS-2005>
29.4886302947998

> <r_mmod_Bend_Energy-OPLS-2005>
106.249374389648

> <r_mmod_Torsional_Energy-OPLS-2005>
218.758575439453

> <r_mmod_Improper_Torsional_Energy-OPLS-2005>
9.29067516326904

> <r_mmod_Van_der_Waal_Energy-OPLS-2005>
156.031524658203

> <r_mmod_Electrostatic_Energy-OPLS-2005>
-309.329376220703

> <r_mmod_Solvation_Energy-OPLS-2005>
-220.990142822266

> <b_mmod_Minimization_Converged-OPLS-2005>
0

> <r_mmod_RMS_Derivative-OPLS-2005>
3.20569491386414

$$$$
3
                    3D
 Structure written by MMmdl.
158166  0  0  1  0            999 V2000
  -30.5418  -14.8425   20.4547 C   0  0  0  0  0  0
  -30.4455  -12.5116   19.4924 C   0  0  0  0  0  0
  -29.5231  -12.5217   18.2505 C   0  0  0  0  0  0
  -28.0502  -12.3223   18.6593 C   0  0  0  0  0  0
  -27.6393  -13.2332   19.8452 C   0  0  2  0  0  0
  -28.6795  -13.1978   20.9847 C   0  0  0  0  0  0
  -25.2511  -13.8190   20.5695 C   0  0  0  0  0  0
  -24.1802  -13.0434   20.9200 C   0  0  0  0  0  0
  -24.6395  -11.6912   20.8736 C   0  0  0  0  0  0
  -23.9071  -10.4291   21.0402 C   0  0  0  0  0  0
  -24.3622   -9.4207   21.9181 C   0  0  0  0  0  0
  -23.6295   -8.2243   22.0752 C   0  0  0  0  0  0
  -22.4277   -8.0282   21.3544 C   0  0  0  0  0  0
  -21.9912   -9.0254   20.4646 C   0  0  0  0  0  0
  -22.7242  -10.2132   20.3053 C   0  0  0  0  0  0
  -21.6854   -6.0736   22.5279 C   0  0  0  0  0  0
  -21.4014   -6.5639   23.8212 C   0  0  0  0  0  0
  -21.3660   -5.6792   24.9174 C   0  0  0  0  0  0
  -21.6044   -4.3055   24.7225 C   0  0  0  0  0  0
  -21.8819   -3.8147   23.4346 C   0  0  0  0  0  0
  -21.9193   -4.6963   22.3402 C   0  0  0  0  0  0
  -22.7825  -13.5217   21.1870 C   0  0  0  0  0  0
  -22.1661   -4.2150   21.0980 F   0  0  0  0  0  0
  -21.5629   -3.4538   25.7737 F   0  0  0  0  0  0
  -29.9770  -13.5776   20.4150 N   0  0  0  0  0  0
  -26.2927  -12.9394   20.3246 N   0  0  0  0  0  0
  -25.9324  -11.6536   20.5723 N   0  0  0  0  0  0
  -22.0475  -12.8205   22.0428 N   0  0  0  0  0  0
  -25.4213  -15.1917   20.4147 N   0  0  0  0  0  0
  -31.7208  -14.9558   20.1010 O   0  0  0  0  0  0
  -21.6640   -6.8879   21.4241 O   0  0  0  0  0  0
  -22.3506  -14.5524   20.6720 O   0  0  0  0  0  0
  -24.6353  -31.8492   23.1917 C   0  0  0  0  0  0
  -25.9157  -32.4719   23.8287 C   0  0  1  0  0  0
  -27.2269  -27.2045   20.1500 C   0  0  0  0  0  0
  -25.5934  -33.8524   24.2212 N   0  0  0  0  0  0
  -23.4355  -30.4665   21.5356 C   0  0  2  0  0  0
  -24.8847  -28.8927   20.1164 C   0  0  0  0  0  0
  -22.7521  -29.4566   22.4895 C   0  0  0  0  0  0
  -18.0294  -28.1394   22.8483 C   0  0  0  0  0  0
  -24.1489  -36.7267   23.2643 C   0  0  0  0  0  0
  -25.9831  -30.7429   21.3796 C   0  0  0  0  0  0
  -26.0548  -29.3556   20.7310 C   0  0  0  0  0  0
  -27.2251  -28.5238   20.7346 C   0  0  0  0  0  0
  -26.0339  -26.8141   19.5079 C   0  0  0  0  0  0
  -24.8812  -27.6317   19.4945 C   0  0  0  0  0  0
  -23.6586  -29.7891   20.1561 C   0  0  0  0  0  0
  -25.4120  -36.3049   24.0321 C   0  0  1  0  0  0
  -20.5898  -28.3707   23.1263 C   0  0  2  0  0  0
  -20.6778  -26.9419   22.5413 C   0  0  0  0  0  0
  -19.5755  -26.6385   21.5216 C   0  0  0  0  0  0
  -18.1935  -26.7935   22.1625 C   0  0  0  0  0  0
  -19.1548  -28.8869   23.2865 C   0  0  0  0  0  0
  -18.9468  -30.1467   23.8887 C   0  0  0  0  0  0
  -17.6466  -30.6593   24.0563 C   0  0  0  0  0  0
  -25.9063  -34.9422   23.5075 C   0  0  0  0  0  0
  -16.5357  -29.9089   23.6335 C   0  0  0  0  0  0
  -16.7280  -28.6507   23.0357 C   0  0  0  0  0  0
  -26.4509  -31.6566   25.0702 C   0  0  0  0  0  0
  -25.3716  -31.3740   26.1415 C   0  0  0  0  0  0
  -27.0365  -30.2970   24.6234 C   0  0  0  0  0  0
  -27.6048  -32.4323   25.7484 C   0  0  0  0  0  0
  -27.5575  -37.1791   24.8466 C   0  0  0  0  0  0
  -21.4223  -29.3041   22.3642 N   0  0  0  0  0  0
  -26.4288  -37.3755   23.9407 N   0  0  0  0  0  0
  -24.7038  -31.0403   22.0917 N   0  0  0  0  0  0
  -23.4195  -28.8124   23.3028 O   0  0  0  0  0  0
  -28.3510  -26.3322   20.1530 O   0  0  0  0  0  0
  -26.5648  -34.8911   22.4652 O   0  0  0  0  0  0
  -23.5491  -32.1342   23.7182 O   0  0  0  0  0  0
  -28.5764  -22.8075   19.0531 C   0  0  0  0  0  0
  -28.9891  -22.0400   20.1958 C   0  0  0  0  0  0
  -28.7336  -24.1131   21.3873 C   0  0  0  0  0  0
  -28.3597  -24.8818   20.2250 C   0  0  0  0  0  0
  -30.3750  -24.8124   23.1902 C   0  0  0  0  0  0
  -27.9736  -24.2151   23.8069 C   0  0  0  0  0  0
  -29.7076  -20.5805   20.0646 C   0  0  0  0  0  0
  -29.6964  -16.2006   20.8107 C   0  0  0  0  0  0
  -29.2068  -19.1006   20.5994 C   0  0  0  0  0  0
  -30.0953  -17.7250   20.2963 C   0  0  0  0  0  0
  -28.9064  -24.8046   22.7364 C   0  0  0  0  0  0
  -28.2829  -24.1652   19.0586 N   0  0  0  0  0  0
  -29.0361  -22.7503   21.3697 N   0  0  0  0  0  0
  -31.4833  -12.6583   19.1896 H   0  0  0  0  0  0
  -30.4150  -11.5402   19.9883 H   0  0  0  0  0  0
  -29.8256  -11.7436   17.5486 H   0  0  0  0  0  0
  -29.6317  -13.4702   17.7223 H   0  0  0  0  0  0
  -27.9250  -11.2756   18.9388 H   0  0  0  0  0  0
  -27.3925  -12.4901   17.8056 H   0  0  0  0  0  0
  -27.6217  -14.2459   19.4440 H   0  0  0  0  0  0
  -28.7322  -12.2054   21.4347 H   0  0  0  0  0  0
  -28.3950  -13.8824   21.7852 H   0  0  0  0  0  0
  -25.2767   -9.5684   22.4754 H   0  0  0  0  0  0
  -24.0005   -7.4635   22.7471 H   0  0  0  0  0  0
  -21.0844   -8.8773   19.8952 H   0  0  0  0  0  0
  -22.3701  -10.9670   19.6162 H   0  0  0  0  0  0
  -21.2006   -7.6147   23.9716 H   0  0  0  0  0  0
  -21.1483   -6.0522   25.9077 H   0  0  0  0  0  0
  -22.0598   -2.7609   23.2846 H   0  0  0  0  0  0
  -22.4098  -11.9867   22.4814 H   0  0  0  0  0  0
  -21.1092  -13.1225   22.2639 H   0  0  0  0  0  0
  -24.6575  -15.8480   20.5357 H   0  0  0  0  0  0
  -26.2781  -15.6344   20.1078 H   0  0  0  0  0  0
  -26.7220  -32.5353   23.1020 H   0  0  0  0  0  0
  -25.0062  -33.9647   25.0346 H   0  0  0  0  0  0
  -22.7348  -31.2897   21.3815 H   0  0  0  0  0  0
  -23.3752  -35.9598   23.3303 H   0  0  0  0  0  0
  -24.3572  -36.8900   22.2058 H   0  0  0  0  0  0
  -23.7242  -37.6464   23.6678 H   0  0  0  0  0  0
  -26.1264  -31.4957   20.6032 H   0  0  0  0  0  0
  -26.8587  -30.7981   22.0148 H   0  0  0  0  0  0
  -28.1255  -28.8783   21.2164 H   0  0  0  0  0  0
  -25.9849  -25.8492   19.0236 H   0  0  0  0  0  0
  -23.9857  -27.2723   19.0063 H   0  0  0  0  0  0
  -23.7902  -30.5599   19.3958 H   0  0  0  0  0  0
  -22.7753  -29.2251   19.8507 H   0  0  0  0  0  0
  -25.1307  -36.1885   25.0813 H   0  0  0  0  0  0
  -20.9991  -28.3293   24.1383 H   0  0  0  0  0  0
  -20.5673  -26.2320   23.3623 H   0  0  0  0  0  0
  -21.6646  -26.7435   22.1211 H   0  0  0  0  0  0
  -19.6914  -25.6293   21.1254 H   0  0  0  0  0  0
  -19.6694  -27.3189   20.6741 H   0  0  0  0  0  0
  -17.4204  -26.6685   21.4026 H   0  0  0  0  0  0
  -18.0330  -26.0080   22.9025 H   0  0  0  0  0  0
  -19.7943  -30.7287   24.2252 H   0  0  0  0  0  0
  -17.5020  -31.6273   24.5166 H   0  0  0  0  0  0
  -15.5357  -30.2988   23.7666 H   0  0  0  0  0  0
  -15.8680  -28.0823   22.7078 H   0  0  0  0  0  0
  -24.5893  -30.7087   25.7742 H   0  0  0  0  0  0
  -24.8907  -32.2917   26.4808 H   0  0  0  0  0  0
  -25.8019  -30.8937   27.0212 H   0  0  0  0  0  0
  -26.2963  -29.6702   24.1246 H   0  0  0  0  0  0
  -27.4008  -29.7254   25.4780 H   0  0  0  0  0  0
  -27.8857  -30.4222   23.9512 H   0  0  0  0  0  0
  -27.2643  -33.3634   26.2026 H   0  0  0  0  0  0
  -28.3877  -32.6867   25.0328 H   0  0  0  0  0  0
  -28.0695  -31.8473   26.5431 H   0  0  0  0  0  0
  -28.2595  -38.0086   24.7504 H   0  0  0  0  0  0
  -28.1069  -36.2614   24.6305 H   0  0  0  0  0  0
  -27.2292  -37.1456   25.8870 H   0  0  0  0  0  0
  -20.9424  -29.8747   21.6822 H   0  0  0  0  0  0
  -26.0160  -38.2827   24.1404 H   0  0  0  0  0  0
  -28.5722  -22.3427   18.0780 H   0  0  0  0  0  0
  -31.0101  -25.2986   22.4490 H   0  0  0  0  0  0
  -30.7527  -23.8003   23.3381 H   0  0  0  0  0  0
  -30.4938  -25.3516   24.1302 H   0  0  0  0  0  0
  -26.9310  -24.2768   23.4935 H   0  0  0  0  0  0
  -28.0665  -24.7542   24.7499 H   0  0  0  0  0  0
  -28.2006  -23.1664   24.0013 H   0  0  0  0  0  0
  -30.7036  -20.7295   20.4818 H   0  0  0  0  0  0
  -29.8890  -20.4591   18.9964 H   0  0  0  0  0  0
  -28.6755  -16.0217   20.4788 H   0  0  0  0  0  0
  -29.6342  -16.2291   21.8984 H   0  0  0  0  0  0
  -28.2056  -18.9349   20.2008 H   0  0  0  0  0  0
  -29.0731  -19.1761   21.6789 H   0  0  0  0  0  0
  -30.2127  -17.6618   19.2140 H   0  0  0  0  0  0
  -31.1037  -17.9174   20.6640 H   0  0  0  0  0  0
  -28.6108  -25.8470   22.6110 H   0  0  0  0  0  0
  1 25  1  0  0  0
  1 30  2  0  0  0
  1 78  1  0  0  0
  2  3  1  0  0  0
  2 25  1  0  0  0
  2 84  1  0  0  0
  2 85  1  0  0  0
  3  4  1  0  0  0
  3 86  1  0  0  0
  3 87  1  0  0  0
  4  5  1  0  0  0
  4 88  1  0  0  0
  4 89  1  0  0  0
  5  6  1  0  0  0
  5 26  1  0  0  0
  5 90  1  0  0  0
  6 25  1  0  0  0
  6 91  1  0  0  0
  6 92  1  0  0  0
  7  8  2  0  0  0
  7 26  1  0  0  0
  7 29  1  0  0  0
  8  9  1  0  0  0
  8 22  1  0  0  0
  9 10  1  0  0  0
  9 27  2  0  0  0
 10 11  2  0  0  0
 10 15  1  0  0  0
 11 12  1  0  0  0
 11 93  1  0  0  0
 12 13  2  0  0  0
 12 94  1  0  0  0
 13 14  1  0  0  0
 13 31  1  0  0  0
 14 15  2  0  0  0
 14 95  1  0  0  0
 15 96  1  0  0  0
 16 17  2  0  0  0
 16 21  1  0  0  0
 16 31  1  0  0  0
 17 18  1  0  0  0
 17 97  1  0  0  0
 18 19  2  0  0  0
 18 98  1  0  0  0
 19 20  1  0  0  0
 19 24  1  0  0  0
 20 21  2  0  0  0
 20 99  1  0  0  0
 21 23  1  0  0  0
 22 28  1  0  0  0
 22 32  2  0  0  0
 26 27  1  0  0  0
 28100  1  0  0  0
 28101  1  0  0  0
 29102  1  0  0  0
 29103  1  0  0  0
 33 34  1  0  0  0
 33 66  1  0  0  0
 33 70  2  0  0  0
 34 36  1  0  0  0
 34 59  1  0  0  0
 34104  1  0  0  0
 35 44  2  0  0  0
 35 45  1  0  0  0
 35 68  1  0  0  0
 36 56  1  0  0  0
 36105  1  0  0  0
 37 39  1  0  0  0
 37 47  1  0  0  0
 37 66  1  0  0  0
 37106  1  0  0  0
 38 43  2  0  0  0
 38 46  1  0  0  0
 38 47  1  0  0  0
 39 64  1  0  0  0
 39 67  2  0  0  0
 40 52  1  0  0  0
 40 53  2  0  0  0
 40 58  1  0  0  0
 41107  1  0  0  0
 41108  1  0  0  0
 41109  1  0  0  0
 41 48  1  0  0  0
 42 43  1  0  0  0
 42 66  1  0  0  0
 42110  1  0  0  0
 42111  1  0  0  0
 43 44  1  0  0  0
 44112  1  0  0  0
 45 46  2  0  0  0
 45113  1  0  0  0
 46114  1  0  0  0
 47115  1  0  0  0
 47116  1  0  0  0
 48 56  1  0  0  0
 48 65  1  0  0  0
 48117  1  0  0  0
 49 50  1  0  0  0
 49 53  1  0  0  0
 49 64  1  0  0  0
 49118  1  0  0  0
 50 51  1  0  0  0
 50119  1  0  0  0
 50120  1  0  0  0
 51 52  1  0  0  0
 51121  1  0  0  0
 51122  1  0  0  0
 52123  1  0  0  0
 52124  1  0  0  0
 53 54  1  0  0  0
 54 55  2  0  0  0
 54125  1  0  0  0
 55 57  1  0  0  0
 55126  1  0  0  0
 56 69  2  0  0  0
 57 58  2  0  0  0
 57127  1  0  0  0
 58128  1  0  0  0
 59 60  1  0  0  0
 59 61  1  0  0  0
 59 62  1  0  0  0
 60129  1  0  0  0
 60130  1  0  0  0
 60131  1  0  0  0
 61132  1  0  0  0
 61133  1  0  0  0
 61134  1  0  0  0
 62135  1  0  0  0
 62136  1  0  0  0
 62137  1  0  0  0
 63 65  1  0  0  0
 63138  1  0  0  0
 63139  1  0  0  0
 63140  1  0  0  0
 64141  1  0  0  0
 65142  1  0  0  0
 68 74  1  0  0  0
 71 72  2  0  0  0
 71 82  1  0  0  0
 71143  1  0  0  0
 72 77  1  0  0  0
 72 83  1  0  0  0
 73 74  1  0  0  0
 73 81  1  0  0  0
 73 83  2  0  0  0
 74 82  2  0  0  0
 75144  1  0  0  0
 75145  1  0  0  0
 75146  1  0  0  0
 75 81  1  0  0  0
 76 81  1  0  0  0
 76147  1  0  0  0
 76148  1  0  0  0
 76149  1  0  0  0
 77 79  1  0  0  0
 77150  1  0  0  0
 77151  1  0  0  0
 78 80  1  0  0  0
 78152  1  0  0  0
 78153  1  0  0  0
 79 80  1  0  0  0
 79154  1  0  0  0
 79155  1  0  0  0
 80156  1  0  0  0
 80157  1  0  0  0
 81158  1  0  0  0
M  ISO  4   1 100  68 101  74 101  78 100
M  END
> <chiral flag>
0

> <version>
0

> <s_m_source_file>
/data/baiqing/PycharmProjects/Reinvent-master-3.2/result/LINK_invent/BTK/process_docking_weight1_custom_sum_contain_oxygen_bond_distance_aromatic_linkinvent_7_9_3/rearranged_h_0038.sdf

> <i_m_source_file_index>
4

> <r_mmod_Potential_Energy-OPLS-2005>
394.244934082031

> <r_mmod_Stretch_Energy-OPLS-2005>
180.56135559082

> <r_mmod_Bend_Energy-OPLS-2005>
209.227020263672

> <r_mmod_Torsional_Energy-OPLS-2005>
178.520233154297

> <r_mmod_Improper_Torsional_Energy-OPLS-2005>
6.86005640029907

> <r_mmod_Van_der_Waal_Energy-OPLS-2005>
126.185096740723

> <r_mmod_Electrostatic_Energy-OPLS-2005>
-232.813949584961

> <r_mmod_Solvation_Energy-OPLS-2005>
-196.022155761719

> <b_mmod_Minimization_Converged-OPLS-2005>
0

> <r_mmod_RMS_Derivative-OPLS-2005>
0.260809659957886

$$$$
4
                    3D
 Structure written by MMmdl.
172180  0  0  1  0            999 V2000
  -30.7943  -14.2604   20.7476 C   0  0  0  0  0  0
  -30.3972  -12.2670   19.3591 C   0  0  0  0  0  0
  -29.4586  -12.5281   18.1720 C   0  0  0  0  0  0
  -27.9875  -12.3857   18.6008 C   0  0  0  0  0  0
  -27.6555  -13.2045   19.8717 C   0  0  2  0  0  0
  -28.6874  -12.9217   20.9813 C   0  0  0  0  0  0
  -25.2545  -13.8178   20.5696 C   0  0  0  0  0  0
  -24.1798  -13.0448   20.9181 C   0  0  0  0  0  0
  -24.6342  -11.6900   20.8710 C   0  0  0  0  0  0
  -23.9001  -10.4278   21.0367 C   0  0  0  0  0  0
  -24.3562   -9.4222   21.9161 C   0  0  0  0  0  0
  -23.6287   -8.2242   22.0728 C   0  0  0  0  0  0
  -22.4273   -8.0249   21.3531 C   0  0  0  0  0  0
  -21.9873   -9.0196   20.4629 C   0  0  0  0  0  0
  -22.7157  -10.2102   20.3042 C   0  0  0  0  0  0
  -21.6846   -6.0710   22.5277 C   0  0  0  0  0  0
  -21.4002   -6.5631   23.8203 C   0  0  0  0  0  0
  -21.3667   -5.6799   24.9178 C   0  0  0  0  0  0
  -21.6054   -4.3061   24.7230 C   0  0  0  0  0  0
  -21.8822   -3.8134   23.4356 C   0  0  0  0  0  0
  -21.9210   -4.6944   22.3406 C   0  0  0  0  0  0
  -22.7812  -13.5205   21.1932 C   0  0  0  0  0  0
  -22.1683   -4.2139   21.0982 F   0  0  0  0  0  0
  -21.5642   -3.4541   25.7731 F   0  0  0  0  0  0
  -30.0408  -13.1803   20.4525 N   0  0  0  0  0  0
  -26.2957  -12.9351   20.3311 N   0  0  0  0  0  0
  -25.9263  -11.6503   20.5709 N   0  0  0  0  0  0
  -22.0497  -12.8136   22.0481 N   0  0  0  0  0  0
  -25.4320  -15.1906   20.4169 N   0  0  0  0  0  0
  -31.7342  -14.6567   20.0472 O   0  0  0  0  0  0
  -21.6660   -6.8837   21.4232 O   0  0  0  0  0  0
  -22.3472  -14.5525   20.6812 O   0  0  0  0  0  0
  -24.6183  -31.8651   23.2086 C   0  0  0  0  0  0
  -25.9048  -32.4797   23.8407 C   0  0  1  0  0  0
  -27.2440  -27.4330   20.0732 C   0  0  0  0  0  0
  -25.5869  -33.8587   24.2328 N   0  0  0  0  0  0
  -23.4039  -30.4868   21.5510 C   0  0  2  0  0  0
  -24.8478  -28.9394   20.1273 C   0  0  0  0  0  0
  -22.7429  -29.4648   22.5035 C   0  0  0  0  0  0
  -18.0264  -28.1357   22.8494 C   0  0  0  0  0  0
  -24.1500  -36.7364   23.2633 C   0  0  0  0  0  0
  -25.9343  -30.8252   21.3642 C   0  0  0  0  0  0
  -26.0091  -29.4534   20.7213 C   0  0  0  0  0  0
  -27.2069  -28.7032   20.6948 C   0  0  0  0  0  0
  -26.0645  -26.9314   19.4799 C   0  0  0  0  0  0
  -24.8665  -27.6753   19.5131 C   0  0  0  0  0  0
  -23.6097  -29.8091   20.1702 C   0  0  0  0  0  0
  -25.4105  -36.3106   24.0332 C   0  0  1  0  0  0
  -20.5846  -28.3631   23.1333 C   0  0  2  0  0  0
  -20.6720  -26.9359   22.5412 C   0  0  0  0  0  0
  -19.5708  -26.6353   21.5196 C   0  0  0  0  0  0
  -18.1894  -26.7893   22.1624 C   0  0  0  0  0  0
  -19.1507  -28.8813   23.2910 C   0  0  0  0  0  0
  -18.9459  -30.1406   23.8939 C   0  0  0  0  0  0
  -17.6458  -30.6566   24.0545 C   0  0  0  0  0  0
  -25.9020  -34.9460   23.5124 C   0  0  0  0  0  0
  -16.5350  -29.9084   23.6280 C   0  0  0  0  0  0
  -16.7249  -28.6484   23.0346 C   0  0  0  0  0  0
  -26.4453  -31.6570   25.0743 C   0  0  0  0  0  0
  -25.3748  -31.3720   26.1540 C   0  0  0  0  0  0
  -27.0300  -30.3020   24.6109 C   0  0  0  0  0  0
  -27.6029  -32.4281   25.7521 C   0  0  0  0  0  0
  -27.5582  -37.1838   24.8448 C   0  0  0  0  0  0
  -21.4146  -29.3042   22.3815 N   0  0  0  0  0  0
  -26.4290  -37.3781   23.9399 N   0  0  0  0  0  0
  -24.6701  -31.0771   22.0977 N   0  0  0  0  0  0
  -23.4247  -28.8156   23.3016 O   0  0  0  0  0  0
  -28.4475  -26.7622   20.0066 O   0  0  0  0  0  0
  -26.5565  -34.8896   22.4692 O   0  0  0  0  0  0
  -23.5373  -32.1405   23.7494 O   0  0  0  0  0  0
  -29.9156  -22.5411   18.1571 C   0  0  0  0  0  0
  -30.6984  -25.0891   18.7093 C   0  0  0  0  0  0
  -31.2468  -22.9825   17.9070 C   0  0  0  0  0  0
  -29.4108  -24.6172   19.0922 C   0  0  0  0  0  0
  -29.4060  -21.1299   17.8806 C   0  0  0  0  0  0
  -31.2396  -26.4728   19.0224 C   0  0  0  0  0  0
  -32.4305  -22.0607   17.6032 C   0  0  0  0  0  0
  -28.4810  -25.3305   20.0839 C   0  0  0  0  0  0
  -33.4033  -21.9443   18.8062 C   0  0  0  0  0  0
  -32.7395  -21.5018   20.1292 C   0  0  0  0  0  0
  -32.8672  -20.0015   20.4087 C   0  0  0  0  0  0
  -31.7489  -19.4886   21.3221 C   0  0  0  0  0  0
  -32.0912  -18.1173   21.9085 C   0  0  0  0  0  0
  -30.8773  -17.2089   22.1004 C   0  0  0  0  0  0
  -31.3332  -15.8227   22.5840 C   0  0  0  0  0  0
  -31.5977  -24.2756   18.1046 N   0  0  0  0  0  0
  -29.0117  -23.3639   18.7416 N   0  0  0  0  0  0
  -30.5476  -14.7750   21.9585 N   0  0  0  0  0  0
  -31.4412  -12.3638   19.0531 H   0  0  0  0  0  0
  -30.2832  -11.2358   19.6931 H   0  0  0  0  0  0
  -29.6682  -11.8330   17.3568 H   0  0  0  0  0  0
  -29.6381  -13.5291   17.7748 H   0  0  0  0  0  0
  -27.7976  -11.3270   18.7832 H   0  0  0  0  0  0
  -27.3235  -12.6759   17.7873 H   0  0  0  0  0  0
  -27.7227  -14.2599   19.6088 H   0  0  0  0  0  0
  -28.6285  -11.8829   21.3040 H   0  0  0  0  0  0
  -28.4314  -13.5113   21.8614 H   0  0  0  0  0  0
  -25.2711   -9.5744   22.4722 H   0  0  0  0  0  0
  -24.0034   -7.4637   22.7425 H   0  0  0  0  0  0
  -21.0810   -8.8663   19.8930 H   0  0  0  0  0  0
  -22.3568  -10.9622   19.6163 H   0  0  0  0  0  0
  -21.1970   -7.6142   23.9687 H   0  0  0  0  0  0
  -21.1507   -6.0540   25.9081 H   0  0  0  0  0  0
  -22.0601   -2.7596   23.2847 H   0  0  0  0  0  0
  -22.4141  -11.9758   22.4777 H   0  0  0  0  0  0
  -21.1125  -13.1079   22.2801 H   0  0  0  0  0  0
  -24.6665  -15.8495   20.5237 H   0  0  0  0  0  0
  -26.2961  -15.6239   20.1150 H   0  0  0  0  0  0
  -26.7125  -32.5496   23.1190 H   0  0  0  0  0  0
  -25.0042  -33.9728   25.0485 H   0  0  0  0  0  0
  -22.6941  -31.3043   21.4099 H   0  0  0  0  0  0
  -23.3687  -35.9771   23.3303 H   0  0  0  0  0  0
  -24.3601  -36.8971   22.2043 H   0  0  0  0  0  0
  -23.7339  -37.6601   23.6650 H   0  0  0  0  0  0
  -26.0452  -31.5854   20.5887 H   0  0  0  0  0  0
  -26.8275  -30.8863   21.9781 H   0  0  0  0  0  0
  -28.1095  -29.0955   21.1436 H   0  0  0  0  0  0
  -26.0644  -25.9813   18.9641 H   0  0  0  0  0  0
  -23.9736  -27.2758   19.0515 H   0  0  0  0  0  0
  -23.7269  -30.5799   19.4072 H   0  0  0  0  0  0
  -22.7374  -29.2212   19.8761 H   0  0  0  0  0  0
  -25.1289  -36.1967   25.0816 H   0  0  0  0  0  0
  -20.9920  -28.3128   24.1464 H   0  0  0  0  0  0
  -20.5545  -26.2243   23.3600 H   0  0  0  0  0  0
  -21.6606  -26.7328   22.1269 H   0  0  0  0  0  0
  -19.6857  -25.6265   21.1220 H   0  0  0  0  0  0
  -19.6644  -27.3165   20.6731 H   0  0  0  0  0  0
  -17.4142  -26.6618   21.4039 H   0  0  0  0  0  0
  -18.0327  -26.0030   22.9034 H   0  0  0  0  0  0
  -19.7943  -30.7170   24.2383 H   0  0  0  0  0  0
  -17.5026  -31.6246   24.5145 H   0  0  0  0  0  0
  -15.5355  -30.3013   23.7574 H   0  0  0  0  0  0
  -15.8647  -28.0798   22.7094 H   0  0  0  0  0  0
  -24.5925  -30.7012   25.7985 H   0  0  0  0  0  0
  -24.8957  -32.2898   26.4944 H   0  0  0  0  0  0
  -25.8147  -30.8996   27.0343 H   0  0  0  0  0  0
  -26.2906  -29.6825   24.1044 H   0  0  0  0  0  0
  -27.3971  -29.7166   25.4553 H   0  0  0  0  0  0
  -27.8741  -30.4344   23.9346 H   0  0  0  0  0  0
  -27.2642  -33.3566   26.2126 H   0  0  0  0  0  0
  -28.3841  -32.6857   25.0362 H   0  0  0  0  0  0
  -28.0700  -31.8410   26.5433 H   0  0  0  0  0  0
  -28.2590  -38.0139   24.7440 H   0  0  0  0  0  0
  -28.1082  -36.2649   24.6331 H   0  0  0  0  0  0
  -27.2287  -37.1569   25.8848 H   0  0  0  0  0  0
  -20.9300  -29.8927   21.7183 H   0  0  0  0  0  0
  -26.0154  -38.2863   24.1334 H   0  0  0  0  0  0
  -30.1641  -20.4130   17.5727 H   0  0  0  0  0  0
  -28.6482  -21.1490   17.0952 H   0  0  0  0  0  0
  -28.9384  -20.7128   18.7713 H   0  0  0  0  0  0
  -30.4866  -27.2533   18.9844 H   0  0  0  0  0  0
  -32.0008  -26.7549   18.2928 H   0  0  0  0  0  0
  -31.7039  -26.4622   20.0076 H   0  0  0  0  0  0
  -32.9731  -22.4682   16.7467 H   0  0  0  0  0  0
  -32.1147  -21.0635   17.3042 H   0  0  0  0  0  0
  -28.8769  -25.0918   21.0720 H   0  0  0  0  0  0
  -27.5047  -24.8523   20.0618 H   0  0  0  0  0  0
  -33.8531  -22.9202   18.9751 H   0  0  0  0  0  0
  -34.2449  -21.2933   18.5615 H   0  0  0  0  0  0
  -31.6886  -21.7881   20.1489 H   0  0  0  0  0  0
  -33.1914  -22.0492   20.9597 H   0  0  0  0  0  0
  -33.8410  -19.8034   20.8586 H   0  0  0  0  0  0
  -32.8416  -19.4204   19.4797 H   0  0  0  0  0  0
  -30.8279  -19.4441   20.7365 H   0  0  0  0  0  0
  -31.5552  -20.1866   22.1395 H   0  0  0  0  0  0
  -32.7864  -17.6078   21.2383 H   0  0  0  0  0  0
  -32.6239  -18.2403   22.8537 H   0  0  0  0  0  0
  -30.3369  -17.1359   21.1537 H   0  0  0  0  0  0
  -30.1649  -17.6371   22.8051 H   0  0  0  0  0  0
  -32.3877  -15.6502   22.3623 H   0  0  0  0  0  0
  -31.2405  -15.7543   23.6666 H   0  0  0  0  0  0
  -29.7938  -14.3696   22.4928 H   0  0  0  0  0  0
  1 25  1  0  0  0
  1 30  2  0  0  0
  1 88  1  0  0  0
  2  3  1  0  0  0
  2 25  1  0  0  0
  2 89  1  0  0  0
  2 90  1  0  0  0
  3  4  1  0  0  0
  3 91  1  0  0  0
  3 92  1  0  0  0
  4  5  1  0  0  0
  4 93  1  0  0  0
  4 94  1  0  0  0
  5  6  1  0  0  0
  5 26  1  0  0  0
  5 95  1  0  0  0
  6 25  1  0  0  0
  6 96  1  0  0  0
  6 97  1  0  0  0
  7  8  2  0  0  0
  7 26  1  0  0  0
  7 29  1  0  0  0
  8  9  1  0  0  0
  8 22  1  0  0  0
  9 10  1  0  0  0
  9 27  2  0  0  0
 10 11  2  0  0  0
 10 15  1  0  0  0
 11 12  1  0  0  0
 11 98  1  0  0  0
 12 13  2  0  0  0
 12 99  1  0  0  0
 13 14  1  0  0  0
 13 31  1  0  0  0
 14 15  2  0  0  0
 14100  1  0  0  0
 15101  1  0  0  0
 16 17  2  0  0  0
 16 21  1  0  0  0
 16 31  1  0  0  0
 17 18  1  0  0  0
 17102  1  0  0  0
 18 19  2  0  0  0
 18103  1  0  0  0
 19 20  1  0  0  0
 19 24  1  0  0  0
 20 21  2  0  0  0
 20104  1  0  0  0
 21 23  1  0  0  0
 22 28  1  0  0  0
 22 32  2  0  0  0
 26 27  1  0  0  0
 28105  1  0  0  0
 28106  1  0  0  0
 29107  1  0  0  0
 29108  1  0  0  0
 33 34  1  0  0  0
 33 66  1  0  0  0
 33 70  2  0  0  0
 34 36  1  0  0  0
 34 59  1  0  0  0
 34109  1  0  0  0
 35 44  2  0  0  0
 35 45  1  0  0  0
 35 68  1  0  0  0
 36 56  1  0  0  0
 36110  1  0  0  0
 37 39  1  0  0  0
 37 47  1  0  0  0
 37 66  1  0  0  0
 37111  1  0  0  0
 38 43  2  0  0  0
 38 46  1  0  0  0
 38 47  1  0  0  0
 39 64  1  0  0  0
 39 67  2  0  0  0
 40 52  1  0  0  0
 40 53  2  0  0  0
 40 58  1  0  0  0
 41112  1  0  0  0
 41113  1  0  0  0
 41114  1  0  0  0
 41 48  1  0  0  0
 42 43  1  0  0  0
 42 66  1  0  0  0
 42115  1  0  0  0
 42116  1  0  0  0
 43 44  1  0  0  0
 44117  1  0  0  0
 45 46  2  0  0  0
 45118  1  0  0  0
 46119  1  0  0  0
 47120  1  0  0  0
 47121  1  0  0  0
 48 56  1  0  0  0
 48 65  1  0  0  0
 48122  1  0  0  0
 49 50  1  0  0  0
 49 53  1  0  0  0
 49 64  1  0  0  0
 49123  1  0  0  0
 50 51  1  0  0  0
 50124  1  0  0  0
 50125  1  0  0  0
 51 52  1  0  0  0
 51126  1  0  0  0
 51127  1  0  0  0
 52128  1  0  0  0
 52129  1  0  0  0
 53 54  1  0  0  0
 54 55  2  0  0  0
 54130  1  0  0  0
 55 57  1  0  0  0
 55131  1  0  0  0
 56 69  2  0  0  0
 57 58  2  0  0  0
 57132  1  0  0  0
 58133  1  0  0  0
 59 60  1  0  0  0
 59 61  1  0  0  0
 59 62  1  0  0  0
 60134  1  0  0  0
 60135  1  0  0  0
 60136  1  0  0  0
 61137  1  0  0  0
 61138  1  0  0  0
 61139  1  0  0  0
 62140  1  0  0  0
 62141  1  0  0  0
 62142  1  0  0  0
 63 65  1  0  0  0
 63143  1  0  0  0
 63144  1  0  0  0
 63145  1  0  0  0
 64146  1  0  0  0
 65147  1  0  0  0
 68 78  1  0  0  0
 71 73  2  0  0  0
 71 75  1  0  0  0
 71 87  1  0  0  0
 72 74  1  0  0  0
 72 76  1  0  0  0
 72 86  2  0  0  0
 73 77  1  0  0  0
 73 86  1  0  0  0
 74 78  1  0  0  0
 74 87  2  0  0  0
 75148  1  0  0  0
 75149  1  0  0  0
 75150  1  0  0  0
 76151  1  0  0  0
 76152  1  0  0  0
 76153  1  0  0  0
 77 79  1  0  0  0
 77154  1  0  0  0
 77155  1  0  0  0
 78156  1  0  0  0
 78157  1  0  0  0
 79 80  1  0  0  0
 79158  1  0  0  0
 79159  1  0  0  0
 80 81  1  0  0  0
 80160  1  0  0  0
 80161  1  0  0  0
 81 82  1  0  0  0
 81162  1  0  0  0
 81163  1  0  0  0
 82 83  1  0  0  0
 82164  1  0  0  0
 82165  1  0  0  0
 83 84  1  0  0  0
 83166  1  0  0  0
 83167  1  0  0  0
 84 85  1  0  0  0
 84168  1  0  0  0
 84169  1  0  0  0
 85 88  1  0  0  0
 85170  1  0  0  0
 85171  1  0  0  0
 88172  1  0  0  0
M  ISO  4   1 100  68 101  78 101  88 100
M  END
> <chiral flag>
0

> <version>
0

> <s_m_source_file>
/data/baiqing/PycharmProjects/Reinvent-master-3.2/result/LINK_invent/BTK/process_docking_weight1_custom_sum_contain_oxygen_bond_distance_aromatic_linkinvent_7_9_3/rearranged_h_0038.sdf

> <i_m_source_file_index>
5

> <r_mmod_Potential_Energy-OPLS-2005>
47.0399894714355

> <r_mmod_Stretch_Energy-OPLS-2005>
37.0914535522461

> <r_mmod_Bend_Energy-OPLS-2005>
111.653045654297

> <r_mmod_Torsional_Energy-OPLS-2005>
247.597183227539

> <r_mmod_Improper_Torsional_Energy-OPLS-2005>
5.18261337280273

> <r_mmod_Van_der_Waal_Energy-OPLS-2005>
166.510116577148

> <r_mmod_Electrostatic_Energy-OPLS-2005>
-322.174285888672

> <r_mmod_Solvation_Energy-OPLS-2005>
-209.342681884766

> <b_mmod_Minimization_Converged-OPLS-2005>
0

> <r_mmod_RMS_Derivative-OPLS-2005>
6.09252023696899

$$$$
5
                    3D
 Structure written by MMmdl.
154162  0  0  1  0            999 V2000
  -30.6835  -14.5345   20.5450 C   0  0  0  0  0  0
  -30.4282  -12.3330   19.4285 C   0  0  0  0  0  0
  -29.5047  -12.5051   18.2048 C   0  0  0  0  0  0
  -28.0219  -12.3739   18.6134 C   0  0  0  0  0  0
  -27.6622  -13.2144   19.8690 C   0  0  2  0  0  0
  -28.7080  -13.0250   20.9906 C   0  0  0  0  0  0
  -25.2610  -13.8181   20.5671 C   0  0  0  0  0  0
  -24.1865  -13.0472   20.9167 C   0  0  0  0  0  0
  -24.6409  -11.6927   20.8697 C   0  0  0  0  0  0
  -23.9065  -10.4308   21.0381 C   0  0  0  0  0  0
  -24.3622   -9.4225   21.9158 C   0  0  0  0  0  0
  -23.6290   -8.2262   22.0751 C   0  0  0  0  0  0
  -22.4270   -8.0269   21.3538 C   0  0  0  0  0  0
  -21.9896   -9.0247   20.4648 C   0  0  0  0  0  0
  -22.7226  -10.2133   20.3045 C   0  0  0  0  0  0
  -21.6850   -6.0723   22.5274 C   0  0  0  0  0  0
  -21.4018   -6.5633   23.8202 C   0  0  0  0  0  0
  -21.3666   -5.6781   24.9161 C   0  0  0  0  0  0
  -21.6046   -4.3038   24.7208 C   0  0  0  0  0  0
  -21.8822   -3.8134   23.4327 C   0  0  0  0  0  0
  -21.9198   -4.6951   22.3387 C   0  0  0  0  0  0
  -22.7889  -13.5256   21.1858 C   0  0  0  0  0  0
  -22.1685   -4.2147   21.0964 F   0  0  0  0  0  0
  -21.5628   -3.4533   25.7725 F   0  0  0  0  0  0
  -30.0292  -13.3430   20.4244 N   0  0  0  0  0  0
  -26.3050  -12.9371   20.3330 N   0  0  0  0  0  0
  -25.9347  -11.6520   20.5729 N   0  0  0  0  0  0
  -22.0544  -12.8242   22.0416 N   0  0  0  0  0  0
  -25.4329  -15.1918   20.4143 N   0  0  0  0  0  0
  -31.8345  -14.7003   20.1356 O   0  0  0  0  0  0
  -21.6625   -6.8871   21.4243 O   0  0  0  0  0  0
  -22.3566  -14.5568   20.6715 O   0  0  0  0  0  0
  -24.6227  -31.8642   23.2092 C   0  0  0  0  0  0
  -25.9103  -32.4799   23.8397 C   0  0  1  0  0  0
  -27.2280  -27.3655   20.1027 C   0  0  0  0  0  0
  -25.5939  -33.8603   24.2307 N   0  0  0  0  0  0
  -23.4124  -30.4878   21.5540 C   0  0  2  0  0  0
  -24.8580  -28.9510   20.1167 C   0  0  0  0  0  0
  -22.7452  -29.4622   22.5002 C   0  0  0  0  0  0
  -18.0290  -28.1345   22.8488 C   0  0  0  0  0  0
  -24.1491  -36.7288   23.2631 C   0  0  0  0  0  0
  -25.9511  -30.8066   21.3782 C   0  0  0  0  0  0
  -26.0260  -29.4408   20.7127 C   0  0  0  0  0  0
  -27.2145  -28.6589   20.6962 C   0  0  0  0  0  0
  -26.0315  -26.9139   19.4965 C   0  0  0  0  0  0
  -24.8585  -27.6896   19.5045 C   0  0  0  0  0  0
  -23.6250  -29.8257   20.1678 C   0  0  0  0  0  0
  -25.4109  -36.3082   24.0328 C   0  0  1  0  0  0
  -20.5883  -28.3651   23.1322 C   0  0  2  0  0  0
  -20.6778  -26.9378   22.5439 C   0  0  0  0  0  0
  -19.5764  -26.6332   21.5247 C   0  0  0  0  0  0
  -18.1950  -26.7889   22.1643 C   0  0  0  0  0  0
  -19.1530  -28.8824   23.2886 C   0  0  0  0  0  0
  -18.9448  -30.1436   23.8876 C   0  0  0  0  0  0
  -17.6441  -30.6560   24.0529 C   0  0  0  0  0  0
  -25.9043  -34.9458   23.5103 C   0  0  0  0  0  0
  -16.5342  -29.9045   23.6298 C   0  0  0  0  0  0
  -16.7269  -28.6452   23.0345 C   0  0  0  0  0  0
  -26.4486  -31.6614   25.0765 C   0  0  0  0  0  0
  -25.3712  -31.3793   26.1496 C   0  0  0  0  0  0
  -27.0332  -30.3034   24.6240 C   0  0  0  0  0  0
  -27.6046  -32.4357   25.7522 C   0  0  0  0  0  0
  -27.5572  -37.1802   24.8459 C   0  0  0  0  0  0
  -21.4174  -29.3013   22.3739 N   0  0  0  0  0  0
  -26.4282  -37.3775   23.9409 N   0  0  0  0  0  0
  -24.6800  -31.0689   22.1029 N   0  0  0  0  0  0
  -23.4198  -28.8138   23.3046 O   0  0  0  0  0  0
  -28.3666  -26.5584   20.1252 O   0  0  0  0  0  0
  -26.5596  -34.8920   22.4659 O   0  0  0  0  0  0
  -23.5419  -32.1420   23.7471 O   0  0  0  0  0  0
  -29.4917  -21.5821   20.0502 C   0  0  0  0  0  0
  -28.6164  -22.5085   22.0879 C   0  0  0  0  0  0
  -29.1580  -22.7478   20.8083 C   0  0  0  0  0  0
  -29.2525  -20.2957   20.6306 C   0  0  0  0  0  0
  -29.4182  -24.2128   20.3618 C   0  0  0  0  0  0
  -29.4290  -18.9590   19.8726 C   0  0  0  0  0  0
  -30.6120  -18.0158   20.2854 C   0  0  0  0  0  0
  -30.3983  -16.9344   21.4041 C   0  0  0  0  0  0
  -28.1536  -25.1086   20.1491 C   0  0  0  0  0  0
  -28.4198  -21.2635   22.5918 N   0  0  0  0  0  0
  -28.7264  -20.1772   21.8734 N   0  0  0  0  0  0
  -29.9465  -15.5734   21.0089 N   0  0  0  0  0  0
  -31.4744  -12.4264   19.1359 H   0  0  0  0  0  0
  -30.3221  -11.3297   19.8430 H   0  0  0  0  0  0
  -29.7465  -11.7689   17.4366 H   0  0  0  0  0  0
  -29.6767  -13.4810   17.7493 H   0  0  0  0  0  0
  -27.8196  -11.3192   18.8010 H   0  0  0  0  0  0
  -27.3816  -12.6600   17.7783 H   0  0  0  0  0  0
  -27.6952  -14.2581   19.5616 H   0  0  0  0  0  0
  -28.6976  -11.9991   21.3600 H   0  0  0  0  0  0
  -28.4697  -13.6446   21.8561 H   0  0  0  0  0  0
  -25.2786   -9.5696   22.4711 H   0  0  0  0  0  0
  -23.9991   -7.4661   22.7490 H   0  0  0  0  0  0
  -21.0815   -8.8750   19.8969 H   0  0  0  0  0  0
  -22.3660  -10.9657   19.6128 H   0  0  0  0  0  0
  -21.2003   -7.6145   23.9693 H   0  0  0  0  0  0
  -21.1502   -6.0520   25.9059 H   0  0  0  0  0  0
  -22.0595   -2.7600   23.2823 H   0  0  0  0  0  0
  -22.4186  -11.9885   22.4770 H   0  0  0  0  0  0
  -21.1172  -13.1293   22.2672 H   0  0  0  0  0  0
  -24.6730  -15.8503   20.5469 H   0  0  0  0  0  0
  -26.2884  -15.6301   20.0981 H   0  0  0  0  0  0
  -26.7151  -32.5480   23.1145 H   0  0  0  0  0  0
  -25.0126  -33.9741   25.0480 H   0  0  0  0  0  0
  -22.7057  -31.3084   21.4165 H   0  0  0  0  0  0
  -23.3749  -35.9621   23.3295 H   0  0  0  0  0  0
  -24.3582  -36.8902   22.2039 H   0  0  0  0  0  0
  -23.7249  -37.6495   23.6652 H   0  0  0  0  0  0
  -26.0887  -31.5802   20.6218 H   0  0  0  0  0  0
  -26.8271  -30.8453   22.0142 H   0  0  0  0  0  0
  -28.1130  -29.0315   21.1668 H   0  0  0  0  0  0
  -25.9675  -25.9528   19.0097 H   0  0  0  0  0  0
  -23.9585  -27.3064   19.0419 H   0  0  0  0  0  0
  -23.7427  -30.6052   19.4149 H   0  0  0  0  0  0
  -22.7479  -29.2534   19.8627 H   0  0  0  0  0  0
  -25.1295  -36.1918   25.0819 H   0  0  0  0  0  0
  -20.9977  -28.3222   24.1446 H   0  0  0  0  0  0
  -20.5697  -26.2232   23.3611 H   0  0  0  0  0  0
  -21.6646  -26.7429   22.1239 H   0  0  0  0  0  0
  -19.6927  -25.6231   21.1321 H   0  0  0  0  0  0
  -19.6706  -27.3099   20.6748 H   0  0  0  0  0  0
  -17.4227  -26.6597   21.4049 H   0  0  0  0  0  0
  -18.0362  -26.0049   22.9053 H   0  0  0  0  0  0
  -19.7933  -30.7248   24.2229 H   0  0  0  0  0  0
  -17.4983  -31.6239   24.5112 H   0  0  0  0  0  0
  -15.5329  -30.2918   23.7636 H   0  0  0  0  0  0
  -15.8653  -28.0756   22.7101 H   0  0  0  0  0  0
  -24.5847  -30.7189   25.7827 H   0  0  0  0  0  0
  -24.8960  -32.2999   26.4915 H   0  0  0  0  0  0
  -25.8024  -30.8960   27.0275 H   0  0  0  0  0  0
  -26.2935  -29.6795   24.1220 H   0  0  0  0  0  0
  -27.3959  -29.7294   25.4774 H   0  0  0  0  0  0
  -27.8830  -30.4302   23.9525 H   0  0  0  0  0  0
  -27.2639  -33.3643   26.2125 H   0  0  0  0  0  0
  -28.3843  -32.6954   25.0342 H   0  0  0  0  0  0
  -28.0734  -31.8479   26.5427 H   0  0  0  0  0  0
  -28.2592  -38.0091   24.7506 H   0  0  0  0  0  0
  -28.1068  -36.2638   24.6288 H   0  0  0  0  0  0
  -27.2307  -37.1445   25.8862 H   0  0  0  0  0  0
  -20.9342  -29.8750   21.6981 H   0  0  0  0  0  0
  -26.0166  -38.2848   24.1420 H   0  0  0  0  0  0
  -29.9024  -21.6647   19.0539 H   0  0  0  0  0  0
  -28.3462  -23.3283   22.7375 H   0  0  0  0  0  0
  -30.0261  -24.2171   19.4559 H   0  0  0  0  0  0
  -30.0379  -24.6638   21.1377 H   0  0  0  0  0  0
  -29.5613  -19.2159   18.8209 H   0  0  0  0  0  0
  -28.4898  -18.4058   19.9099 H   0  0  0  0  0  0
  -31.4411  -18.6626   20.5729 H   0  0  0  0  0  0
  -30.9670  -17.5016   19.3914 H   0  0  0  0  0  0
  -29.7033  -17.3157   22.1516 H   0  0  0  0  0  0
  -31.3449  -16.8077   21.9329 H   0  0  0  0  0  0
  -27.4443  -24.8932   20.9492 H   0  0  0  0  0  0
  -27.6982  -24.7729   19.2169 H   0  0  0  0  0  0
  -28.9999  -15.3316   21.2639 H   0  0  0  0  0  0
  1 25  1  0  0  0
  1 30  2  0  0  0
  1 82  1  0  0  0
  2  3  1  0  0  0
  2 25  1  0  0  0
  2 83  1  0  0  0
  2 84  1  0  0  0
  3  4  1  0  0  0
  3 85  1  0  0  0
  3 86  1  0  0  0
  4  5  1  0  0  0
  4 87  1  0  0  0
  4 88  1  0  0  0
  5  6  1  0  0  0
  5 26  1  0  0  0
  5 89  1  0  0  0
  6 25  1  0  0  0
  6 90  1  0  0  0
  6 91  1  0  0  0
  7  8  2  0  0  0
  7 26  1  0  0  0
  7 29  1  0  0  0
  8  9  1  0  0  0
  8 22  1  0  0  0
  9 10  1  0  0  0
  9 27  2  0  0  0
 10 11  2  0  0  0
 10 15  1  0  0  0
 11 12  1  0  0  0
 11 92  1  0  0  0
 12 13  2  0  0  0
 12 93  1  0  0  0
 13 14  1  0  0  0
 13 31  1  0  0  0
 14 15  2  0  0  0
 14 94  1  0  0  0
 15 95  1  0  0  0
 16 17  2  0  0  0
 16 21  1  0  0  0
 16 31  1  0  0  0
 17 18  1  0  0  0
 17 96  1  0  0  0
 18 19  2  0  0  0
 18 97  1  0  0  0
 19 20  1  0  0  0
 19 24  1  0  0  0
 20 21  2  0  0  0
 20 98  1  0  0  0
 21 23  1  0  0  0
 22 28  1  0  0  0
 22 32  2  0  0  0
 26 27  1  0  0  0
 28 99  1  0  0  0
 28100  1  0  0  0
 29101  1  0  0  0
 29102  1  0  0  0
 33 34  1  0  0  0
 33 66  1  0  0  0
 33 70  2  0  0  0
 34 36  1  0  0  0
 34 59  1  0  0  0
 34103  1  0  0  0
 35 44  2  0  0  0
 35 45  1  0  0  0
 35 68  1  0  0  0
 36 56  1  0  0  0
 36104  1  0  0  0
 37 39  1  0  0  0
 37 47  1  0  0  0
 37 66  1  0  0  0
 37105  1  0  0  0
 38 43  2  0  0  0
 38 46  1  0  0  0
 38 47  1  0  0  0
 39 64  1  0  0  0
 39 67  2  0  0  0
 40 52  1  0  0  0
 40 53  2  0  0  0
 40 58  1  0  0  0
 41106  1  0  0  0
 41107  1  0  0  0
 41108  1  0  0  0
 41 48  1  0  0  0
 42 43  1  0  0  0
 42 66  1  0  0  0
 42109  1  0  0  0
 42110  1  0  0  0
 43 44  1  0  0  0
 44111  1  0  0  0
 45 46  2  0  0  0
 45112  1  0  0  0
 46113  1  0  0  0
 47114  1  0  0  0
 47115  1  0  0  0
 48 56  1  0  0  0
 48 65  1  0  0  0
 48116  1  0  0  0
 49 50  1  0  0  0
 49 53  1  0  0  0
 49 64  1  0  0  0
 49117  1  0  0  0
 50 51  1  0  0  0
 50118  1  0  0  0
 50119  1  0  0  0
 51 52  1  0  0  0
 51120  1  0  0  0
 51121  1  0  0  0
 52122  1  0  0  0
 52123  1  0  0  0
 53 54  1  0  0  0
 54 55  2  0  0  0
 54124  1  0  0  0
 55 57  1  0  0  0
 55125  1  0  0  0
 56 69  2  0  0  0
 57 58  2  0  0  0
 57126  1  0  0  0
 58127  1  0  0  0
 59 60  1  0  0  0
 59 61  1  0  0  0
 59 62  1  0  0  0
 60128  1  0  0  0
 60129  1  0  0  0
 60130  1  0  0  0
 61131  1  0  0  0
 61132  1  0  0  0
 61133  1  0  0  0
 62134  1  0  0  0
 62135  1  0  0  0
 62136  1  0  0  0
 63 65  1  0  0  0
 63137  1  0  0  0
 63138  1  0  0  0
 63139  1  0  0  0
 64140  1  0  0  0
 65141  1  0  0  0
 68 79  1  0  0  0
 71 73  2  0  0  0
 71 74  1  0  0  0
 71142  1  0  0  0
 72 73  1  0  0  0
 72 80  2  0  0  0
 72143  1  0  0  0
 73 75  1  0  0  0
 74 76  1  0  0  0
 74 81  2  0  0  0
 75 79  1  0  0  0
 75144  1  0  0  0
 75145  1  0  0  0
 76 77  1  0  0  0
 76146  1  0  0  0
 76147  1  0  0  0
 77 78  1  0  0  0
 77148  1  0  0  0
 77149  1  0  0  0
 78 82  1  0  0  0
 78150  1  0  0  0
 78151  1  0  0  0
 79152  1  0  0  0
 79153  1  0  0  0
 80 81  1  0  0  0
 82154  1  0  0  0
M  ISO  4   1 100  68 101  79 101  82 100
M  END
> <chiral flag>
0

> <version>
0

> <s_m_source_file>
/data/baiqing/PycharmProjects/Reinvent-master-3.2/result/LINK_invent/BTK/process_docking_weight1_custom_sum_contain_oxygen_bond_distance_aromatic_linkinvent_7_9_3/rearranged_h_0038.sdf

> <i_m_source_file_index>
6

> <r_mmod_Potential_Energy-OPLS-2005>
-9.82831764221191

> <r_mmod_Stretch_Energy-OPLS-2005>
55.8610610961914

> <r_mmod_Bend_Energy-OPLS-2005>
121.364753723145

> <r_mmod_Torsional_Energy-OPLS-2005>
211.303573608398

> <r_mmod_Improper_Torsional_Energy-OPLS-2005>
3.75865864753723

> <r_mmod_Van_der_Waal_Energy-OPLS-2005>
147.140365600586

> <r_mmod_Electrostatic_Energy-OPLS-2005>
-342.888519287109

> <r_mmod_Solvation_Energy-OPLS-2005>
-232.127990722656

> <b_mmod_Minimization_Converged-OPLS-2005>
0

> <r_mmod_RMS_Derivative-OPLS-2005>
3.11698698997498

$$$$
6
                    3D
 Structure written by MMmdl.
171179  0  0  1  0            999 V2000
  -30.2687  -15.0352   20.4955 C   0  0  0  0  0  0
  -30.4281  -12.6579   19.5231 C   0  0  0  0  0  0
  -29.5196  -12.5661   18.2717 C   0  0  0  0  0  0
  -28.0476  -12.3231   18.6658 C   0  0  0  0  0  0
  -27.6095  -13.2272   19.8451 C   0  0  2  0  0  0
  -28.6203  -13.1838   20.9996 C   0  0  0  0  0  0
  -25.2373  -13.8168   20.5683 C   0  0  0  0  0  0
  -24.1673  -13.0409   20.9199 C   0  0  0  0  0  0
  -24.6269  -11.6893   20.8721 C   0  0  0  0  0  0
  -23.8989  -10.4268   21.0403 C   0  0  0  0  0  0
  -24.3566   -9.4201   21.9183 C   0  0  0  0  0  0
  -23.6256   -8.2228   22.0759 C   0  0  0  0  0  0
  -22.4246   -8.0249   21.3541 C   0  0  0  0  0  0
  -21.9859   -9.0214   20.4648 C   0  0  0  0  0  0
  -22.7164  -10.2102   20.3052 C   0  0  0  0  0  0
  -21.6843   -6.0708   22.5279 C   0  0  0  0  0  0
  -21.4005   -6.5627   23.8209 C   0  0  0  0  0  0
  -21.3657   -5.6786   24.9174 C   0  0  0  0  0  0
  -21.6055   -4.3051   24.7232 C   0  0  0  0  0  0
  -21.8816   -3.8132   23.4355 C   0  0  0  0  0  0
  -21.9183   -4.6937   22.3406 C   0  0  0  0  0  0
  -22.7731  -13.5222   21.1893 C   0  0  0  0  0  0
  -22.1658   -4.2129   21.0981 F   0  0  0  0  0  0
  -21.5633   -3.4539   25.7746 F   0  0  0  0  0  0
  -29.8656  -13.6978   20.4444 N   0  0  0  0  0  0
  -26.2699  -12.9315   20.3144 N   0  0  0  0  0  0
  -25.9169  -11.6476   20.5649 N   0  0  0  0  0  0
  -22.0387  -12.8195   22.0443 N   0  0  0  0  0  0
  -25.4176  -15.1883   20.4213 N   0  0  0  0  0  0
  -31.4414  -15.2194   20.1202 O   0  0  0  0  0  0
  -21.6629   -6.8838   21.4235 O   0  0  0  0  0  0
  -22.3427  -14.5529   20.6750 O   0  0  0  0  0  0
  -24.5181  -31.9384   23.3560 C   0  0  0  0  0  0
  -25.8810  -32.4671   23.8894 C   0  0  1  0  0  0
  -27.8783  -26.9878   19.7565 C   0  0  0  0  0  0
  -25.6181  -33.8702   24.2384 N   0  0  0  0  0  0
  -23.1823  -30.5762   21.8726 C   0  0  2  0  0  0
  -25.6661  -28.2456   19.8547 C   0  0  0  0  0  0
  -22.5302  -29.5905   22.8369 C   0  0  0  0  0  0
  -17.9594  -28.1224   22.8626 C   0  0  0  0  0  0
  -24.1559  -36.7275   23.2560 C   0  0  0  0  0  0
  -25.1920  -31.0736   21.0425 C   0  0  0  0  0  0
  -26.3120  -28.6030   20.2688 C   0  0  0  0  0  0
  -27.5044  -27.8981   20.6455 C   0  0  0  0  0  0
  -26.8886  -26.3753   19.0088 C   0  0  0  0  0  0
  -25.6876  -26.9944   19.1124 C   0  0  0  0  0  0
  -23.5489  -29.8821   20.5940 C   0  0  0  0  0  0
  -25.4216  -36.3076   24.0204 C   0  0  1  0  0  0
  -20.4799  -28.3160   23.2091 C   0  0  2  0  0  0
  -20.6054  -26.9425   22.5226 C   0  0  0  0  0  0
  -19.5038  -26.6464   21.5110 C   0  0  0  0  0  0
  -18.1313  -26.7796   22.1703 C   0  0  0  0  0  0
  -19.0727  -28.8527   23.3345 C   0  0  0  0  0  0
  -18.8866  -30.1218   23.9235 C   0  0  0  0  0  0
  -17.5964  -30.6568   24.0620 C   0  0  0  0  0  0
  -25.9193  -34.9430   23.5011 C   0  0  0  0  0  0
  -16.4856  -29.9169   23.6217 C   0  0  0  0  0  0
  -16.6669  -28.6549   23.0263 C   0  0  0  0  0  0
  -26.4021  -31.7110   25.1915 C   0  0  0  0  0  0
  -25.3116  -31.5382   26.2685 C   0  0  0  0  0  0
  -26.9328  -30.2868   24.9686 C   0  0  0  0  0  0
  -27.5856  -32.4958   25.8069 C   0  0  0  0  0  0
  -27.5606  -37.1833   24.8443 C   0  0  0  0  0  0
  -21.2740  -29.3054   22.5327 N   0  0  0  0  0  0
  -26.4360  -37.3787   23.9334 N   0  0  0  0  0  0
  -24.3686  -31.2349   22.2189 N   0  0  0  0  0  0
  -23.1496  -29.0137   23.7280 O   0  0  0  0  0  0
  -28.9262  -27.5446   19.1502 O   0  0  0  0  0  0
  -26.5601  -34.8739   22.4512 O   0  0  0  0  0  0
  -23.5005  -32.2191   23.9937 O   0  0  0  0  0  0
  -25.2968  -28.7922   22.2316 C   0  0  0  0  0  0
  -23.7496  -28.5495   18.9083 C   0  0  0  0  0  0
  -23.9188  -27.7306   21.0253 C   0  0  0  0  0  0
  -26.9747  -30.0687   21.7124 C   0  0  0  0  0  0
  -26.7867  -30.6119   19.5806 C   0  0  0  0  0  0
  -28.3207  -30.2971   22.4008 C   0  0  0  0  0  0
  -23.9419  -26.0245   21.1815 C   0  0  0  0  0  0
  -28.1327  -30.3041   18.7925 C   0  0  0  0  0  0
  -29.2935  -16.3424   21.0322 C   0  0  0  0  0  0
  -25.2509  -24.8881   21.4289 C   0  0  0  0  0  0
  -28.7947  -17.8564   20.3380 C   0  0  0  0  0  0
  -25.6155  -23.3496   20.6967 C   0  0  0  0  0  0
  -27.9597  -19.1821   21.1042 C   0  0  0  0  0  0
  -26.6006  -22.0311   21.2689 C   0  0  0  0  0  0
  -27.2380  -20.6281   20.4538 C   0  0  0  0  0  0
  -28.5866  -28.7831   18.3265 C   0  0  0  0  0  0
  -25.1171  -30.0486   18.6349 N   0  0  0  0  0  0
  -31.4499  -12.8938   19.2218 H   0  0  0  0  0  0
  -30.4845  -11.6926   20.0283 H   0  0  0  0  0  0
  -29.8688  -11.7769   17.6059 H   0  0  0  0  0  0
  -29.5950  -13.4945   17.7061 H   0  0  0  0  0  0
  -27.9500  -11.2749   18.9511 H   0  0  0  0  0  0
  -27.3893  -12.4721   17.8089 H   0  0  0  0  0  0
  -27.5899  -14.2433   19.4491 H   0  0  0  0  0  0
  -28.7424  -12.1688   21.3817 H   0  0  0  0  0  0
  -28.2845  -13.7792   21.8483 H   0  0  0  0  0  0
  -25.2706   -9.5703   22.4764 H   0  0  0  0  0  0
  -23.9983   -7.4624   22.7475 H   0  0  0  0  0  0
  -21.0796   -8.8696   19.8954 H   0  0  0  0  0  0
  -22.3592  -10.9634   19.6169 H   0  0  0  0  0  0
  -21.1993   -7.6139   23.9701 H   0  0  0  0  0  0
  -21.1494   -6.0526   25.9077 H   0  0  0  0  0  0
  -22.0597   -2.7597   23.2860 H   0  0  0  0  0  0
  -22.4005  -11.9850   22.4813 H   0  0  0  0  0  0
  -21.1020  -13.1246   22.2680 H   0  0  0  0  0  0
  -24.6693  -15.8571   20.5683 H   0  0  0  0  0  0
  -26.2841  -15.6231   20.1296 H   0  0  0  0  0  0
  -26.6458  -32.4407   23.1228 H   0  0  0  0  0  0
  -25.0550  -34.0165   25.0630 H   0  0  0  0  0  0
  -22.4401  -31.3539   21.6707 H   0  0  0  0  0  0
  -23.3838  -35.9592   23.3200 H   0  0  0  0  0  0
  -24.3614  -36.8925   22.1977 H   0  0  0  0  0  0
  -23.7302  -37.6460   23.6610 H   0  0  0  0  0  0
  -24.8005  -31.7595   20.2650 H   0  0  0  0  0  0
  -25.8587  -31.9392   21.2369 H   0  0  0  0  0  0
  -28.3334  -28.2582   21.2243 H   0  0  0  0  0  0
  -27.0794  -25.6063   18.2738 H   0  0  0  0  0  0
  -24.8701  -26.5167   18.5875 H   0  0  0  0  0  0
  -23.2305  -30.6357   19.8431 H   0  0  0  0  0  0
  -22.5229  -29.4759   20.4709 H   0  0  0  0  0  0
  -25.1382  -36.1943   25.0690 H   0  0  0  0  0  0
  -20.8412  -28.2036   24.2345 H   0  0  0  0  0  0
  -20.5851  -26.1626   23.2865 H   0  0  0  0  0  0
  -21.5602  -26.8709   22.0250 H   0  0  0  0  0  0
  -19.6250  -25.6473   21.0912 H   0  0  0  0  0  0
  -19.5789  -27.3425   20.6762 H   0  0  0  0  0  0
  -17.3506  -26.6435   21.4196 H   0  0  0  0  0  0
  -17.9919  -25.9885   22.9089 H   0  0  0  0  0  0
  -19.7356  -30.6886   24.2789 H   0  0  0  0  0  0
  -17.4562  -31.6285   24.5156 H   0  0  0  0  0  0
  -15.4881  -30.3202   23.7356 H   0  0  0  0  0  0
  -15.8048  -28.1013   22.6800 H   0  0  0  0  0  0
  -24.5393  -30.8248   25.9749 H   0  0  0  0  0  0
  -24.8212  -32.4857   26.4967 H   0  0  0  0  0  0
  -25.7315  -31.1799   27.2094 H   0  0  0  0  0  0
  -26.4428  -29.7973   24.1547 H   0  0  0  0  0  0
  -26.7449  -29.6407   25.8280 H   0  0  0  0  0  0
  -28.0155  -30.2513   24.8852 H   0  0  0  0  0  0
  -27.2853  -33.4769   26.1765 H   0  0  0  0  0  0
  -28.3841  -32.6539   25.0798 H   0  0  0  0  0  0
  -28.0198  -31.9688   26.6584 H   0  0  0  0  0  0
  -28.2614  -38.0144   24.7508 H   0  0  0  0  0  0
  -28.1123  -36.2667   24.6304 H   0  0  0  0  0  0
  -27.2272  -37.1486   25.8830 H   0  0  0  0  0  0
  -20.8307  -29.7996   21.7734 H   0  0  0  0  0  0
  -26.0202  -38.2844   24.1337 H   0  0  0  0  0  0
  -25.4544  -28.2733   23.1641 H   0  0  0  0  0  0
  -23.1801  -28.1370   18.0889 H   0  0  0  0  0  0
  -28.3807  -31.2264   22.9593 H   0  0  0  0  0  0
  -29.0928  -30.3714   21.6367 H   0  0  0  0  0  0
  -28.6022  -29.4485   23.0238 H   0  0  0  0  0  0
  -23.3846  -25.6620   20.3165 H   0  0  0  0  0  0
  -23.2944  -25.7977   22.0243 H   0  0  0  0  0  0
  -28.9438  -30.7271   19.3835 H   0  0  0  0  0  0
  -28.0972  -30.9224   17.8951 H   0  0  0  0  0  0
  -28.3648  -15.8917   21.3742 H   0  0  0  0  0  0
  -29.7938  -16.6280   21.9575 H   0  0  0  0  0  0
  -25.1798  -24.6545   22.4918 H   0  0  0  0  0  0
  -26.1746  -25.4594   21.3964 H   0  0  0  0  0  0
  -28.1807  -17.5816   19.4810 H   0  0  0  0  0  0
  -29.6879  -18.2837   19.8827 H   0  0  0  0  0  0
  -26.0021  -23.5995   19.7076 H   0  0  0  0  0  0
  -24.6454  -22.8996   20.4856 H   0  0  0  0  0  0
  -28.6477  -19.5317   21.8741 H   0  0  0  0  0  0
  -27.1550  -18.7094   21.6684 H   0  0  0  0  0  0
  -26.0457  -21.6302   22.1161 H   0  0  0  0  0  0
  -27.4681  -22.5024   21.7323 H   0  0  0  0  0  0
  -26.4328  -20.2802   19.8056 H   0  0  0  0  0  0
  -27.9792  -21.0231   19.7571 H   0  0  0  0  0  0
  -29.4916  -28.9378   17.7381 H   0  0  0  0  0  0
  -27.8554  -28.4737   17.5782 H   0  0  0  0  0  0
  1 25  1  0  0  0
  1 30  2  0  0  0
  1 79  1  0  0  0
  2  3  1  0  0  0
  2 25  1  0  0  0
  2 88  1  0  0  0
  2 89  1  0  0  0
  3  4  1  0  0  0
  3 90  1  0  0  0
  3 91  1  0  0  0
  4  5  1  0  0  0
  4 92  1  0  0  0
  4 93  1  0  0  0
  5  6  1  0  0  0
  5 26  1  0  0  0
  5 94  1  0  0  0
  6 25  1  0  0  0
  6 95  1  0  0  0
  6 96  1  0  0  0
  7  8  2  0  0  0
  7 26  1  0  0  0
  7 29  1  0  0  0
  8  9  1  0  0  0
  8 22  1  0  0  0
  9 10  1  0  0  0
  9 27  2  0  0  0
 10 11  2  0  0  0
 10 15  1  0  0  0
 11 12  1  0  0  0
 11 97  1  0  0  0
 12 13  2  0  0  0
 12 98  1  0  0  0
 13 14  1  0  0  0
 13 31  1  0  0  0
 14 15  2  0  0  0
 14 99  1  0  0  0
 15100  1  0  0  0
 16 17  2  0  0  0
 16 21  1  0  0  0
 16 31  1  0  0  0
 17 18  1  0  0  0
 17101  1  0  0  0
 18 19  2  0  0  0
 18102  1  0  0  0
 19 20  1  0  0  0
 19 24  1  0  0  0
 20 21  2  0  0  0
 20103  1  0  0  0
 21 23  1  0  0  0
 22 28  1  0  0  0
 22 32  2  0  0  0
 26 27  1  0  0  0
 28104  1  0  0  0
 28105  1  0  0  0
 29106  1  0  0  0
 29107  1  0  0  0
 33 34  1  0  0  0
 33 66  1  0  0  0
 33 70  2  0  0  0
 34 36  1  0  0  0
 34 59  1  0  0  0
 34108  1  0  0  0
 35 44  2  0  0  0
 35 45  1  0  0  0
 35 68  1  0  0  0
 36 56  1  0  0  0
 36109  1  0  0  0
 37 39  1  0  0  0
 37 47  1  0  0  0
 37 66  1  0  0  0
 37110  1  0  0  0
 38 43  2  0  0  0
 38 46  1  0  0  0
 38 47  1  0  0  0
 39 64  1  0  0  0
 39 67  2  0  0  0
 40 52  1  0  0  0
 40 53  2  0  0  0
 40 58  1  0  0  0
 41111  1  0  0  0
 41112  1  0  0  0
 41113  1  0  0  0
 41 48  1  0  0  0
 42 43  1  0  0  0
 42 66  1  0  0  0
 42114  1  0  0  0
 42115  1  0  0  0
 43 44  1  0  0  0
 44116  1  0  0  0
 45 46  2  0  0  0
 45117  1  0  0  0
 46118  1  0  0  0
 47119  1  0  0  0
 47120  1  0  0  0
 48 56  1  0  0  0
 48 65  1  0  0  0
 48121  1  0  0  0
 49 50  1  0  0  0
 49 53  1  0  0  0
 49 64  1  0  0  0
 49122  1  0  0  0
 50 51  1  0  0  0
 50123  1  0  0  0
 50124  1  0  0  0
 51 52  1  0  0  0
 51125  1  0  0  0
 51126  1  0  0  0
 52127  1  0  0  0
 52128  1  0  0  0
 53 54  1  0  0  0
 54 55  2  0  0  0
 54129  1  0  0  0
 55 57  1  0  0  0
 55130  1  0  0  0
 56 69  2  0  0  0
 57 58  2  0  0  0
 57131  1  0  0  0
 58132  1  0  0  0
 59 60  1  0  0  0
 59 61  1  0  0  0
 59 62  1  0  0  0
 60133  1  0  0  0
 60134  1  0  0  0
 60135  1  0  0  0
 61136  1  0  0  0
 61137  1  0  0  0
 61138  1  0  0  0
 62139  1  0  0  0
 62140  1  0  0  0
 62141  1  0  0  0
 63 65  1  0  0  0
 63142  1  0  0  0
 63143  1  0  0  0
 63144  1  0  0  0
 64145  1  0  0  0
 65146  1  0  0  0
 68 86  1  0  0  0
 71 73  2  0  0  0
 71 74  1  0  0  0
 71147  1  0  0  0
 72 73  1  0  0  0
 72 87  2  0  0  0
 72148  1  0  0  0
 73 77  1  0  0  0
 74 75  2  0  0  0
 74 76  1  0  0  0
 75 78  1  0  0  0
 75 87  1  0  0  0
 76149  1  0  0  0
 76150  1  0  0  0
 76151  1  0  0  0
 77 80  1  0  0  0
 77152  1  0  0  0
 77153  1  0  0  0
 78 86  1  0  0  0
 78154  1  0  0  0
 78155  1  0  0  0
 79 81  1  0  0  0
 79156  1  0  0  0
 79157  1  0  0  0
 80 82  1  0  0  0
 80158  1  0  0  0
 80159  1  0  0  0
 81 83  1  0  0  0
 81160  1  0  0  0
 81161  1  0  0  0
 82 84  1  0  0  0
 82162  1  0  0  0
 82163  1  0  0  0
 83 85  1  0  0  0
 83164  1  0  0  0
 83165  1  0  0  0
 84 85  1  0  0  0
 84166  1  0  0  0
 84167  1  0  0  0
 85168  1  0  0  0
 85169  1  0  0  0
 86170  1  0  0  0
 86171  1  0  0  0
M  ISO  4   1 100  68 101  79 100  86 101
M  END
> <chiral flag>
0

> <version>
0

> <s_m_source_file>
/data/baiqing/PycharmProjects/Reinvent-master-3.2/result/LINK_invent/BTK/process_docking_weight1_custom_sum_contain_oxygen_bond_distance_aromatic_linkinvent_7_9_3/rearranged_h_0038.sdf

> <i_m_source_file_index>
7

> <r_mmod_Potential_Energy-OPLS-2005>
19378.025390625

> <r_mmod_Stretch_Energy-OPLS-2005>
12438.4462890625

> <r_mmod_Bend_Energy-OPLS-2005>
861.589599609375

> <r_mmod_Torsional_Energy-OPLS-2005>
498.988189697266

> <r_mmod_Improper_Torsional_Energy-OPLS-2005>
65.3650207519531

> <r_mmod_Van_der_Waal_Energy-OPLS-2005>
4901.330078125

> <r_mmod_Electrostatic_Energy-OPLS-2005>
-399.780670166016

> <r_mmod_Solvation_Energy-OPLS-2005>
-192.384048461914

> <b_mmod_Minimization_Converged-OPLS-2005>
0

> <r_mmod_RMS_Derivative-OPLS-2005>
5.48262405395508

$$$$
7
                    3D
 Structure written by MMmdl.
162170  0  0  1  0            999 V2000
  -30.7005  -14.4784   20.5314 C   0  0  0  0  0  0
  -30.4246  -12.2975   19.4390 C   0  0  0  0  0  0
  -29.5029  -12.4986   18.2154 C   0  0  0  0  0  0
  -28.0230  -12.3586   18.6224 C   0  0  0  0  0  0
  -27.6650  -13.2065   19.8742 C   0  0  2  0  0  0
  -28.7060  -13.0045   21.0044 C   0  0  0  0  0  0
  -25.2617  -13.8149   20.5668 C   0  0  0  0  0  0
  -24.1860  -13.0443   20.9168 C   0  0  0  0  0  0
  -24.6404  -11.6902   20.8727 C   0  0  0  0  0  0
  -23.9066  -10.4286   21.0420 C   0  0  0  0  0  0
  -24.3620   -9.4192   21.9192 C   0  0  0  0  0  0
  -23.6290   -8.2237   22.0763 C   0  0  0  0  0  0
  -22.4275   -8.0285   21.3549 C   0  0  0  0  0  0
  -21.9904   -9.0269   20.4649 C   0  0  0  0  0  0
  -22.7240  -10.2142   20.3057 C   0  0  0  0  0  0
  -21.6841   -6.0726   22.5270 C   0  0  0  0  0  0
  -21.4009   -6.5634   23.8203 C   0  0  0  0  0  0
  -21.3655   -5.6783   24.9168 C   0  0  0  0  0  0
  -21.6042   -4.3044   24.7214 C   0  0  0  0  0  0
  -21.8819   -3.8133   23.4331 C   0  0  0  0  0  0
  -21.9191   -4.6956   22.3383 C   0  0  0  0  0  0
  -22.7876  -13.5270   21.1814 C   0  0  0  0  0  0
  -22.1672   -4.2141   21.0961 F   0  0  0  0  0  0
  -21.5625   -3.4526   25.7725 F   0  0  0  0  0  0
  -30.0405  -13.2920   20.4528 N   0  0  0  0  0  0
  -26.3052  -12.9320   20.3350 N   0  0  0  0  0  0
  -25.9334  -11.6480   20.5760 N   0  0  0  0  0  0
  -22.0503  -12.8290   22.0377 N   0  0  0  0  0  0
  -25.4339  -15.1865   20.4073 N   0  0  0  0  0  0
  -31.8387  -14.6429   20.0871 O   0  0  0  0  0  0
  -21.6638   -6.8893   21.4242 O   0  0  0  0  0  0
  -22.3579  -14.5570   20.6640 O   0  0  0  0  0  0
  -24.6144  -31.8681   23.2098 C   0  0  0  0  0  0
  -25.9037  -32.4825   23.8396 C   0  0  1  0  0  0
  -27.2387  -27.4534   20.0891 C   0  0  0  0  0  0
  -25.5896  -33.8620   24.2332 N   0  0  0  0  0  0
  -23.4034  -30.4908   21.5490 C   0  0  2  0  0  0
  -24.8541  -28.9648   20.1058 C   0  0  0  0  0  0
  -22.7411  -29.4653   22.4982 C   0  0  0  0  0  0
  -18.0277  -28.1373   22.8493 C   0  0  0  0  0  0
  -24.1490  -36.7320   23.2637 C   0  0  0  0  0  0
  -25.9304  -30.8419   21.3594 C   0  0  0  0  0  0
  -26.0139  -29.4798   20.7005 C   0  0  0  0  0  0
  -27.2128  -28.7306   20.6928 C   0  0  0  0  0  0
  -26.0667  -26.9456   19.4970 C   0  0  0  0  0  0
  -24.8753  -27.6961   19.4975 C   0  0  0  0  0  0
  -23.6110  -29.8245   20.1620 C   0  0  0  0  0  0
  -25.4111  -36.3114   24.0343 C   0  0  1  0  0  0
  -20.5864  -28.3663   23.1318 C   0  0  2  0  0  0
  -20.6766  -26.9400   22.5417 C   0  0  0  0  0  0
  -19.5741  -26.6383   21.5215 C   0  0  0  0  0  0
  -18.1921  -26.7921   22.1622 C   0  0  0  0  0  0
  -19.1522  -28.8835   23.2899 C   0  0  0  0  0  0
  -18.9452  -30.1444   23.8913 C   0  0  0  0  0  0
  -17.6451  -30.6577   24.0569 C   0  0  0  0  0  0
  -25.9030  -34.9481   23.5133 C   0  0  0  0  0  0
  -16.5346  -29.9084   23.6323 C   0  0  0  0  0  0
  -16.7264  -28.6498   23.0348 C   0  0  0  0  0  0
  -26.4473  -31.6602   25.0718 C   0  0  0  0  0  0
  -25.3754  -31.3703   26.1478 C   0  0  0  0  0  0
  -27.0285  -30.3043   24.6076 C   0  0  0  0  0  0
  -27.6070  -32.4305   25.7464 C   0  0  0  0  0  0
  -27.5585  -37.1811   24.8466 C   0  0  0  0  0  0
  -21.4139  -29.3028   22.3718 N   0  0  0  0  0  0
  -26.4298  -37.3799   23.9403 N   0  0  0  0  0  0
  -24.6678  -31.0797   22.0987 N   0  0  0  0  0  0
  -23.4186  -28.8196   23.3022 O   0  0  0  0  0  0
  -28.3271  -26.6236   20.1805 O   0  0  0  0  0  0
  -26.5591  -34.8932   22.4689 O   0  0  0  0  0  0
  -23.5335  -32.1421   23.7502 O   0  0  0  0  0  0
  -29.4665  -21.6958   18.3187 C   0  0  0  0  0  0
  -29.7065  -24.0681   17.8125 C   0  0  0  0  0  0
  -30.1290  -23.2489   20.0721 C   0  0  0  0  0  0
  -29.4017  -22.7593   17.3987 C   0  0  0  0  0  0
  -29.8373  -21.9205   19.6667 C   0  0  0  0  0  0
  -30.0690  -24.3268   19.1490 C   0  0  0  0  0  0
  -29.0305  -22.4969   15.9539 C   0  0  0  0  0  0
  -29.9374  -20.7582   20.6747 C   0  0  0  0  0  0
  -30.4725  -25.7489   19.5499 C   0  0  0  0  0  0
  -29.9013  -19.3414   20.0426 C   0  0  0  0  0  0
  -30.0057  -18.1129   20.9837 C   0  0  0  0  0  0
  -30.0023  -16.8170   20.1347 C   0  0  0  0  0  0
  -29.4096  -26.8483   19.2992 C   0  0  0  0  0  0
  -29.9379  -15.5391   20.8651 N   0  0  0  0  0  0
  -31.4729  -12.3800   19.1445 H   0  0  0  0  0  0
  -30.3091  -11.2903   19.8426 H   0  0  0  0  0  0
  -29.7473  -11.7722   17.4394 H   0  0  0  0  0  0
  -29.6717  -13.4814   17.7726 H   0  0  0  0  0  0
  -27.8356  -11.3035   18.8242 H   0  0  0  0  0  0
  -27.3783  -12.6280   17.7838 H   0  0  0  0  0  0
  -27.7023  -14.2505   19.5626 H   0  0  0  0  0  0
  -28.6770  -11.9756   21.3678 H   0  0  0  0  0  0
  -28.4733  -13.6314   21.8681 H   0  0  0  0  0  0
  -25.2780   -9.5619   22.4764 H   0  0  0  0  0  0
  -23.9963   -7.4619   22.7491 H   0  0  0  0  0  0
  -21.0819   -8.8800   19.8981 H   0  0  0  0  0  0
  -22.3723  -10.9686   19.6151 H   0  0  0  0  0  0
  -21.2022   -7.6145   23.9711 H   0  0  0  0  0  0
  -21.1486   -6.0519   25.9074 H   0  0  0  0  0  0
  -22.0611   -2.7594   23.2837 H   0  0  0  0  0  0
  -22.4123  -11.9954   22.4765 H   0  0  0  0  0  0
  -21.1129  -13.1343   22.2596 H   0  0  0  0  0  0
  -24.6653  -15.8401   20.5083 H   0  0  0  0  0  0
  -26.2810  -15.6188   20.0594 H   0  0  0  0  0  0
  -26.7111  -32.5556   23.1170 H   0  0  0  0  0  0
  -25.0074  -33.9777   25.0493 H   0  0  0  0  0  0
  -22.6921  -31.3075   21.4109 H   0  0  0  0  0  0
  -23.3740  -35.9666   23.3320 H   0  0  0  0  0  0
  -24.3583  -36.8903   22.2045 H   0  0  0  0  0  0
  -23.7259  -37.6541   23.6629 H   0  0  0  0  0  0
  -26.0390  -31.6126   20.5951 H   0  0  0  0  0  0
  -26.8189  -30.8956   21.9769 H   0  0  0  0  0  0
  -28.1010  -29.1126   21.1763 H   0  0  0  0  0  0
  -26.0722  -25.9586   19.0571 H   0  0  0  0  0  0
  -23.9822  -27.2899   19.0430 H   0  0  0  0  0  0
  -23.7113  -30.6008   19.4024 H   0  0  0  0  0  0
  -22.7375  -29.2394   19.8690 H   0  0  0  0  0  0
  -25.1284  -36.1995   25.0838 H   0  0  0  0  0  0
  -20.9955  -28.3235   24.1436 H   0  0  0  0  0  0
  -20.5663  -26.2274   23.3606 H   0  0  0  0  0  0
  -21.6634  -26.7443   22.1215 H   0  0  0  0  0  0
  -19.6904  -25.6297   21.1230 H   0  0  0  0  0  0
  -19.6680  -27.3204   20.6751 H   0  0  0  0  0  0
  -17.4193  -26.6677   21.4024 H   0  0  0  0  0  0
  -18.0319  -26.0059   22.9013 H   0  0  0  0  0  0
  -19.7926  -30.7258   24.2292 H   0  0  0  0  0  0
  -17.5005  -31.6259   24.5166 H   0  0  0  0  0  0
  -15.5349  -30.2990   23.7630 H   0  0  0  0  0  0
  -15.8663  -28.0825   22.7056 H   0  0  0  0  0  0
  -24.5918  -30.7061   25.7813 H   0  0  0  0  0  0
  -24.8965  -32.2864   26.4949 H   0  0  0  0  0  0
  -25.8124  -30.8851   27.0215 H   0  0  0  0  0  0
  -26.2806  -29.6807   24.1166 H   0  0  0  0  0  0
  -27.4090  -29.7278   25.4515 H   0  0  0  0  0  0
  -27.8629  -30.4351   23.9184 H   0  0  0  0  0  0
  -27.2719  -33.3601   26.2076 H   0  0  0  0  0  0
  -28.3860  -32.6868   25.0272 H   0  0  0  0  0  0
  -28.0760  -31.8407   26.5349 H   0  0  0  0  0  0
  -28.2625  -38.0087   24.7495 H   0  0  0  0  0  0
  -28.1058  -36.2622   24.6315 H   0  0  0  0  0  0
  -27.2301  -37.1490   25.8869 H   0  0  0  0  0  0
  -20.9302  -29.8760   21.6947 H   0  0  0  0  0  0
  -26.0198  -38.2881   24.1389 H   0  0  0  0  0  0
  -29.2399  -20.7039   17.9580 H   0  0  0  0  0  0
  -29.6794  -24.8730   17.0907 H   0  0  0  0  0  0
  -30.4247  -23.4378   21.0958 H   0  0  0  0  0  0
  -28.6603  -21.4809   15.8110 H   0  0  0  0  0  0
  -29.9007  -22.6338   15.3111 H   0  0  0  0  0  0
  -28.2522  -23.1868   15.6262 H   0  0  0  0  0  0
  -29.1265  -20.8617   21.3974 H   0  0  0  0  0  0
  -30.8647  -20.8740   21.2389 H   0  0  0  0  0  0
  -31.3781  -26.0017   18.9965 H   0  0  0  0  0  0
  -30.7572  -25.7610   20.6021 H   0  0  0  0  0  0
  -30.7038  -19.2776   19.3055 H   0  0  0  0  0  0
  -28.9629  -19.2359   19.4972 H   0  0  0  0  0  0
  -29.1685  -18.1097   21.6846 H   0  0  0  0  0  0
  -30.9198  -18.1656   21.5768 H   0  0  0  0  0  0
  -30.8556  -16.8466   19.4544 H   0  0  0  0  0  0
  -29.1248  -16.8265   19.4868 H   0  0  0  0  0  0
  -29.0697  -26.8453   18.2630 H   0  0  0  0  0  0
  -29.8388  -27.8296   19.5007 H   0  0  0  0  0  0
  -29.0465  -15.3097   21.2794 H   0  0  0  0  0  0
  1 25  1  0  0  0
  1 30  2  0  0  0
  1 84  1  0  0  0
  2  3  1  0  0  0
  2 25  1  0  0  0
  2 85  1  0  0  0
  2 86  1  0  0  0
  3  4  1  0  0  0
  3 87  1  0  0  0
  3 88  1  0  0  0
  4  5  1  0  0  0
  4 89  1  0  0  0
  4 90  1  0  0  0
  5  6  1  0  0  0
  5 26  1  0  0  0
  5 91  1  0  0  0
  6 25  1  0  0  0
  6 92  1  0  0  0
  6 93  1  0  0  0
  7  8  2  0  0  0
  7 26  1  0  0  0
  7 29  1  0  0  0
  8  9  1  0  0  0
  8 22  1  0  0  0
  9 10  1  0  0  0
  9 27  2  0  0  0
 10 11  2  0  0  0
 10 15  1  0  0  0
 11 12  1  0  0  0
 11 94  1  0  0  0
 12 13  2  0  0  0
 12 95  1  0  0  0
 13 14  1  0  0  0
 13 31  1  0  0  0
 14 15  2  0  0  0
 14 96  1  0  0  0
 15 97  1  0  0  0
 16 17  2  0  0  0
 16 21  1  0  0  0
 16 31  1  0  0  0
 17 18  1  0  0  0
 17 98  1  0  0  0
 18 19  2  0  0  0
 18 99  1  0  0  0
 19 20  1  0  0  0
 19 24  1  0  0  0
 20 21  2  0  0  0
 20100  1  0  0  0
 21 23  1  0  0  0
 22 28  1  0  0  0
 22 32  2  0  0  0
 26 27  1  0  0  0
 28101  1  0  0  0
 28102  1  0  0  0
 29103  1  0  0  0
 29104  1  0  0  0
 33 34  1  0  0  0
 33 66  1  0  0  0
 33 70  2  0  0  0
 34 36  1  0  0  0
 34 59  1  0  0  0
 34105  1  0  0  0
 35 44  2  0  0  0
 35 45  1  0  0  0
 35 68  1  0  0  0
 36 56  1  0  0  0
 36106  1  0  0  0
 37 39  1  0  0  0
 37 47  1  0  0  0
 37 66  1  0  0  0
 37107  1  0  0  0
 38 43  2  0  0  0
 38 46  1  0  0  0
 38 47  1  0  0  0
 39 64  1  0  0  0
 39 67  2  0  0  0
 40 52  1  0  0  0
 40 53  2  0  0  0
 40 58  1  0  0  0
 41108  1  0  0  0
 41109  1  0  0  0
 41110  1  0  0  0
 41 48  1  0  0  0
 42 43  1  0  0  0
 42 66  1  0  0  0
 42111  1  0  0  0
 42112  1  0  0  0
 43 44  1  0  0  0
 44113  1  0  0  0
 45 46  2  0  0  0
 45114  1  0  0  0
 46115  1  0  0  0
 47116  1  0  0  0
 47117  1  0  0  0
 48 56  1  0  0  0
 48 65  1  0  0  0
 48118  1  0  0  0
 49 50  1  0  0  0
 49 53  1  0  0  0
 49 64  1  0  0  0
 49119  1  0  0  0
 50 51  1  0  0  0
 50120  1  0  0  0
 50121  1  0  0  0
 51 52  1  0  0  0
 51122  1  0  0  0
 51123  1  0  0  0
 52124  1  0  0  0
 52125  1  0  0  0
 53 54  1  0  0  0
 54 55  2  0  0  0
 54126  1  0  0  0
 55 57  1  0  0  0
 55127  1  0  0  0
 56 69  2  0  0  0
 57 58  2  0  0  0
 57128  1  0  0  0
 58129  1  0  0  0
 59 60  1  0  0  0
 59 61  1  0  0  0
 59 62  1  0  0  0
 60130  1  0  0  0
 60131  1  0  0  0
 60132  1  0  0  0
 61133  1  0  0  0
 61134  1  0  0  0
 61135  1  0  0  0
 62136  1  0  0  0
 62137  1  0  0  0
 62138  1  0  0  0
 63 65  1  0  0  0
 63139  1  0  0  0
 63140  1  0  0  0
 63141  1  0  0  0
 64142  1  0  0  0
 65143  1  0  0  0
 68 83  1  0  0  0
 71 74  2  0  0  0
 71 75  1  0  0  0
 71144  1  0  0  0
 72 74  1  0  0  0
 72 76  2  0  0  0
 72145  1  0  0  0
 73 75  2  0  0  0
 73 76  1  0  0  0
 73146  1  0  0  0
 74 77  1  0  0  0
 75 78  1  0  0  0
 76 79  1  0  0  0
 77147  1  0  0  0
 77148  1  0  0  0
 77149  1  0  0  0
 78 80  1  0  0  0
 78150  1  0  0  0
 78151  1  0  0  0
 79 83  1  0  0  0
 79152  1  0  0  0
 79153  1  0  0  0
 80 81  1  0  0  0
 80154  1  0  0  0
 80155  1  0  0  0
 81 82  1  0  0  0
 81156  1  0  0  0
 81157  1  0  0  0
 82 84  1  0  0  0
 82158  1  0  0  0
 82159  1  0  0  0
 83160  1  0  0  0
 83161  1  0  0  0
 84162  1  0  0  0
M  ISO  4   1 100  68 101  83 101  84 100
M  END
> <chiral flag>
0

> <version>
0

> <s_m_source_file>
/data/baiqing/PycharmProjects/Reinvent-master-3.2/result/LINK_invent/BTK/process_docking_weight1_custom_sum_contain_oxygen_bond_distance_aromatic_linkinvent_7_9_3/rearranged_h_0038.sdf

> <i_m_source_file_index>
8

> <r_mmod_Potential_Energy-OPLS-2005>
-32.710994720459

> <r_mmod_Stretch_Energy-OPLS-2005>
37.2079162597656

> <r_mmod_Bend_Energy-OPLS-2005>
97.5409698486328

> <r_mmod_Torsional_Energy-OPLS-2005>
234.848663330078

> <r_mmod_Improper_Torsional_Energy-OPLS-2005>
9.55032157897949

> <r_mmod_Van_der_Waal_Energy-OPLS-2005>
146.943252563477

> <r_mmod_Electrostatic_Energy-OPLS-2005>
-366.645660400391

> <r_mmod_Solvation_Energy-OPLS-2005>
-209.171966552734

> <b_mmod_Minimization_Converged-OPLS-2005>
0

> <r_mmod_RMS_Derivative-OPLS-2005>
2.62386107444763

$$$$
8
                    3D
 Structure written by MMmdl.
163171  0  0  1  0            999 V2000
  -30.6248  -14.6568   20.5084 C   0  0  0  0  0  0
  -30.4390  -12.4000   19.4648 C   0  0  0  0  0  0
  -29.5133  -12.5095   18.2330 C   0  0  0  0  0  0
  -28.0367  -12.3385   18.6423 C   0  0  0  0  0  0
  -27.6534  -13.2177   19.8621 C   0  0  2  0  0  0
  -28.6968  -13.0951   20.9953 C   0  0  0  0  0  0
  -25.2569  -13.8165   20.5695 C   0  0  0  0  0  0
  -24.1824  -13.0430   20.9177 C   0  0  0  0  0  0
  -24.6392  -11.6903   20.8721 C   0  0  0  0  0  0
  -23.9056  -10.4288   21.0393 C   0  0  0  0  0  0
  -24.3607   -9.4202   21.9173 C   0  0  0  0  0  0
  -23.6284   -8.2236   22.0751 C   0  0  0  0  0  0
  -22.4270   -8.0267   21.3534 C   0  0  0  0  0  0
  -21.9902   -9.0245   20.4641 C   0  0  0  0  0  0
  -22.7228  -10.2128   20.3049 C   0  0  0  0  0  0
  -21.6849   -6.0727   22.5272 C   0  0  0  0  0  0
  -21.4017   -6.5635   23.8205 C   0  0  0  0  0  0
  -21.3664   -5.6784   24.9168 C   0  0  0  0  0  0
  -21.6043   -4.3048   24.7216 C   0  0  0  0  0  0
  -21.8819   -3.8142   23.4338 C   0  0  0  0  0  0
  -21.9197   -4.6959   22.3397 C   0  0  0  0  0  0
  -22.7846  -13.5225   21.1845 C   0  0  0  0  0  0
  -22.1659   -4.2143   21.0975 F   0  0  0  0  0  0
  -21.5636   -3.4535   25.7732 F   0  0  0  0  0  0
  -30.0115  -13.4304   20.4343 N   0  0  0  0  0  0
  -26.2992  -12.9347   20.3321 N   0  0  0  0  0  0
  -25.9324  -11.6502   20.5754 N   0  0  0  0  0  0
  -22.0494  -12.8217   22.0406 N   0  0  0  0  0  0
  -25.4297  -15.1882   20.4129 N   0  0  0  0  0  0
  -31.7806  -14.7913   20.0969 O   0  0  0  0  0  0
  -21.6633   -6.8865   21.4229 O   0  0  0  0  0  0
  -22.3526  -14.5531   20.6703 O   0  0  0  0  0  0
  -24.6245  -31.8603   23.2024 C   0  0  0  0  0  0
  -25.9090  -32.4777   23.8357 C   0  0  1  0  0  0
  -27.2258  -27.3167   20.1174 C   0  0  0  0  0  0
  -25.5908  -33.8582   24.2283 N   0  0  0  0  0  0
  -23.4188  -30.4834   21.5444 C   0  0  2  0  0  0
  -24.8664  -28.9392   20.1075 C   0  0  0  0  0  0
  -22.7470  -29.4625   22.4930 C   0  0  0  0  0  0
  -18.0283  -28.1378   22.8487 C   0  0  0  0  0  0
  -24.1488  -36.7299   23.2641 C   0  0  0  0  0  0
  -25.9596  -30.7876   21.3770 C   0  0  0  0  0  0
  -26.0320  -29.4152   20.7191 C   0  0  0  0  0  0
  -27.2111  -28.6128   20.7192 C   0  0  0  0  0  0
  -26.0429  -26.9050   19.4597 C   0  0  0  0  0  0
  -24.8748  -27.6902   19.4676 C   0  0  0  0  0  0
  -23.6334  -29.8181   20.1591 C   0  0  0  0  0  0
  -25.4112  -36.3090   24.0333 C   0  0  1  0  0  0
  -20.5884  -28.3690   23.1271 C   0  0  2  0  0  0
  -20.6770  -26.9411   22.5403 C   0  0  0  0  0  0
  -19.5747  -26.6381   21.5204 C   0  0  0  0  0  0
  -18.1928  -26.7921   22.1620 C   0  0  0  0  0  0
  -19.1536  -28.8849   23.2878 C   0  0  0  0  0  0
  -18.9463  -30.1447   23.8901 C   0  0  0  0  0  0
  -17.6465  -30.6584   24.0561 C   0  0  0  0  0  0
  -25.9047  -34.9455   23.5113 C   0  0  0  0  0  0
  -16.5355  -29.9086   23.6322 C   0  0  0  0  0  0
  -16.7271  -28.6495   23.0357 C   0  0  0  0  0  0
  -26.4484  -31.6587   25.0727 C   0  0  0  0  0  0
  -25.3720  -31.3719   26.1455 C   0  0  0  0  0  0
  -27.0328  -30.3009   24.6178 C   0  0  0  0  0  0
  -27.6043  -32.4331   25.7493 C   0  0  0  0  0  0
  -27.5582  -37.1802   24.8465 C   0  0  0  0  0  0
  -21.4185  -29.3046   22.3670 N   0  0  0  0  0  0
  -26.4294  -37.3780   23.9408 N   0  0  0  0  0  0
  -24.6859  -31.0616   22.0976 N   0  0  0  0  0  0
  -23.4192  -28.8173   23.3017 O   0  0  0  0  0  0
  -28.3499  -26.4771   20.1997 O   0  0  0  0  0  0
  -26.5630  -34.8919   22.4688 O   0  0  0  0  0  0
  -23.5411  -32.1403   23.7349 O   0  0  0  0  0  0
  -30.7669  -20.1608   19.1300 C   0  0  0  0  0  0
  -29.2903  -21.3572   20.6319 C   0  0  0  0  0  0
  -29.8466  -20.1008   20.1907 C   0  0  0  0  0  0
  -31.1333  -21.3832   18.5290 C   0  0  0  0  0  0
  -29.6361  -22.6328   20.0452 C   0  0  0  0  0  0
  -30.5705  -22.6190   18.9648 C   0  0  0  0  0  0
  -32.1732  -21.3138   17.4170 C   0  0  0  0  0  0
  -30.4071  -24.1509   16.9056 C   0  0  0  0  0  0
  -29.4986  -18.7046   20.8382 C   0  0  0  0  0  0
  -29.1629  -24.0071   20.6756 C   0  0  0  0  0  0
  -31.0257  -23.9232   18.2952 C   0  0  0  0  0  0
  -29.8534  -15.9631   20.9850 C   0  0  0  0  0  0
  -30.2506  -17.3758   20.3422 C   0  0  0  0  0  0
  -28.2521  -25.0341   19.8619 C   0  0  0  0  0  0
  -31.4812  -12.5191   19.1650 H   0  0  0  0  0  0
  -30.3702  -11.4084   19.9149 H   0  0  0  0  0  0
  -29.7829  -11.7601   17.4879 H   0  0  0  0  0  0
  -29.6542  -13.4810   17.7564 H   0  0  0  0  0  0
  -27.8813  -11.2861   18.8839 H   0  0  0  0  0  0
  -27.3833  -12.5563   17.7969 H   0  0  0  0  0  0
  -27.6653  -14.2471   19.5062 H   0  0  0  0  0  0
  -28.7092  -12.0815   21.3984 H   0  0  0  0  0  0
  -28.4437  -13.7456   21.8329 H   0  0  0  0  0  0
  -25.2757   -9.5678   22.4741 H   0  0  0  0  0  0
  -23.9991   -7.4629   22.7474 H   0  0  0  0  0  0
  -21.0834   -8.8761   19.8944 H   0  0  0  0  0  0
  -22.3680  -10.9664   19.6156 H   0  0  0  0  0  0
  -21.2003   -7.6144   23.9709 H   0  0  0  0  0  0
  -21.1492   -6.0517   25.9073 H   0  0  0  0  0  0
  -22.0602   -2.7604   23.2841 H   0  0  0  0  0  0
  -22.4114  -11.9881   22.4794 H   0  0  0  0  0  0
  -21.1114  -13.1245   22.2622 H   0  0  0  0  0  0
  -24.6671  -15.8476   20.5241 H   0  0  0  0  0  0
  -26.2898  -15.6262   20.1079 H   0  0  0  0  0  0
  -26.7160  -32.5450   23.1107 H   0  0  0  0  0  0
  -25.0030  -33.9731   25.0411 H   0  0  0  0  0  0
  -22.7110  -31.3028   21.4015 H   0  0  0  0  0  0
  -23.3749  -35.9631   23.3300 H   0  0  0  0  0  0
  -24.3580  -36.8922   22.2055 H   0  0  0  0  0  0
  -23.7236  -37.6497   23.6667 H   0  0  0  0  0  0
  -26.0941  -31.5496   20.6085 H   0  0  0  0  0  0
  -26.8391  -30.8352   22.0072 H   0  0  0  0  0  0
  -28.1031  -28.9703   21.2144 H   0  0  0  0  0  0
  -25.9872  -25.9662   18.9304 H   0  0  0  0  0  0
  -23.9863  -27.3261   18.9693 H   0  0  0  0  0  0
  -23.7476  -30.5936   19.4009 H   0  0  0  0  0  0
  -22.7532  -29.2455   19.8617 H   0  0  0  0  0  0
  -25.1288  -36.1948   25.0826 H   0  0  0  0  0  0
  -20.9979  -28.3267   24.1390 H   0  0  0  0  0  0
  -20.5653  -26.2312   23.3611 H   0  0  0  0  0  0
  -21.6641  -26.7431   22.1209 H   0  0  0  0  0  0
  -19.6911  -25.6290   21.1237 H   0  0  0  0  0  0
  -19.6673  -27.3185   20.6728 H   0  0  0  0  0  0
  -17.4195  -26.6660   21.4027 H   0  0  0  0  0  0
  -18.0336  -26.0059   22.9015 H   0  0  0  0  0  0
  -19.7940  -30.7256   24.2276 H   0  0  0  0  0  0
  -17.5021  -31.6263   24.5164 H   0  0  0  0  0  0
  -15.5356  -30.2998   23.7631 H   0  0  0  0  0  0
  -15.8670  -28.0810   22.7088 H   0  0  0  0  0  0
  -24.5885  -30.7082   25.7776 H   0  0  0  0  0  0
  -24.8924  -32.2887   26.4898 H   0  0  0  0  0  0
  -25.8041  -30.8876   27.0219 H   0  0  0  0  0  0
  -26.2899  -29.6761   24.1200 H   0  0  0  0  0  0
  -27.4023  -29.7261   25.4680 H   0  0  0  0  0  0
  -27.8776  -30.4294   23.9404 H   0  0  0  0  0  0
  -27.2640  -33.3621   26.2079 H   0  0  0  0  0  0
  -28.3838  -32.6906   25.0312 H   0  0  0  0  0  0
  -28.0730  -31.8457   26.5398 H   0  0  0  0  0  0
  -28.2599  -38.0100   24.7516 H   0  0  0  0  0  0
  -28.1078  -36.2631   24.6288 H   0  0  0  0  0  0
  -27.2307  -37.1450   25.8871 H   0  0  0  0  0  0
  -20.9362  -29.8773   21.6884 H   0  0  0  0  0  0
  -26.0178  -38.2859   24.1397 H   0  0  0  0  0  0
  -31.2240  -19.2507   18.7700 H   0  0  0  0  0  0
  -28.6047  -21.3425   21.4689 H   0  0  0  0  0  0
  -32.6890  -20.3533   17.4204 H   0  0  0  0  0  0
  -32.9477  -22.0720   17.5232 H   0  0  0  0  0  0
  -31.7054  -21.4206   16.4394 H   0  0  0  0  0  0
  -30.7081  -25.1207   16.5095 H   0  0  0  0  0  0
  -29.3187  -24.1315   16.9350 H   0  0  0  0  0  0
  -30.7229  -23.3991   16.1854 H   0  0  0  0  0  0
  -28.4235  -18.5594   20.7217 H   0  0  0  0  0  0
  -29.6638  -18.8045   21.9113 H   0  0  0  0  0  0
  -30.0671  -24.5305   20.9865 H   0  0  0  0  0  0
  -28.6574  -23.7900   21.6170 H   0  0  0  0  0  0
  -32.1118  -23.9348   18.2208 H   0  0  0  0  0  0
  -30.8164  -24.7928   18.9115 H   0  0  0  0  0  0
  -28.7881  -15.8199   20.8155 H   0  0  0  0  0  0
  -29.9727  -16.0234   22.0663 H   0  0  0  0  0  0
  -31.3218  -17.5213   20.4856 H   0  0  0  0  0  0
  -30.1063  -17.2864   19.2651 H   0  0  0  0  0  0
  -27.2361  -24.6603   19.9772 H   0  0  0  0  0  0
  -28.4706  -24.9662   18.8003 H   0  0  0  0  0  0
  1 25  1  0  0  0
  1 30  2  0  0  0
  1 82  1  0  0  0
  2  3  1  0  0  0
  2 25  1  0  0  0
  2 85  1  0  0  0
  2 86  1  0  0  0
  3  4  1  0  0  0
  3 87  1  0  0  0
  3 88  1  0  0  0
  4  5  1  0  0  0
  4 89  1  0  0  0
  4 90  1  0  0  0
  5  6  1  0  0  0
  5 26  1  0  0  0
  5 91  1  0  0  0
  6 25  1  0  0  0
  6 92  1  0  0  0
  6 93  1  0  0  0
  7  8  2  0  0  0
  7 26  1  0  0  0
  7 29  1  0  0  0
  8  9  1  0  0  0
  8 22  1  0  0  0
  9 10  1  0  0  0
  9 27  2  0  0  0
 10 11  2  0  0  0
 10 15  1  0  0  0
 11 12  1  0  0  0
 11 94  1  0  0  0
 12 13  2  0  0  0
 12 95  1  0  0  0
 13 14  1  0  0  0
 13 31  1  0  0  0
 14 15  2  0  0  0
 14 96  1  0  0  0
 15 97  1  0  0  0
 16 17  2  0  0  0
 16 21  1  0  0  0
 16 31  1  0  0  0
 17 18  1  0  0  0
 17 98  1  0  0  0
 18 19  2  0  0  0
 18 99  1  0  0  0
 19 20  1  0  0  0
 19 24  1  0  0  0
 20 21  2  0  0  0
 20100  1  0  0  0
 21 23  1  0  0  0
 22 28  1  0  0  0
 22 32  2  0  0  0
 26 27  1  0  0  0
 28101  1  0  0  0
 28102  1  0  0  0
 29103  1  0  0  0
 29104  1  0  0  0
 33 34  1  0  0  0
 33 66  1  0  0  0
 33 70  2  0  0  0
 34 36  1  0  0  0
 34 59  1  0  0  0
 34105  1  0  0  0
 35 44  2  0  0  0
 35 45  1  0  0  0
 35 68  1  0  0  0
 36 56  1  0  0  0
 36106  1  0  0  0
 37 39  1  0  0  0
 37 47  1  0  0  0
 37 66  1  0  0  0
 37107  1  0  0  0
 38 43  2  0  0  0
 38 46  1  0  0  0
 38 47  1  0  0  0
 39 64  1  0  0  0
 39 67  2  0  0  0
 40 52  1  0  0  0
 40 53  2  0  0  0
 40 58  1  0  0  0
 41108  1  0  0  0
 41109  1  0  0  0
 41110  1  0  0  0
 41 48  1  0  0  0
 42 43  1  0  0  0
 42 66  1  0  0  0
 42111  1  0  0  0
 42112  1  0  0  0
 43 44  1  0  0  0
 44113  1  0  0  0
 45 46  2  0  0  0
 45114  1  0  0  0
 46115  1  0  0  0
 47116  1  0  0  0
 47117  1  0  0  0
 48 56  1  0  0  0
 48 65  1  0  0  0
 48118  1  0  0  0
 49 50  1  0  0  0
 49 53  1  0  0  0
 49 64  1  0  0  0
 49119  1  0  0  0
 50 51  1  0  0  0
 50120  1  0  0  0
 50121  1  0  0  0
 51 52  1  0  0  0
 51122  1  0  0  0
 51123  1  0  0  0
 52124  1  0  0  0
 52125  1  0  0  0
 53 54  1  0  0  0
 54 55  2  0  0  0
 54126  1  0  0  0
 55 57  1  0  0  0
 55127  1  0  0  0
 56 69  2  0  0  0
 57 58  2  0  0  0
 57128  1  0  0  0
 58129  1  0  0  0
 59 60  1  0  0  0
 59 61  1  0  0  0
 59 62  1  0  0  0
 60130  1  0  0  0
 60131  1  0  0  0
 60132  1  0  0  0
 61133  1  0  0  0
 61134  1  0  0  0
 61135  1  0  0  0
 62136  1  0  0  0
 62137  1  0  0  0
 62138  1  0  0  0
 63 65  1  0  0  0
 63139  1  0  0  0
 63140  1  0  0  0
 63141  1  0  0  0
 64142  1  0  0  0
 65143  1  0  0  0
 68 84  1  0  0  0
 71 73  2  0  0  0
 71 74  1  0  0  0
 71144  1  0  0  0
 72 73  1  0  0  0
 72 75  2  0  0  0
 72145  1  0  0  0
 73 79  1  0  0  0
 74 76  2  0  0  0
 74 77  1  0  0  0
 75 76  1  0  0  0
 75 80  1  0  0  0
 76 81  1  0  0  0
 77146  1  0  0  0
 77147  1  0  0  0
 77148  1  0  0  0
 78 81  1  0  0  0
 78149  1  0  0  0
 78150  1  0  0  0
 78151  1  0  0  0
 79 83  1  0  0  0
 79152  1  0  0  0
 79153  1  0  0  0
 80 84  1  0  0  0
 80154  1  0  0  0
 80155  1  0  0  0
 81156  1  0  0  0
 81157  1  0  0  0
 82 83  1  0  0  0
 82158  1  0  0  0
 82159  1  0  0  0
 83160  1  0  0  0
 83161  1  0  0  0
 84162  1  0  0  0
 84163  1  0  0  0
M  ISO  4   1 100  68 101  82 100  84 101
M  END
> <chiral flag>
0

> <version>
0

> <s_m_source_file>
/data/baiqing/PycharmProjects/Reinvent-master-3.2/result/LINK_invent/BTK/process_docking_weight1_custom_sum_contain_oxygen_bond_distance_aromatic_linkinvent_7_9_3/rearranged_h_0038.sdf

> <i_m_source_file_index>
9

> <r_mmod_Potential_Energy-OPLS-2005>
79.6272125244141

> <r_mmod_Stretch_Energy-OPLS-2005>
94.7617263793945

> <r_mmod_Bend_Energy-OPLS-2005>
136.968353271484

> <r_mmod_Torsional_Energy-OPLS-2005>
177.772125244141

> <r_mmod_Improper_Torsional_Energy-OPLS-2005>
3.52350950241089

> <r_mmod_Van_der_Waal_Energy-OPLS-2005>
150.447189331055

> <r_mmod_Electrostatic_Energy-OPLS-2005>
-344.628173828125

> <r_mmod_Solvation_Energy-OPLS-2005>
-191.048599243164

> <b_mmod_Minimization_Converged-OPLS-2005>
0

> <r_mmod_RMS_Derivative-OPLS-2005>
1.37902307510376

$$$$
9
                    3D
 Structure written by MMmdl.
180189  0  0  1  0            999 V2000
  -30.8647  -14.2497   20.7783 C   0  0  0  0  0  0
  -30.4083  -12.2915   19.3602 C   0  0  0  0  0  0
  -29.4673  -12.5455   18.1745 C   0  0  0  0  0  0
  -28.0015  -12.3806   18.6074 C   0  0  0  0  0  0
  -27.6670  -13.2057   19.8760 C   0  0  2  0  0  0
  -28.7097  -12.9646   20.9907 C   0  0  0  0  0  0
  -25.2610  -13.8166   20.5677 C   0  0  0  0  0  0
  -24.1856  -13.0443   20.9162 C   0  0  0  0  0  0
  -24.6404  -11.6907   20.8723 C   0  0  0  0  0  0
  -23.9068  -10.4294   21.0400 C   0  0  0  0  0  0
  -24.3617   -9.4213   21.9179 C   0  0  0  0  0  0
  -23.6291   -8.2249   22.0755 C   0  0  0  0  0  0
  -22.4275   -8.0284   21.3546 C   0  0  0  0  0  0
  -21.9910   -9.0257   20.4649 C   0  0  0  0  0  0
  -22.7237  -10.2135   20.3052 C   0  0  0  0  0  0
  -21.6853   -6.0738   22.5280 C   0  0  0  0  0  0
  -21.4014   -6.5643   23.8216 C   0  0  0  0  0  0
  -21.3659   -5.6798   24.9177 C   0  0  0  0  0  0
  -21.6044   -4.3059   24.7230 C   0  0  0  0  0  0
  -21.8819   -3.8150   23.4349 C   0  0  0  0  0  0
  -21.9192   -4.6965   22.3406 C   0  0  0  0  0  0
  -22.7875  -13.5238   21.1825 C   0  0  0  0  0  0
  -22.1661   -4.2150   21.0981 F   0  0  0  0  0  0
  -21.5628   -3.4541   25.7741 F   0  0  0  0  0  0
  -30.0616  -13.2098   20.4517 N   0  0  0  0  0  0
  -26.3060  -12.9341   20.3386 N   0  0  0  0  0  0
  -25.9335  -11.6495   20.5761 N   0  0  0  0  0  0
  -22.0517  -12.8233   22.0387 N   0  0  0  0  0  0
  -25.4332  -15.1883   20.4095 N   0  0  0  0  0  0
  -31.7682  -14.6766   20.0521 O   0  0  0  0  0  0
  -21.6639   -6.8878   21.4243 O   0  0  0  0  0  0
  -22.3557  -14.5546   20.6677 O   0  0  0  0  0  0
  -24.6140  -31.8717   23.2170 C   0  0  0  0  0  0
  -25.9046  -32.4837   23.8443 C   0  0  1  0  0  0
  -27.2281  -27.4548   20.0754 C   0  0  0  0  0  0
  -25.5901  -33.8631   24.2369 N   0  0  0  0  0  0
  -23.3995  -30.5002   21.5585 C   0  0  2  0  0  0
  -24.8402  -28.9792   20.1169 C   0  0  0  0  0  0
  -22.7405  -29.4682   22.5017 C   0  0  0  0  0  0
  -18.0288  -28.1378   22.8490 C   0  0  0  0  0  0
  -24.1485  -36.7324   23.2646 C   0  0  0  0  0  0
  -25.9301  -30.8430   21.3683 C   0  0  0  0  0  0
  -26.0053  -29.4832   20.7080 C   0  0  0  0  0  0
  -27.2012  -28.7287   20.6876 C   0  0  0  0  0  0
  -26.0355  -26.9741   19.4741 C   0  0  0  0  0  0
  -24.8488  -27.7207   19.5015 C   0  0  0  0  0  0
  -23.6028  -29.8428   20.1708 C   0  0  0  0  0  0
  -25.4104  -36.3121   24.0349 C   0  0  1  0  0  0
  -20.5870  -28.3675   23.1337 C   0  0  2  0  0  0
  -20.6775  -26.9411   22.5451 C   0  0  0  0  0  0
  -19.5777  -26.6389   21.5230 C   0  0  0  0  0  0
  -18.1942  -26.7929   22.1608 C   0  0  0  0  0  0
  -19.1532  -28.8838   23.2911 C   0  0  0  0  0  0
  -18.9460  -30.1440   23.8924 C   0  0  0  0  0  0
  -17.6466  -30.6579   24.0583 C   0  0  0  0  0  0
  -25.9025  -34.9479   23.5152 C   0  0  0  0  0  0
  -16.5358  -29.9084   23.6338 C   0  0  0  0  0  0
  -16.7278  -28.6505   23.0347 C   0  0  0  0  0  0
  -26.4477  -31.6592   25.0750 C   0  0  0  0  0  0
  -25.3748  -31.3680   26.1502 C   0  0  0  0  0  0
  -27.0327  -30.3041   24.6113 C   0  0  0  0  0  0
  -27.6071  -32.4301   25.7484 C   0  0  0  0  0  0
  -27.5578  -37.1813   24.8470 C   0  0  0  0  0  0
  -21.4135  -29.3044   22.3740 N   0  0  0  0  0  0
  -26.4301  -37.3792   23.9403 N   0  0  0  0  0  0
  -24.6668  -31.0835   22.1068 N   0  0  0  0  0  0
  -23.4186  -28.8214   23.3046 O   0  0  0  0  0  0
  -28.3939  -26.7056   20.0932 O   0  0  0  0  0  0
  -26.5579  -34.8927   22.4705 O   0  0  0  0  0  0
  -23.5329  -32.1453   23.7569 O   0  0  0  0  0  0
  -26.8952  -21.5017   23.0835 C   0  0  0  0  0  0
  -25.6229  -21.9052   22.6424 C   0  0  0  0  0  0
  -28.0211  -21.7426   22.2723 C   0  0  0  0  0  0
  -25.5189  -22.4926   21.3671 C   0  0  0  0  0  0
  -27.8303  -22.4077   21.0381 C   0  0  0  0  0  0
  -24.4107  -21.7117   23.5421 C   0  0  0  0  0  0
  -24.1918  -22.9863   20.8156 C   0  0  0  0  0  0
  -23.7708  -23.0428   23.9744 C   0  0  0  0  0  0
  -23.6119  -24.1514   21.6340 C   0  0  0  0  0  0
  -22.8765  -23.6950   22.9058 C   0  0  0  0  0  0
  -29.3645  -21.1979   22.7307 C   0  0  0  0  0  0
  -28.9790  -22.8753   20.1385 C   0  0  0  0  0  0
  -29.4376  -19.7067   22.3737 C   0  0  0  0  0  0
  -29.3468  -24.3720   20.3337 C   0  0  0  0  0  0
  -30.7821  -19.0328   22.6594 C   0  0  0  0  0  0
  -30.6358  -17.5072   22.5659 C   0  0  0  0  0  0
  -31.9722  -16.7583   22.5886 C   0  0  0  0  0  0
  -31.8178  -15.2514   22.8638 C   0  0  0  0  0  0
  -28.1878  -25.2985   19.9380 C   0  0  0  0  0  0
  -26.5956  -22.7219   20.5896 N   0  0  0  0  0  0
  -30.7804  -14.5912   22.0691 N   0  0  0  0  0  0
  -31.4477  -12.3973   19.0440 H   0  0  0  0  0  0
  -30.3097  -11.2632   19.7107 H   0  0  0  0  0  0
  -29.6964  -11.8604   17.3572 H   0  0  0  0  0  0
  -29.6263  -13.5526   17.7859 H   0  0  0  0  0  0
  -27.8228  -11.3206   18.7930 H   0  0  0  0  0  0
  -27.3356  -12.6624   17.7906 H   0  0  0  0  0  0
  -27.7217  -14.2577   19.5952 H   0  0  0  0  0  0
  -28.6536  -11.9364   21.3511 H   0  0  0  0  0  0
  -28.4695  -13.5987   21.8448 H   0  0  0  0  0  0
  -25.2762   -9.5690   22.4751 H   0  0  0  0  0  0
  -24.0002   -7.4645   22.7476 H   0  0  0  0  0  0
  -21.0840   -8.8774   19.8955 H   0  0  0  0  0  0
  -22.3695  -10.9673   19.6159 H   0  0  0  0  0  0
  -21.2008   -7.6150   23.9718 H   0  0  0  0  0  0
  -21.1480   -6.0527   25.9081 H   0  0  0  0  0  0
  -22.0598   -2.7612   23.2852 H   0  0  0  0  0  0
  -22.4133  -11.9893   22.4776 H   0  0  0  0  0  0
  -21.1133  -13.1259   22.2587 H   0  0  0  0  0  0
  -24.6719  -15.8481   20.5252 H   0  0  0  0  0  0
  -26.2981  -15.6282   20.1204 H   0  0  0  0  0  0
  -26.7114  -32.5564   23.1211 H   0  0  0  0  0  0
  -25.0031  -33.9798   25.0497 H   0  0  0  0  0  0
  -22.6880  -31.3184   21.4265 H   0  0  0  0  0  0
  -23.3751  -35.9656   23.3301 H   0  0  0  0  0  0
  -24.3578  -36.8939   22.2058 H   0  0  0  0  0  0
  -23.7233  -37.6530   23.6656 H   0  0  0  0  0  0
  -26.0421  -31.6145   20.6052 H   0  0  0  0  0  0
  -26.8186  -30.8909   21.9864 H   0  0  0  0  0  0
  -28.0972  -29.1138   21.1529 H   0  0  0  0  0  0
  -25.9830  -26.0184   18.9754 H   0  0  0  0  0  0
  -23.9530  -27.3245   19.0444 H   0  0  0  0  0  0
  -23.7075  -30.6220   19.4149 H   0  0  0  0  0  0
  -22.7257  -29.2637   19.8769 H   0  0  0  0  0  0
  -25.1275  -36.1999   25.0843 H   0  0  0  0  0  0
  -20.9967  -28.3257   24.1455 H   0  0  0  0  0  0
  -20.5645  -26.2311   23.3659 H   0  0  0  0  0  0
  -21.6662  -26.7447   22.1289 H   0  0  0  0  0  0
  -19.6973  -25.6302   21.1260 H   0  0  0  0  0  0
  -19.6738  -27.3207   20.6769 H   0  0  0  0  0  0
  -17.4237  -26.6703   21.3982 H   0  0  0  0  0  0
  -18.0304  -26.0058   22.8978 H   0  0  0  0  0  0
  -19.7943  -30.7242   24.2299 H   0  0  0  0  0  0
  -17.5028  -31.6253   24.5196 H   0  0  0  0  0  0
  -15.5360  -30.2988   23.7658 H   0  0  0  0  0  0
  -15.8674  -28.0840   22.7039 H   0  0  0  0  0  0
  -24.5947  -30.6990   25.7845 H   0  0  0  0  0  0
  -24.8908  -32.2825   26.4940 H   0  0  0  0  0  0
  -25.8117  -30.8870   27.0263 H   0  0  0  0  0  0
  -26.2878  -29.6759   24.1221 H   0  0  0  0  0  0
  -27.4170  -29.7301   25.4556 H   0  0  0  0  0  0
  -27.8667  -30.4371   23.9224 H   0  0  0  0  0  0
  -27.2743  -33.3645   26.2009 H   0  0  0  0  0  0
  -28.3902  -32.6765   25.0302 H   0  0  0  0  0  0
  -28.0711  -31.8446   26.5432 H   0  0  0  0  0  0
  -28.2610  -38.0094   24.7505 H   0  0  0  0  0  0
  -28.1061  -36.2626   24.6323 H   0  0  0  0  0  0
  -27.2286  -37.1487   25.8871 H   0  0  0  0  0  0
  -20.9279  -29.8762   21.6971 H   0  0  0  0  0  0
  -26.0201  -38.2878   24.1394 H   0  0  0  0  0  0
  -27.0096  -21.0074   24.0378 H   0  0  0  0  0  0
  -24.7227  -21.1700   24.4368 H   0  0  0  0  0  0
  -23.6805  -21.0702   23.0476 H   0  0  0  0  0  0
  -23.4846  -22.1584   20.7560 H   0  0  0  0  0  0
  -24.3418  -23.3231   19.7889 H   0  0  0  0  0  0
  -24.5361  -23.7394   24.3197 H   0  0  0  0  0  0
  -23.1407  -22.8453   24.8428 H   0  0  0  0  0  0
  -22.8906  -24.6773   21.0086 H   0  0  0  0  0  0
  -24.3924  -24.8786   21.8656 H   0  0  0  0  0  0
  -22.3869  -24.5605   23.3527 H   0  0  0  0  0  0
  -22.0719  -23.0093   22.6364 H   0  0  0  0  0  0
  -29.4516  -21.3227   23.8113 H   0  0  0  0  0  0
  -30.2015  -21.7512   22.3089 H   0  0  0  0  0  0
  -28.6880  -22.7129   19.0997 H   0  0  0  0  0  0
  -29.8608  -22.2516   20.2675 H   0  0  0  0  0  0
  -29.2081  -19.5764   21.3148 H   0  0  0  0  0  0
  -28.6527  -19.1811   22.9194 H   0  0  0  0  0  0
  -30.2187  -24.6109   19.7257 H   0  0  0  0  0  0
  -29.6288  -24.5484   21.3710 H   0  0  0  0  0  0
  -31.1384  -19.3045   23.6547 H   0  0  0  0  0  0
  -31.5289  -19.3926   21.9495 H   0  0  0  0  0  0
  -30.1021  -17.2438   21.6516 H   0  0  0  0  0  0
  -30.0127  -17.1636   23.3922 H   0  0  0  0  0  0
  -32.6219  -17.1840   23.3554 H   0  0  0  0  0  0
  -32.4901  -16.9131   21.6413 H   0  0  0  0  0  0
  -31.5602  -15.1069   23.9140 H   0  0  0  0  0  0
  -32.7736  -14.7447   22.7171 H   0  0  0  0  0  0
  -27.3434  -25.0488   20.5768 H   0  0  0  0  0  0
  -27.9228  -25.0828   18.9018 H   0  0  0  0  0  0
  -30.0357  -14.1448   22.5849 H   0  0  0  0  0  0
  1 25  1  0  0  0
  1 30  2  0  0  0
  1 91  1  0  0  0
  2  3  1  0  0  0
  2 25  1  0  0  0
  2 92  1  0  0  0
  2 93  1  0  0  0
  3  4  1  0  0  0
  3 94  1  0  0  0
  3 95  1  0  0  0
  4  5  1  0  0  0
  4 96  1  0  0  0
  4 97  1  0  0  0
  5  6  1  0  0  0
  5 26  1  0  0  0
  5 98  1  0  0  0
  6 25  1  0  0  0
  6 99  1  0  0  0
  6100  1  0  0  0
  7  8  2  0  0  0
  7 26  1  0  0  0
  7 29  1  0  0  0
  8  9  1  0  0  0
  8 22  1  0  0  0
  9 10  1  0  0  0
  9 27  2  0  0  0
 10 11  2  0  0  0
 10 15  1  0  0  0
 11 12  1  0  0  0
 11101  1  0  0  0
 12 13  2  0  0  0
 12102  1  0  0  0
 13 14  1  0  0  0
 13 31  1  0  0  0
 14 15  2  0  0  0
 14103  1  0  0  0
 15104  1  0  0  0
 16 17  2  0  0  0
 16 21  1  0  0  0
 16 31  1  0  0  0
 17 18  1  0  0  0
 17105  1  0  0  0
 18 19  2  0  0  0
 18106  1  0  0  0
 19 20  1  0  0  0
 19 24  1  0  0  0
 20 21  2  0  0  0
 20107  1  0  0  0
 21 23  1  0  0  0
 22 28  1  0  0  0
 22 32  2  0  0  0
 26 27  1  0  0  0
 28108  1  0  0  0
 28109  1  0  0  0
 29110  1  0  0  0
 29111  1  0  0  0
 33 34  1  0  0  0
 33 66  1  0  0  0
 33 70  2  0  0  0
 34 36  1  0  0  0
 34 59  1  0  0  0
 34112  1  0  0  0
 35 44  2  0  0  0
 35 45  1  0  0  0
 35 68  1  0  0  0
 36 56  1  0  0  0
 36113  1  0  0  0
 37 39  1  0  0  0
 37 47  1  0  0  0
 37 66  1  0  0  0
 37114  1  0  0  0
 38 43  2  0  0  0
 38 46  1  0  0  0
 38 47  1  0  0  0
 39 64  1  0  0  0
 39 67  2  0  0  0
 40 52  1  0  0  0
 40 53  2  0  0  0
 40 58  1  0  0  0
 41115  1  0  0  0
 41116  1  0  0  0
 41117  1  0  0  0
 41 48  1  0  0  0
 42 43  1  0  0  0
 42 66  1  0  0  0
 42118  1  0  0  0
 42119  1  0  0  0
 43 44  1  0  0  0
 44120  1  0  0  0
 45 46  2  0  0  0
 45121  1  0  0  0
 46122  1  0  0  0
 47123  1  0  0  0
 47124  1  0  0  0
 48 56  1  0  0  0
 48 65  1  0  0  0
 48125  1  0  0  0
 49 50  1  0  0  0
 49 53  1  0  0  0
 49 64  1  0  0  0
 49126  1  0  0  0
 50 51  1  0  0  0
 50127  1  0  0  0
 50128  1  0  0  0
 51 52  1  0  0  0
 51129  1  0  0  0
 51130  1  0  0  0
 52131  1  0  0  0
 52132  1  0  0  0
 53 54  1  0  0  0
 54 55  2  0  0  0
 54133  1  0  0  0
 55 57  1  0  0  0
 55134  1  0  0  0
 56 69  2  0  0  0
 57 58  2  0  0  0
 57135  1  0  0  0
 58136  1  0  0  0
 59 60  1  0  0  0
 59 61  1  0  0  0
 59 62  1  0  0  0
 60137  1  0  0  0
 60138  1  0  0  0
 60139  1  0  0  0
 61140  1  0  0  0
 61141  1  0  0  0
 61142  1  0  0  0
 62143  1  0  0  0
 62144  1  0  0  0
 62145  1  0  0  0
 63 65  1  0  0  0
 63146  1  0  0  0
 63147  1  0  0  0
 63148  1  0  0  0
 64149  1  0  0  0
 65150  1  0  0  0
 68 89  1  0  0  0
 71 72  2  0  0  0
 71 73  1  0  0  0
 71151  1  0  0  0
 72 74  1  0  0  0
 72 76  1  0  0  0
 73 75  2  0  0  0
 73 81  1  0  0  0
 74 77  1  0  0  0
 74 90  2  0  0  0
 75 82  1  0  0  0
 75 90  1  0  0  0
 76 78  1  0  0  0
 76152  1  0  0  0
 76153  1  0  0  0
 77 79  1  0  0  0
 77154  1  0  0  0
 77155  1  0  0  0
 78 80  1  0  0  0
 78156  1  0  0  0
 78157  1  0  0  0
 79 80  1  0  0  0
 79158  1  0  0  0
 79159  1  0  0  0
 80160  1  0  0  0
 80161  1  0  0  0
 81 83  1  0  0  0
 81162  1  0  0  0
 81163  1  0  0  0
 82 84  1  0  0  0
 82164  1  0  0  0
 82165  1  0  0  0
 83 85  1  0  0  0
 83166  1  0  0  0
 83167  1  0  0  0
 84 89  1  0  0  0
 84168  1  0  0  0
 84169  1  0  0  0
 85 86  1  0  0  0
 85170  1  0  0  0
 85171  1  0  0  0
 86 87  1  0  0  0
 86172  1  0  0  0
 86173  1  0  0  0
 87 88  1  0  0  0
 87174  1  0  0  0
 87175  1  0  0  0
 88 91  1  0  0  0
 88176  1  0  0  0
 88177  1  0  0  0
 89178  1  0  0  0
 89179  1  0  0  0
 91180  1  0  0  0
M  ISO  4   1 100  68 101  89 101  91 100
M  END
> <chiral flag>
0

> <version>
0

> <s_m_source_file>
/data/baiqing/PycharmProjects/Reinvent-master-3.2/result/LINK_invent/BTK/process_docking_weight1_custom_sum_contain_oxygen_bond_distance_aromatic_linkinvent_7_9_3/rearranged_h_0038.sdf

> <i_m_source_file_index>
10

> <r_mmod_Potential_Energy-OPLS-2005>
-235.953384399414

> <r_mmod_Stretch_Energy-OPLS-2005>
33.5503463745117

> <r_mmod_Bend_Energy-OPLS-2005>
100.720909118652

> <r_mmod_Torsional_Energy-OPLS-2005>
219.043579101562

> <r_mmod_Improper_Torsional_Energy-OPLS-2005>
6.76246881484985

> <r_mmod_Van_der_Waal_Energy-OPLS-2005>
158.537704467773

> <r_mmod_Electrostatic_Energy-OPLS-2005>
-551.500732421875

> <r_mmod_Solvation_Energy-OPLS-2005>
-214.926010131836

> <b_mmod_Minimization_Converged-OPLS-2005>
0

> <r_mmod_RMS_Derivative-OPLS-2005>
1.24803507328033

$$$$
10
                    3D
 Structure written by MMmdl.
170178  0  0  1  0            999 V2000
  -30.7345  -14.3879   20.6713 C   0  0  0  0  0  0
  -30.4266  -12.2950   19.3966 C   0  0  0  0  0  0
  -29.4916  -12.5359   18.1950 C   0  0  0  0  0  0
  -28.0130  -12.3935   18.6071 C   0  0  0  0  0  0
  -27.6716  -13.1999   19.8880 C   0  0  2  0  0  0
  -28.7095  -12.9211   20.9983 C   0  0  0  0  0  0
  -25.2641  -13.8150   20.5682 C   0  0  0  0  0  0
  -24.1862  -13.0457   20.9163 C   0  0  0  0  0  0
  -24.6381  -11.6915   20.8720 C   0  0  0  0  0  0
  -23.9033  -10.4307   21.0400 C   0  0  0  0  0  0
  -24.3595   -9.4228   21.9177 C   0  0  0  0  0  0
  -23.6289   -8.2256   22.0754 C   0  0  0  0  0  0
  -22.4280   -8.0271   21.3531 C   0  0  0  0  0  0
  -21.9893   -9.0243   20.4642 C   0  0  0  0  0  0
  -22.7205  -10.2137   20.3051 C   0  0  0  0  0  0
  -21.6856   -6.0724   22.5276 C   0  0  0  0  0  0
  -21.4010   -6.5631   23.8205 C   0  0  0  0  0  0
  -21.3661   -5.6786   24.9166 C   0  0  0  0  0  0
  -21.6047   -4.3049   24.7219 C   0  0  0  0  0  0
  -21.8816   -3.8131   23.4343 C   0  0  0  0  0  0
  -21.9197   -4.6951   22.3399 C   0  0  0  0  0  0
  -22.7878  -13.5272   21.1809 C   0  0  0  0  0  0
  -22.1664   -4.2135   21.0979 F   0  0  0  0  0  0
  -21.5649   -3.4536   25.7734 F   0  0  0  0  0  0
  -30.0524  -13.2310   20.4666 N   0  0  0  0  0  0
  -26.3071  -12.9300   20.3408 N   0  0  0  0  0  0
  -25.9310  -11.6473   20.5767 N   0  0  0  0  0  0
  -22.0474  -12.8298   22.0368 N   0  0  0  0  0  0
  -25.4437  -15.1860   20.4093 N   0  0  0  0  0  0
  -31.7763  -14.6810   20.0746 O   0  0  0  0  0  0
  -21.6645   -6.8872   21.4234 O   0  0  0  0  0  0
  -22.3583  -14.5571   20.6643 O   0  0  0  0  0  0
  -24.6110  -31.8704   23.2118 C   0  0  0  0  0  0
  -25.9018  -32.4837   23.8395 C   0  0  1  0  0  0
  -27.2448  -27.4718   20.0748 C   0  0  0  0  0  0
  -25.5890  -33.8640   24.2343 N   0  0  0  0  0  0
  -23.3957  -30.4932   21.5518 C   0  0  2  0  0  0
  -24.8412  -28.9568   20.1212 C   0  0  0  0  0  0
  -22.7376  -29.4686   22.5032 C   0  0  0  0  0  0
  -18.0275  -28.1365   22.8503 C   0  0  0  0  0  0
  -24.1483  -36.7323   23.2636 C   0  0  0  0  0  0
  -25.9211  -30.8445   21.3599 C   0  0  0  0  0  0
  -25.9991  -29.4805   20.7085 C   0  0  0  0  0  0
  -27.2009  -28.7452   20.6810 C   0  0  0  0  0  0
  -26.0641  -26.9476   19.4987 C   0  0  0  0  0  0
  -24.8665  -27.6875   19.5178 C   0  0  0  0  0  0
  -23.6009  -29.8176   20.1694 C   0  0  0  0  0  0
  -25.4106  -36.3132   24.0341 C   0  0  1  0  0  0
  -20.5853  -28.3643   23.1344 C   0  0  2  0  0  0
  -20.6774  -26.9390   22.5422 C   0  0  0  0  0  0
  -19.5747  -26.6379   21.5228 C   0  0  0  0  0  0
  -18.1924  -26.7908   22.1635 C   0  0  0  0  0  0
  -19.1520  -28.8824   23.2912 C   0  0  0  0  0  0
  -18.9446  -30.1441   23.8907 C   0  0  0  0  0  0
  -17.6448  -30.6574   24.0570 C   0  0  0  0  0  0
  -25.9024  -34.9494   23.5131 C   0  0  0  0  0  0
  -16.5341  -29.9073   23.6337 C   0  0  0  0  0  0
  -16.7265  -28.6493   23.0347 C   0  0  0  0  0  0
  -26.4457  -31.6592   25.0706 C   0  0  0  0  0  0
  -25.3748  -31.3687   26.1464 C   0  0  0  0  0  0
  -27.0286  -30.3043   24.6052 C   0  0  0  0  0  0
  -27.6026  -32.4318   25.7466 C   0  0  0  0  0  0
  -27.5583  -37.1816   24.8462 C   0  0  0  0  0  0
  -21.4117  -29.3020   22.3754 N   0  0  0  0  0  0
  -26.4294  -37.3810   23.9405 N   0  0  0  0  0  0
  -24.6605  -31.0828   22.1001 N   0  0  0  0  0  0
  -23.4158  -28.8252   23.3083 O   0  0  0  0  0  0
  -28.4573  -26.8185   20.0369 O   0  0  0  0  0  0
  -26.5585  -34.8929   22.4690 O   0  0  0  0  0  0
  -23.5320  -32.1448   23.7540 O   0  0  0  0  0  0
  -26.9694  -23.8414   21.3569 C   0  0  0  0  0  0
  -28.5698  -25.2193   22.5280 C   0  0  0  0  0  0
  -27.9920  -24.8035   21.3188 C   0  0  0  0  0  0
  -26.5589  -23.3366   22.6074 C   0  0  0  0  0  0
  -27.2066  -23.8108   23.7729 C   0  0  0  0  0  0
  -25.4293  -22.3201   22.6665 C   0  0  0  0  0  0
  -28.4747  -25.3945   20.0087 C   0  0  0  0  0  0
  -26.8241  -23.3712   25.1816 C   0  0  0  0  0  0
  -27.9531  -22.6451   25.9459 C   0  0  0  0  0  0
  -28.0669  -21.1308   25.6903 C   0  0  0  0  0  0
  -28.9143  -20.7399   24.4653 C   0  0  0  0  0  0
  -28.9665  -19.2130   24.2964 C   0  0  0  0  0  0
  -29.8117  -18.7302   23.1053 C   0  0  0  0  0  0
  -29.7076  -17.2025   22.9364 C   0  0  0  0  0  0
  -30.5163  -16.6280   21.7595 C   0  0  0  0  0  0
  -28.1841  -24.7407   23.7267 N   0  0  0  0  0  0
  -30.1642  -15.2256   21.5454 N   0  0  0  0  0  0
  -31.4690  -12.4095   19.0931 H   0  0  0  0  0  0
  -30.3289  -11.2667   19.7514 H   0  0  0  0  0  0
  -29.7224  -11.8349   17.3915 H   0  0  0  0  0  0
  -29.6666  -13.5334   17.7888 H   0  0  0  0  0  0
  -27.8144  -11.3330   18.7720 H   0  0  0  0  0  0
  -27.3624  -12.6988   17.7863 H   0  0  0  0  0  0
  -27.7366  -14.2571   19.6322 H   0  0  0  0  0  0
  -28.6716  -11.8693   21.2889 H   0  0  0  0  0  0
  -28.4563  -13.4704   21.9051 H   0  0  0  0  0  0
  -25.2736   -9.5727   22.4752 H   0  0  0  0  0  0
  -23.9995   -7.4662   22.7484 H   0  0  0  0  0  0
  -21.0822   -8.8753   19.8957 H   0  0  0  0  0  0
  -22.3642  -10.9671   19.6174 H   0  0  0  0  0  0
  -21.1985   -7.6135   23.9703 H   0  0  0  0  0  0
  -21.1503   -6.0517   25.9074 H   0  0  0  0  0  0
  -22.0595   -2.7593   23.2848 H   0  0  0  0  0  0
  -22.4046  -11.9990   22.4831 H   0  0  0  0  0  0
  -21.1080  -13.1356   22.2492 H   0  0  0  0  0  0
  -24.6880  -15.8537   20.5185 H   0  0  0  0  0  0
  -26.3137  -15.6118   20.1137 H   0  0  0  0  0  0
  -26.7088  -32.5567   23.1164 H   0  0  0  0  0  0
  -25.0079  -33.9810   25.0511 H   0  0  0  0  0  0
  -22.6824  -31.3076   21.4100 H   0  0  0  0  0  0
  -23.3759  -35.9646   23.3323 H   0  0  0  0  0  0
  -24.3579  -36.8916   22.2044 H   0  0  0  0  0  0
  -23.7225  -37.6531   23.6636 H   0  0  0  0  0  0
  -26.0270  -31.6114   20.5909 H   0  0  0  0  0  0
  -26.8132  -30.9007   21.9723 H   0  0  0  0  0  0
  -28.1002  -29.1535   21.1206 H   0  0  0  0  0  0
  -26.0521  -25.9857   19.0088 H   0  0  0  0  0  0
  -23.9729  -27.2794   19.0647 H   0  0  0  0  0  0
  -23.6996  -30.5833   19.3990 H   0  0  0  0  0  0
  -22.7281  -29.2259   19.8862 H   0  0  0  0  0  0
  -25.1289  -36.2000   25.0841 H   0  0  0  0  0  0
  -20.9955  -28.3203   24.1459 H   0  0  0  0  0  0
  -20.5702  -26.2251   23.3596 H   0  0  0  0  0  0
  -21.6644  -26.7455   22.1197 H   0  0  0  0  0  0
  -19.6899  -25.6303   21.1225 H   0  0  0  0  0  0
  -19.6680  -27.3227   20.6783 H   0  0  0  0  0  0
  -17.4202  -26.6678   21.4023 H   0  0  0  0  0  0
  -18.0299  -26.0035   22.9012 H   0  0  0  0  0  0
  -19.7924  -30.7257   24.2266 H   0  0  0  0  0  0
  -17.5005  -31.6257   24.5156 H   0  0  0  0  0  0
  -15.5345  -30.2972   23.7651 H   0  0  0  0  0  0
  -15.8667  -28.0827   22.7040 H   0  0  0  0  0  0
  -24.5908  -30.7052   25.7808 H   0  0  0  0  0  0
  -24.8967  -32.2845   26.4950 H   0  0  0  0  0  0
  -25.8111  -30.8828   27.0198 H   0  0  0  0  0  0
  -26.2831  -29.6799   24.1113 H   0  0  0  0  0  0
  -27.4078  -29.7271   25.4494 H   0  0  0  0  0  0
  -27.8645  -30.4392   23.9185 H   0  0  0  0  0  0
  -27.2622  -33.3589   26.2095 H   0  0  0  0  0  0
  -28.3799  -32.6934   25.0274 H   0  0  0  0  0  0
  -28.0739  -31.8422   26.5339 H   0  0  0  0  0  0
  -28.2619  -38.0097   24.7520 H   0  0  0  0  0  0
  -28.1060  -36.2634   24.6289 H   0  0  0  0  0  0
  -27.2294  -37.1474   25.8861 H   0  0  0  0  0  0
  -20.9271  -29.8712   21.6961 H   0  0  0  0  0  0
  -26.0192  -38.2894   24.1413 H   0  0  0  0  0  0
  -26.4964  -23.5112   20.4429 H   0  0  0  0  0  0
  -29.3503  -25.9662   22.5405 H   0  0  0  0  0  0
  -25.0083  -22.1363   21.6777 H   0  0  0  0  0  0
  -24.6166  -22.6827   23.2966 H   0  0  0  0  0  0
  -25.7837  -21.3687   23.0639 H   0  0  0  0  0  0
  -27.9407  -24.9876   19.1499 H   0  0  0  0  0  0
  -29.5111  -25.0843   19.8768 H   0  0  0  0  0  0
  -25.9159  -22.7693   25.1928 H   0  0  0  0  0  0
  -26.5607  -24.2773   25.7287 H   0  0  0  0  0  0
  -27.7345  -22.7665   27.0064 H   0  0  0  0  0  0
  -28.9123  -23.1427   25.7995 H   0  0  0  0  0  0
  -27.0727  -20.6885   25.6165 H   0  0  0  0  0  0
  -28.5234  -20.6767   26.5722 H   0  0  0  0  0  0
  -29.9265  -21.1292   24.5814 H   0  0  0  0  0  0
  -28.5065  -21.1960   23.5626 H   0  0  0  0  0  0
  -27.9472  -18.8442   24.1759 H   0  0  0  0  0  0
  -29.3520  -18.7597   25.2127 H   0  0  0  0  0  0
  -30.8538  -19.0254   23.2403 H   0  0  0  0  0  0
  -29.4701  -19.2213   22.1928 H   0  0  0  0  0  0
  -28.6545  -16.9474   22.8039 H   0  0  0  0  0  0
  -30.0319  -16.7168   23.8587 H   0  0  0  0  0  0
  -30.2954  -17.1835   20.8457 H   0  0  0  0  0  0
  -31.5881  -16.7243   21.9450 H   0  0  0  0  0  0
  -29.3274  -14.8860   21.9977 H   0  0  0  0  0  0
  1 25  1  0  0  0
  1 30  2  0  0  0
  1 87  1  0  0  0
  2  3  1  0  0  0
  2 25  1  0  0  0
  2 88  1  0  0  0
  2 89  1  0  0  0
  3  4  1  0  0  0
  3 90  1  0  0  0
  3 91  1  0  0  0
  4  5  1  0  0  0
  4 92  1  0  0  0
  4 93  1  0  0  0
  5  6  1  0  0  0
  5 26  1  0  0  0
  5 94  1  0  0  0
  6 25  1  0  0  0
  6 95  1  0  0  0
  6 96  1  0  0  0
  7  8  2  0  0  0
  7 26  1  0  0  0
  7 29  1  0  0  0
  8  9  1  0  0  0
  8 22  1  0  0  0
  9 10  1  0  0  0
  9 27  2  0  0  0
 10 11  2  0  0  0
 10 15  1  0  0  0
 11 12  1  0  0  0
 11 97  1  0  0  0
 12 13  2  0  0  0
 12 98  1  0  0  0
 13 14  1  0  0  0
 13 31  1  0  0  0
 14 15  2  0  0  0
 14 99  1  0  0  0
 15100  1  0  0  0
 16 17  2  0  0  0
 16 21  1  0  0  0
 16 31  1  0  0  0
 17 18  1  0  0  0
 17101  1  0  0  0
 18 19  2  0  0  0
 18102  1  0  0  0
 19 20  1  0  0  0
 19 24  1  0  0  0
 20 21  2  0  0  0
 20103  1  0  0  0
 21 23  1  0  0  0
 22 28  1  0  0  0
 22 32  2  0  0  0
 26 27  1  0  0  0
 28104  1  0  0  0
 28105  1  0  0  0
 29106  1  0  0  0
 29107  1  0  0  0
 33 34  1  0  0  0
 33 66  1  0  0  0
 33 70  2  0  0  0
 34 36  1  0  0  0
 34 59  1  0  0  0
 34108  1  0  0  0
 35 44  2  0  0  0
 35 45  1  0  0  0
 35 68  1  0  0  0
 36 56  1  0  0  0
 36109  1  0  0  0
 37 39  1  0  0  0
 37 47  1  0  0  0
 37 66  1  0  0  0
 37110  1  0  0  0
 38 43  2  0  0  0
 38 46  1  0  0  0
 38 47  1  0  0  0
 39 64  1  0  0  0
 39 67  2  0  0  0
 40 52  1  0  0  0
 40 53  2  0  0  0
 40 58  1  0  0  0
 41111  1  0  0  0
 41112  1  0  0  0
 41113  1  0  0  0
 41 48  1  0  0  0
 42 43  1  0  0  0
 42 66  1  0  0  0
 42114  1  0  0  0
 42115  1  0  0  0
 43 44  1  0  0  0
 44116  1  0  0  0
 45 46  2  0  0  0
 45117  1  0  0  0
 46118  1  0  0  0
 47119  1  0  0  0
 47120  1  0  0  0
 48 56  1  0  0  0
 48 65  1  0  0  0
 48121  1  0  0  0
 49 50  1  0  0  0
 49 53  1  0  0  0
 49 64  1  0  0  0
 49122  1  0  0  0
 50 51  1  0  0  0
 50123  1  0  0  0
 50124  1  0  0  0
 51 52  1  0  0  0
 51125  1  0  0  0
 51126  1  0  0  0
 52127  1  0  0  0
 52128  1  0  0  0
 53 54  1  0  0  0
 54 55  2  0  0  0
 54129  1  0  0  0
 55 57  1  0  0  0
 55130  1  0  0  0
 56 69  2  0  0  0
 57 58  2  0  0  0
 57131  1  0  0  0
 58132  1  0  0  0
 59 60  1  0  0  0
 59 61  1  0  0  0
 59 62  1  0  0  0
 60133  1  0  0  0
 60134  1  0  0  0
 60135  1  0  0  0
 61136  1  0  0  0
 61137  1  0  0  0
 61138  1  0  0  0
 62139  1  0  0  0
 62140  1  0  0  0
 62141  1  0  0  0
 63 65  1  0  0  0
 63142  1  0  0  0
 63143  1  0  0  0
 63144  1  0  0  0
 64145  1  0  0  0
 65146  1  0  0  0
 68 77  1  0  0  0
 71 73  2  0  0  0
 71 74  1  0  0  0
 71147  1  0  0  0
 72 73  1  0  0  0
 72 86  2  0  0  0
 72148  1  0  0  0
 73 77  1  0  0  0
 74 75  2  0  0  0
 74 76  1  0  0  0
 75 78  1  0  0  0
 75 86  1  0  0  0
 76149  1  0  0  0
 76150  1  0  0  0
 76151  1  0  0  0
 77152  1  0  0  0
 77153  1  0  0  0
 78 79  1  0  0  0
 78154  1  0  0  0
 78155  1  0  0  0
 79 80  1  0  0  0
 79156  1  0  0  0
 79157  1  0  0  0
 80 81  1  0  0  0
 80158  1  0  0  0
 80159  1  0  0  0
 81 82  1  0  0  0
 81160  1  0  0  0
 81161  1  0  0  0
 82 83  1  0  0  0
 82162  1  0  0  0
 82163  1  0  0  0
 83 84  1  0  0  0
 83164  1  0  0  0
 83165  1  0  0  0
 84 85  1  0  0  0
 84166  1  0  0  0
 84167  1  0  0  0
 85 87  1  0  0  0
 85168  1  0  0  0
 85169  1  0  0  0
 87170  1  0  0  0
M  ISO  4   1 100  68 101  77 101  87 100
M  END
> <chiral flag>
0

> <version>
0

> <s_m_source_file>
/data/baiqing/PycharmProjects/Reinvent-master-3.2/result/LINK_invent/BTK/process_docking_weight1_custom_sum_contain_oxygen_bond_distance_aromatic_linkinvent_7_9_3/rearranged_h_0038.sdf

> <i_m_source_file_index>
11

> <r_mmod_Potential_Energy-OPLS-2005>
-216.915954589844

> <r_mmod_Stretch_Energy-OPLS-2005>
32.1965293884277

> <r_mmod_Bend_Energy-OPLS-2005>
98.9316177368164

> <r_mmod_Torsional_Energy-OPLS-2005>
200.291091918945

> <r_mmod_Improper_Torsional_Energy-OPLS-2005>
2.30698418617249

> <r_mmod_Van_der_Waal_Energy-OPLS-2005>
148.16845703125

> <r_mmod_Electrostatic_Energy-OPLS-2005>
-490.505096435547

> <r_mmod_Solvation_Energy-OPLS-2005>
-216.235656738281

> <b_mmod_Minimization_Converged-OPLS-2005>
0

> <r_mmod_RMS_Derivative-OPLS-2005>
2.51571273803711

$$$$
11
                    3D
 Structure written by MMmdl.
175183  0  0  1  0            999 V2000
  -30.7421  -14.2905   20.7191 C   0  0  0  0  0  0
  -30.4248  -12.2766   19.3418 C   0  0  0  0  0  0
  -29.4750  -12.5261   18.1558 C   0  0  0  0  0  0
  -27.9954  -12.4036   18.5754 C   0  0  0  0  0  0
  -27.6697  -13.1810   19.8773 C   0  0  2  0  0  0
  -28.7043  -12.8396   20.9662 C   0  0  0  0  0  0
  -25.2660  -13.8091   20.5636 C   0  0  0  0  0  0
  -24.1849  -13.0436   20.9150 C   0  0  0  0  0  0
  -24.6347  -11.6872   20.8693 C   0  0  0  0  0  0
  -23.8992  -10.4286   21.0386 C   0  0  0  0  0  0
  -24.3553   -9.4210   21.9167 C   0  0  0  0  0  0
  -23.6260   -8.2239   22.0742 C   0  0  0  0  0  0
  -22.4234   -8.0258   21.3543 C   0  0  0  0  0  0
  -21.9875   -9.0242   20.4652 C   0  0  0  0  0  0
  -22.7180  -10.2138   20.3053 C   0  0  0  0  0  0
  -21.6841   -6.0723   22.5278 C   0  0  0  0  0  0
  -21.4007   -6.5625   23.8210 C   0  0  0  0  0  0
  -21.3676   -5.6771   24.9159 C   0  0  0  0  0  0
  -21.6074   -4.3043   24.7221 C   0  0  0  0  0  0
  -21.8824   -3.8145   23.4335 C   0  0  0  0  0  0
  -21.9195   -4.6951   22.3382 C   0  0  0  0  0  0
  -22.7883  -13.5299   21.1799 C   0  0  0  0  0  0
  -22.1656   -4.2133   21.0958 F   0  0  0  0  0  0
  -21.5671   -3.4536   25.7730 F   0  0  0  0  0  0
  -30.0440  -13.1693   20.4386 N   0  0  0  0  0  0
  -26.3038  -12.9205   20.3330 N   0  0  0  0  0  0
  -25.9256  -11.6400   20.5679 N   0  0  0  0  0  0
  -22.0490  -12.8348   22.0348 N   0  0  0  0  0  0
  -25.4477  -15.1793   20.4040 N   0  0  0  0  0  0
  -31.7346  -14.6721   20.0864 O   0  0  0  0  0  0
  -21.6606   -6.8852   21.4243 O   0  0  0  0  0  0
  -22.3606  -14.5645   20.6645 O   0  0  0  0  0  0
  -24.6119  -31.8681   23.2107 C   0  0  0  0  0  0
  -25.9016  -32.4824   23.8405 C   0  0  1  0  0  0
  -27.2672  -27.4568   20.1130 C   0  0  0  0  0  0
  -25.5876  -33.8619   24.2342 N   0  0  0  0  0  0
  -23.4030  -30.4851   21.5486 C   0  0  2  0  0  0
  -24.8611  -28.9493   20.1213 C   0  0  0  0  0  0
  -22.7420  -29.4635   22.5011 C   0  0  0  0  0  0
  -18.0263  -28.1362   22.8500 C   0  0  0  0  0  0
  -24.1482  -36.7316   23.2639 C   0  0  0  0  0  0
  -25.9276  -30.8379   21.3656 C   0  0  0  0  0  0
  -26.0105  -29.4682   20.7288 C   0  0  0  0  0  0
  -27.2114  -28.7275   20.7350 C   0  0  0  0  0  0
  -26.1058  -26.9555   19.4896 C   0  0  0  0  0  0
  -24.9014  -27.6892   19.4982 C   0  0  0  0  0  0
  -23.6152  -29.8048   20.1679 C   0  0  0  0  0  0
  -25.4099  -36.3115   24.0350 C   0  0  1  0  0  0
  -20.5857  -28.3644   23.1337 C   0  0  2  0  0  0
  -20.6745  -26.9388   22.5426 C   0  0  0  0  0  0
  -19.5730  -26.6377   21.5212 C   0  0  0  0  0  0
  -18.1912  -26.7913   22.1624 C   0  0  0  0  0  0
  -19.1523  -28.8830   23.2915 C   0  0  0  0  0  0
  -18.9439  -30.1427   23.8915 C   0  0  0  0  0  0
  -17.6443  -30.6581   24.0557 C   0  0  0  0  0  0
  -25.9025  -34.9473   23.5146 C   0  0  0  0  0  0
  -16.5329  -29.9073   23.6324 C   0  0  0  0  0  0
  -16.7256  -28.6489   23.0363 C   0  0  0  0  0  0
  -26.4464  -31.6596   25.0714 C   0  0  0  0  0  0
  -25.3751  -31.3699   26.1484 C   0  0  0  0  0  0
  -27.0277  -30.3033   24.6072 C   0  0  0  0  0  0
  -27.6070  -32.4305   25.7440 C   0  0  0  0  0  0
  -27.5590  -37.1798   24.8463 C   0  0  0  0  0  0
  -21.4147  -29.3006   22.3754 N   0  0  0  0  0  0
  -26.4293  -37.3794   23.9421 N   0  0  0  0  0  0
  -24.6650  -31.0792   22.0993 N   0  0  0  0  0  0
  -23.4190  -28.8190   23.3061 O   0  0  0  0  0  0
  -28.4070  -26.6771   20.0646 O   0  0  0  0  0  0
  -26.5589  -34.8926   22.4708 O   0  0  0  0  0  0
  -23.5319  -32.1402   23.7507 O   0  0  0  0  0  0
  -32.7540  -24.2756   20.9503 C   0  0  0  0  0  0
  -32.2360  -24.9753   19.8308 C   0  0  0  0  0  0
  -30.9285  -24.9449   22.2121 C   0  0  0  0  0  0
  -30.4537  -25.7294   21.1158 C   0  0  0  0  0  0
  -34.0671  -23.5111   20.9368 C   0  0  0  0  0  0
  -33.8689  -26.1846   18.3314 C   0  0  0  0  0  0
  -32.9231  -24.9891   18.4767 C   0  0  0  0  0  0
  -30.2184  -24.8048   23.5603 C   0  0  0  0  0  0
  -29.2834  -26.7218   21.1990 C   0  0  0  0  0  0
  -30.1353  -23.3522   24.0903 C   0  0  0  0  0  0
  -29.5992  -22.3097   23.0872 C   0  0  0  0  0  0
  -29.8209  -20.8848   23.6040 C   0  0  0  0  0  0
  -29.3713  -19.7850   22.6287 C   0  0  0  0  0  0
  -29.9767  -18.4412   23.0606 C   0  0  0  0  0  0
  -29.7512  -17.2796   22.0960 C   0  0  0  0  0  0
  -30.7585  -16.1565   22.3821 C   0  0  0  0  0  0
  -32.0994  -24.2634   22.1306 N   0  0  0  0  0  0
  -31.1098  -25.7245   19.9258 N   0  0  0  0  0  0
  -30.2926  -14.9179   21.8027 N   0  0  0  0  0  0
  -31.4600  -12.4345   19.0257 H   0  0  0  0  0  0
  -30.3726  -11.2392   19.6729 H   0  0  0  0  0  0
  -29.6898  -11.8144   17.3567 H   0  0  0  0  0  0
  -29.6598  -13.5166   17.7337 H   0  0  0  0  0  0
  -27.7798  -11.3438   18.7033 H   0  0  0  0  0  0
  -27.3460  -12.7407   17.7668 H   0  0  0  0  0  0
  -27.7538  -14.2452   19.6599 H   0  0  0  0  0  0
  -28.6745  -11.7718   21.1868 H   0  0  0  0  0  0
  -28.4487  -13.3220   21.9078 H   0  0  0  0  0  0
  -25.2718   -9.5715   22.4715 H   0  0  0  0  0  0
  -24.0014   -7.4645   22.7455 H   0  0  0  0  0  0
  -21.0849   -8.8776   19.8934 H   0  0  0  0  0  0
  -22.3677  -10.9673   19.6144 H   0  0  0  0  0  0
  -21.1968   -7.6123   23.9720 H   0  0  0  0  0  0
  -21.1495   -6.0469   25.9059 H   0  0  0  0  0  0
  -22.0585   -2.7614   23.2820 H   0  0  0  0  0  0
  -22.4098  -12.0030   22.4791 H   0  0  0  0  0  0
  -21.1094  -13.1384   22.2489 H   0  0  0  0  0  0
  -24.7070  -15.8516   20.5556 H   0  0  0  0  0  0
  -26.3240  -15.6057   20.1242 H   0  0  0  0  0  0
  -26.7090  -32.5562   23.1186 H   0  0  0  0  0  0
  -25.0035  -33.9775   25.0491 H   0  0  0  0  0  0
  -22.6914  -31.2999   21.4036 H   0  0  0  0  0  0
  -23.3737  -35.9660   23.3325 H   0  0  0  0  0  0
  -24.3573  -36.8893   22.2049 H   0  0  0  0  0  0
  -23.7246  -37.6537   23.6623 H   0  0  0  0  0  0
  -26.0343  -31.5932   20.5860 H   0  0  0  0  0  0
  -26.8162  -30.9020   21.9799 H   0  0  0  0  0  0
  -28.0852  -29.1495   21.2091 H   0  0  0  0  0  0
  -26.1325  -25.9887   19.0054 H   0  0  0  0  0  0
  -24.0220  -27.2865   19.0157 H   0  0  0  0  0  0
  -23.7077  -30.5673   19.3951 H   0  0  0  0  0  0
  -22.7470  -29.2054   19.8858 H   0  0  0  0  0  0
  -25.1274  -36.1987   25.0846 H   0  0  0  0  0  0
  -20.9944  -28.3193   24.1456 H   0  0  0  0  0  0
  -20.5636  -26.2250   23.3610 H   0  0  0  0  0  0
  -21.6622  -26.7417   22.1232 H   0  0  0  0  0  0
  -19.6892  -25.6295   21.1226 H   0  0  0  0  0  0
  -19.6675  -27.3202   20.6759 H   0  0  0  0  0  0
  -17.4192  -26.6681   21.4017 H   0  0  0  0  0  0
  -18.0306  -26.0038   22.9006 H   0  0  0  0  0  0
  -19.7916  -30.7236   24.2309 H   0  0  0  0  0  0
  -17.4992  -31.6264   24.5150 H   0  0  0  0  0  0
  -15.5334  -30.2974   23.7630 H   0  0  0  0  0  0
  -15.8656  -28.0791   22.7083 H   0  0  0  0  0  0
  -24.5922  -30.7044   25.7833 H   0  0  0  0  0  0
  -24.8938  -32.2846   26.4950 H   0  0  0  0  0  0
  -25.8115  -30.8861   27.0232 H   0  0  0  0  0  0
  -26.2785  -29.6796   24.1182 H   0  0  0  0  0  0
  -27.4102  -29.7272   25.4508 H   0  0  0  0  0  0
  -27.8606  -30.4348   23.9162 H   0  0  0  0  0  0
  -27.2725  -33.3602   26.2056 H   0  0  0  0  0  0
  -28.3834  -32.6877   25.0220 H   0  0  0  0  0  0
  -28.0798  -31.8409   26.5306 H   0  0  0  0  0  0
  -28.2621  -38.0086   24.7521 H   0  0  0  0  0  0
  -28.1070  -36.2622   24.6265 H   0  0  0  0  0  0
  -27.2315  -37.1428   25.8867 H   0  0  0  0  0  0
  -20.9335  -29.8697   21.6935 H   0  0  0  0  0  0
  -26.0192  -38.2876   24.1425 H   0  0  0  0  0  0
  -33.8763  -22.4384   20.9637 H   0  0  0  0  0  0
  -34.6641  -23.7725   21.8109 H   0  0  0  0  0  0
  -34.6854  -23.7308   20.0685 H   0  0  0  0  0  0
  -34.3419  -26.1865   17.3507 H   0  0  0  0  0  0
  -34.6576  -26.1548   19.0833 H   0  0  0  0  0  0
  -33.3252  -27.1225   18.4524 H   0  0  0  0  0  0
  -32.1632  -25.0176   17.6955 H   0  0  0  0  0  0
  -33.4616  -24.0571   18.3111 H   0  0  0  0  0  0
  -29.1980  -25.1728   23.5100 H   0  0  0  0  0  0
  -30.7307  -25.4359   24.2896 H   0  0  0  0  0  0
  -29.7414  -27.7098   21.2613 H   0  0  0  0  0  0
  -28.6911  -26.5934   22.1022 H   0  0  0  0  0  0
  -29.5047  -23.3308   24.9802 H   0  0  0  0  0  0
  -31.1313  -23.0482   24.4197 H   0  0  0  0  0  0
  -30.1090  -22.4037   22.1291 H   0  0  0  0  0  0
  -28.5419  -22.4860   22.8949 H   0  0  0  0  0  0
  -29.3222  -20.7530   24.5658 H   0  0  0  0  0  0
  -30.8865  -20.7602   23.7995 H   0  0  0  0  0  0
  -29.6976  -20.0266   21.6142 H   0  0  0  0  0  0
  -28.2820  -19.7268   22.5914 H   0  0  0  0  0  0
  -29.5792  -18.1656   24.0384 H   0  0  0  0  0  0
  -31.0507  -18.5648   23.2040 H   0  0  0  0  0  0
  -29.8482  -17.6090   21.0605 H   0  0  0  0  0  0
  -28.7284  -16.9154   22.1998 H   0  0  0  0  0  0
  -30.8439  -15.9898   23.4585 H   0  0  0  0  0  0
  -31.7601  -16.4153   22.0272 H   0  0  0  0  0  0
  -29.5104  -14.4697   22.2541 H   0  0  0  0  0  0
  1 25  1  0  0  0
  1 30  2  0  0  0
  1 89  1  0  0  0
  2  3  1  0  0  0
  2 25  1  0  0  0
  2 90  1  0  0  0
  2 91  1  0  0  0
  3  4  1  0  0  0
  3 92  1  0  0  0
  3 93  1  0  0  0
  4  5  1  0  0  0
  4 94  1  0  0  0
  4 95  1  0  0  0
  5  6  1  0  0  0
  5 26  1  0  0  0
  5 96  1  0  0  0
  6 25  1  0  0  0
  6 97  1  0  0  0
  6 98  1  0  0  0
  7  8  2  0  0  0
  7 26  1  0  0  0
  7 29  1  0  0  0
  8  9  1  0  0  0
  8 22  1  0  0  0
  9 10  1  0  0  0
  9 27  2  0  0  0
 10 11  2  0  0  0
 10 15  1  0  0  0
 11 12  1  0  0  0
 11 99  1  0  0  0
 12 13  2  0  0  0
 12100  1  0  0  0
 13 14  1  0  0  0
 13 31  1  0  0  0
 14 15  2  0  0  0
 14101  1  0  0  0
 15102  1  0  0  0
 16 17  2  0  0  0
 16 21  1  0  0  0
 16 31  1  0  0  0
 17 18  1  0  0  0
 17103  1  0  0  0
 18 19  2  0  0  0
 18104  1  0  0  0
 19 20  1  0  0  0
 19 24  1  0  0  0
 20 21  2  0  0  0
 20105  1  0  0  0
 21 23  1  0  0  0
 22 28  1  0  0  0
 22 32  2  0  0  0
 26 27  1  0  0  0
 28106  1  0  0  0
 28107  1  0  0  0
 29108  1  0  0  0
 29109  1  0  0  0
 33 34  1  0  0  0
 33 66  1  0  0  0
 33 70  2  0  0  0
 34 36  1  0  0  0
 34 59  1  0  0  0
 34110  1  0  0  0
 35 44  2  0  0  0
 35 45  1  0  0  0
 35 68  1  0  0  0
 36 56  1  0  0  0
 36111  1  0  0  0
 37 39  1  0  0  0
 37 47  1  0  0  0
 37 66  1  0  0  0
 37112  1  0  0  0
 38 43  2  0  0  0
 38 46  1  0  0  0
 38 47  1  0  0  0
 39 64  1  0  0  0
 39 67  2  0  0  0
 40 52  1  0  0  0
 40 53  2  0  0  0
 40 58  1  0  0  0
 41113  1  0  0  0
 41114  1  0  0  0
 41115  1  0  0  0
 41 48  1  0  0  0
 42 43  1  0  0  0
 42 66  1  0  0  0
 42116  1  0  0  0
 42117  1  0  0  0
 43 44  1  0  0  0
 44118  1  0  0  0
 45 46  2  0  0  0
 45119  1  0  0  0
 46120  1  0  0  0
 47121  1  0  0  0
 47122  1  0  0  0
 48 56  1  0  0  0
 48 65  1  0  0  0
 48123  1  0  0  0
 49 50  1  0  0  0
 49 53  1  0  0  0
 49 64  1  0  0  0
 49124  1  0  0  0
 50 51  1  0  0  0
 50125  1  0  0  0
 50126  1  0  0  0
 51 52  1  0  0  0
 51127  1  0  0  0
 51128  1  0  0  0
 52129  1  0  0  0
 52130  1  0  0  0
 53 54  1  0  0  0
 54 55  2  0  0  0
 54131  1  0  0  0
 55 57  1  0  0  0
 55132  1  0  0  0
 56 69  2  0  0  0
 57 58  2  0  0  0
 57133  1  0  0  0
 58134  1  0  0  0
 59 60  1  0  0  0
 59 61  1  0  0  0
 59 62  1  0  0  0
 60135  1  0  0  0
 60136  1  0  0  0
 60137  1  0  0  0
 61138  1  0  0  0
 61139  1  0  0  0
 61140  1  0  0  0
 62141  1  0  0  0
 62142  1  0  0  0
 62143  1  0  0  0
 63 65  1  0  0  0
 63144  1  0  0  0
 63145  1  0  0  0
 63146  1  0  0  0
 64147  1  0  0  0
 65148  1  0  0  0
 68 79  1  0  0  0
 71 72  2  0  0  0
 71 75  1  0  0  0
 71 87  1  0  0  0
 72 77  1  0  0  0
 72 88  1  0  0  0
 73 74  1  0  0  0
 73 78  1  0  0  0
 73 87  2  0  0  0
 74 79  1  0  0  0
 74 88  2  0  0  0
 75149  1  0  0  0
 75150  1  0  0  0
 75151  1  0  0  0
 76 77  1  0  0  0
 76152  1  0  0  0
 76153  1  0  0  0
 76154  1  0  0  0
 77155  1  0  0  0
 77156  1  0  0  0
 78 80  1  0  0  0
 78157  1  0  0  0
 78158  1  0  0  0
 79159  1  0  0  0
 79160  1  0  0  0
 80 81  1  0  0  0
 80161  1  0  0  0
 80162  1  0  0  0
 81 82  1  0  0  0
 81163  1  0  0  0
 81164  1  0  0  0
 82 83  1  0  0  0
 82165  1  0  0  0
 82166  1  0  0  0
 83 84  1  0  0  0
 83167  1  0  0  0
 83168  1  0  0  0
 84 85  1  0  0  0
 84169  1  0  0  0
 84170  1  0  0  0
 85 86  1  0  0  0
 85171  1  0  0  0
 85172  1  0  0  0
 86 89  1  0  0  0
 86173  1  0  0  0
 86174  1  0  0  0
 89175  1  0  0  0
M  ISO  4   1 100  68 101  79 101  89 100
M  END
> <chiral flag>
0

> <version>
0

> <s_m_source_file>
/data/baiqing/PycharmProjects/Reinvent-master-3.2/result/LINK_invent/BTK/process_docking_weight1_custom_sum_contain_oxygen_bond_distance_aromatic_linkinvent_7_9_3/rearranged_h_0038.sdf

> <i_m_source_file_index>
12

> <r_mmod_Potential_Energy-OPLS-2005>
-7.49136543273926

> <r_mmod_Stretch_Energy-OPLS-2005>
36.7026481628418

> <r_mmod_Bend_Energy-OPLS-2005>
105.65128326416

> <r_mmod_Torsional_Energy-OPLS-2005>
199.31282043457

> <r_mmod_Improper_Torsional_Energy-OPLS-2005>
2.24644732475281

> <r_mmod_Van_der_Waal_Energy-OPLS-2005>
165.209075927734

> <r_mmod_Electrostatic_Energy-OPLS-2005>
-308.588104248047

> <r_mmod_Solvation_Energy-OPLS-2005>
-218.137954711914

> <b_mmod_Minimization_Converged-OPLS-2005>
0

> <r_mmod_RMS_Derivative-OPLS-2005>
5.3397855758667

$$$$
12
                    3D
 Structure written by MMmdl.
175183  0  0  1  0            999 V2000
  -30.7514  -14.4271   20.5581 C   0  0  0  0  0  0
  -30.4088  -12.2745   19.4296 C   0  0  0  0  0  0
  -29.5054  -12.4990   18.2031 C   0  0  0  0  0  0
  -28.0236  -12.3749   18.6107 C   0  0  0  0  0  0
  -27.6660  -13.2115   19.8719 C   0  0  2  0  0  0
  -28.7063  -13.0091   20.9981 C   0  0  0  0  0  0
  -25.2639  -13.8157   20.5720 C   0  0  0  0  0  0
  -24.1876  -13.0463   20.9198 C   0  0  0  0  0  0
  -24.6381  -11.6911   20.8699 C   0  0  0  0  0  0
  -23.9017  -10.4317   21.0377 C   0  0  0  0  0  0
  -24.3570   -9.4261   21.9169 C   0  0  0  0  0  0
  -23.6293   -8.2266   22.0715 C   0  0  0  0  0  0
  -22.4271   -8.0267   21.3520 C   0  0  0  0  0  0
  -21.9901   -9.0210   20.4602 C   0  0  0  0  0  0
  -22.7180  -10.2126   20.3048 C   0  0  0  0  0  0
  -21.6860   -6.0733   22.5271 C   0  0  0  0  0  0
  -21.3987   -6.5625   23.8202 C   0  0  0  0  0  0
  -21.3678   -5.6780   24.9169 C   0  0  0  0  0  0
  -21.6077   -4.3045   24.7223 C   0  0  0  0  0  0
  -21.8820   -3.8138   23.4340 C   0  0  0  0  0  0
  -21.9208   -4.6961   22.3406 C   0  0  0  0  0  0
  -22.7913  -13.5262   21.1908 C   0  0  0  0  0  0
  -22.1683   -4.2153   21.0981 F   0  0  0  0  0  0
  -21.5667   -3.4532   25.7739 F   0  0  0  0  0  0
  -30.0414  -13.2758   20.4402 N   0  0  0  0  0  0
  -26.3071  -12.9330   20.3362 N   0  0  0  0  0  0
  -25.9316  -11.6474   20.5698 N   0  0  0  0  0  0
  -22.0535  -12.8180   22.0389 N   0  0  0  0  0  0
  -25.4443  -15.1858   20.4118 N   0  0  0  0  0  0
  -31.8827  -14.5665   20.0944 O   0  0  0  0  0  0
  -21.6645   -6.8863   21.4223 O   0  0  0  0  0  0
  -22.3651  -14.5634   20.6823 O   0  0  0  0  0  0
  -24.6100  -31.8735   23.2216 C   0  0  0  0  0  0
  -25.9014  -32.4854   23.8499 C   0  0  1  0  0  0
  -27.2233  -27.4877   20.0585 C   0  0  0  0  0  0
  -25.5943  -33.8654   24.2429 N   0  0  0  0  0  0
  -23.3974  -30.4957   21.5612 C   0  0  2  0  0  0
  -24.8405  -28.9770   20.1032 C   0  0  0  0  0  0
  -22.7389  -29.4668   22.5061 C   0  0  0  0  0  0
  -18.0293  -28.1409   22.8502 C   0  0  0  0  0  0
  -24.1499  -36.7297   23.2660 C   0  0  0  0  0  0
  -25.9190  -30.8484   21.3718 C   0  0  0  0  0  0
  -25.9939  -29.4884   20.7109 C   0  0  0  0  0  0
  -27.1898  -28.7398   20.7030 C   0  0  0  0  0  0
  -26.0789  -27.0065   19.4010 C   0  0  0  0  0  0
  -24.8753  -27.7331   19.4477 C   0  0  0  0  0  0
  -23.5992  -29.8338   20.1711 C   0  0  0  0  0  0
  -25.4101  -36.3110   24.0371 C   0  0  1  0  0  0
  -20.5846  -28.3674   23.1360 C   0  0  2  0  0  0
  -20.6770  -26.9437   22.5413 C   0  0  0  0  0  0
  -19.5759  -26.6401   21.5201 C   0  0  0  0  0  0
  -18.1926  -26.7959   22.1598 C   0  0  0  0  0  0
  -19.1522  -28.8836   23.2927 C   0  0  0  0  0  0
  -18.9461  -30.1436   23.8950 C   0  0  0  0  0  0
  -17.6459  -30.6596   24.0558 C   0  0  0  0  0  0
  -25.9043  -34.9482   23.5177 C   0  0  0  0  0  0
  -16.5361  -29.9095   23.6324 C   0  0  0  0  0  0
  -16.7274  -28.6511   23.0356 C   0  0  0  0  0  0
  -26.4416  -31.6602   25.0827 C   0  0  0  0  0  0
  -25.3658  -31.3660   26.1569 C   0  0  0  0  0  0
  -27.0266  -30.3079   24.6140 C   0  0  0  0  0  0
  -27.6029  -32.4307   25.7557 C   0  0  0  0  0  0
  -27.5555  -37.1777   24.8483 C   0  0  0  0  0  0
  -21.4122  -29.3059   22.3784 N   0  0  0  0  0  0
  -26.4280  -37.3788   23.9435 N   0  0  0  0  0  0
  -24.6603  -31.0856   22.1102 N   0  0  0  0  0  0
  -23.4168  -28.8190   23.3090 O   0  0  0  0  0  0
  -28.3301  -26.6868   20.1093 O   0  0  0  0  0  0
  -26.5537  -34.8914   22.4709 O   0  0  0  0  0  0
  -23.5320  -32.1454   23.7640 O   0  0  0  0  0  0
  -25.8229  -24.4908   21.1453 C   0  0  0  0  0  0
  -27.0914  -23.9869   20.8064 C   0  0  0  0  0  0
  -27.0813  -22.8872   19.9220 C   0  0  0  0  0  0
  -24.8114  -23.0009   19.7360 C   0  0  0  0  0  0
  -23.1258  -23.3239   17.8732 C   0  0  0  0  0  0
  -28.3808  -24.5739   21.4067 C   0  0  0  0  0  0
  -28.3039  -22.0681   19.5841 C   0  0  0  0  0  0
  -23.5573  -22.4643   19.0686 C   0  0  0  0  0  0
  -29.1072  -22.6195   18.4073 C   0  0  0  0  0  0
  -30.2176  -21.6737   17.9157 C   0  0  0  0  0  0
  -31.1579  -21.1039   19.0057 C   0  0  0  0  0  0
  -30.6690  -19.8576   19.7962 C   0  0  0  0  0  0
  -30.2249  -18.6791   18.9093 C   0  0  0  0  0  0
  -29.6263  -17.4685   19.6468 C   0  0  0  0  0  0
  -30.4756  -16.8774   20.7827 C   0  0  0  0  0  0
  -28.5053  -26.1144   21.4068 C   0  0  0  0  0  0
  -24.6896  -23.9959   20.6076 N   0  0  0  0  0  0
  -25.9495  -22.4439   19.3593 N   0  0  0  0  0  0
  -30.0733  -15.4874   21.0234 N   0  0  0  0  0  0
  -31.4666  -12.3132   19.1549 H   0  0  0  0  0  0
  -30.2378  -11.2751   19.8300 H   0  0  0  0  0  0
  -29.7364  -11.7592   17.4361 H   0  0  0  0  0  0
  -29.7004  -13.4776   17.7569 H   0  0  0  0  0  0
  -27.8262  -11.3191   18.7994 H   0  0  0  0  0  0
  -27.3809  -12.6584   17.7786 H   0  0  0  0  0  0
  -27.7023  -14.2575   19.5650 H   0  0  0  0  0  0
  -28.6735  -11.9859   21.3716 H   0  0  0  0  0  0
  -28.4808  -13.6430   21.8563 H   0  0  0  0  0  0
  -25.2702   -9.5787   22.4740 H   0  0  0  0  0  0
  -24.0060   -7.4658   22.7387 H   0  0  0  0  0  0
  -21.0883   -8.8654   19.8850 H   0  0  0  0  0  0
  -22.3598  -10.9641   19.6159 H   0  0  0  0  0  0
  -21.1892   -7.6114   23.9694 H   0  0  0  0  0  0
  -21.1543   -6.0511   25.9077 H   0  0  0  0  0  0
  -22.0584   -2.7597   23.2832 H   0  0  0  0  0  0
  -22.4123  -11.9819   22.4776 H   0  0  0  0  0  0
  -21.1107  -13.1122   22.2493 H   0  0  0  0  0  0
  -24.6871  -15.8531   20.5098 H   0  0  0  0  0  0
  -26.3063  -15.6038   20.0858 H   0  0  0  0  0  0
  -26.7105  -32.5547   23.1282 H   0  0  0  0  0  0
  -25.0202  -33.9869   25.0643 H   0  0  0  0  0  0
  -22.6884  -31.3133   21.4279 H   0  0  0  0  0  0
  -23.3775  -35.9622   23.3364 H   0  0  0  0  0  0
  -24.3636  -36.8866   22.2080 H   0  0  0  0  0  0
  -23.7228  -37.6514   23.6636 H   0  0  0  0  0  0
  -26.0367  -31.6181   20.6090 H   0  0  0  0  0  0
  -26.8092  -30.8969   21.9889 H   0  0  0  0  0  0
  -28.0747  -29.1084   21.2012 H   0  0  0  0  0  0
  -26.1152  -26.0535   18.8919 H   0  0  0  0  0  0
  -23.9920  -27.3359   18.9679 H   0  0  0  0  0  0
  -23.7050  -30.6209   19.4234 H   0  0  0  0  0  0
  -22.7201  -29.2584   19.8738 H   0  0  0  0  0  0
  -25.1247  -36.2007   25.0853 H   0  0  0  0  0  0
  -20.9892  -28.3228   24.1504 H   0  0  0  0  0  0
  -20.5687  -26.2293   23.3595 H   0  0  0  0  0  0
  -21.6637  -26.7537   22.1183 H   0  0  0  0  0  0
  -19.6961  -25.6298   21.1277 H   0  0  0  0  0  0
  -19.6703  -27.3156   20.6688 H   0  0  0  0  0  0
  -17.4184  -26.6736   21.4018 H   0  0  0  0  0  0
  -18.0374  -26.0089   22.8988 H   0  0  0  0  0  0
  -19.7925  -30.7225   24.2374 H   0  0  0  0  0  0
  -17.5025  -31.6294   24.5138 H   0  0  0  0  0  0
  -15.5350  -30.3001   23.7619 H   0  0  0  0  0  0
  -15.8696  -28.0796   22.7099 H   0  0  0  0  0  0
  -24.5859  -30.6998   25.7871 H   0  0  0  0  0  0
  -24.8796  -32.2789   26.5025 H   0  0  0  0  0  0
  -25.7962  -30.8804   27.0331 H   0  0  0  0  0  0
  -26.2787  -29.6841   24.1238 H   0  0  0  0  0  0
  -27.4154  -29.7322   25.4539 H   0  0  0  0  0  0
  -27.8570  -30.4535   23.9232 H   0  0  0  0  0  0
  -27.2706  -33.3623   26.2140 H   0  0  0  0  0  0
  -28.3780  -32.6804   25.0310 H   0  0  0  0  0  0
  -28.0738  -31.8416   26.5437 H   0  0  0  0  0  0
  -28.2538  -38.0085   24.7489 H   0  0  0  0  0  0
  -28.1019  -36.2592   24.6299 H   0  0  0  0  0  0
  -27.2287  -37.1449   25.8886 H   0  0  0  0  0  0
  -20.9323  -29.8760   21.6951 H   0  0  0  0  0  0
  -26.0179  -38.2876   24.1393 H   0  0  0  0  0  0
  -25.7062  -25.3107   21.8396 H   0  0  0  0  0  0
  -22.1976  -22.9524   17.4431 H   0  0  0  0  0  0
  -23.8862  -23.3157   17.0930 H   0  0  0  0  0  0
  -22.9734  -24.3599   18.1768 H   0  0  0  0  0  0
  -29.2614  -24.1894   20.8996 H   0  0  0  0  0  0
  -28.4589  -24.2244   22.4378 H   0  0  0  0  0  0
  -27.9986  -21.0427   19.3691 H   0  0  0  0  0  0
  -28.9171  -22.0221   20.4804 H   0  0  0  0  0  0
  -22.7574  -22.3842   19.8039 H   0  0  0  0  0  0
  -23.7363  -21.4442   18.7204 H   0  0  0  0  0  0
  -29.5410  -23.5735   18.6980 H   0  0  0  0  0  0
  -28.4325  -22.8388   17.5743 H   0  0  0  0  0  0
  -30.8291  -22.2487   17.2199 H   0  0  0  0  0  0
  -29.7931  -20.8817   17.3000 H   0  0  0  0  0  0
  -31.4158  -21.9013   19.7065 H   0  0  0  0  0  0
  -32.0935  -20.8376   18.5103 H   0  0  0  0  0  0
  -29.8798  -20.1041   20.5012 H   0  0  0  0  0  0
  -31.4984  -19.5182   20.4202 H   0  0  0  0  0  0
  -31.0645  -18.3566   18.2898 H   0  0  0  0  0  0
  -29.4477  -19.0123   18.2234 H   0  0  0  0  0  0
  -29.4754  -16.6990   18.8886 H   0  0  0  0  0  0
  -28.6326  -17.7099   20.0235 H   0  0  0  0  0  0
  -30.3585  -17.4696   21.6932 H   0  0  0  0  0  0
  -31.5332  -16.9525   20.5235 H   0  0  0  0  0  0
  -29.5014  -26.4017   21.7464 H   0  0  0  0  0  0
  -27.8112  -26.5259   22.1451 H   0  0  0  0  0  0
  -29.1233  -15.3246   21.3269 H   0  0  0  0  0  0
  1 25  1  0  0  0
  1 30  2  0  0  0
  1 89  1  0  0  0
  2  3  1  0  0  0
  2 25  1  0  0  0
  2 90  1  0  0  0
  2 91  1  0  0  0
  3  4  1  0  0  0
  3 92  1  0  0  0
  3 93  1  0  0  0
  4  5  1  0  0  0
  4 94  1  0  0  0
  4 95  1  0  0  0
  5  6  1  0  0  0
  5 26  1  0  0  0
  5 96  1  0  0  0
  6 25  1  0  0  0
  6 97  1  0  0  0
  6 98  1  0  0  0
  7  8  2  0  0  0
  7 26  1  0  0  0
  7 29  1  0  0  0
  8  9  1  0  0  0
  8 22  1  0  0  0
  9 10  1  0  0  0
  9 27  2  0  0  0
 10 11  2  0  0  0
 10 15  1  0  0  0
 11 12  1  0  0  0
 11 99  1  0  0  0
 12 13  2  0  0  0
 12100  1  0  0  0
 13 14  1  0  0  0
 13 31  1  0  0  0
 14 15  2  0  0  0
 14101  1  0  0  0
 15102  1  0  0  0
 16 17  2  0  0  0
 16 21  1  0  0  0
 16 31  1  0  0  0
 17 18  1  0  0  0
 17103  1  0  0  0
 18 19  2  0  0  0
 18104  1  0  0  0
 19 20  1  0  0  0
 19 24  1  0  0  0
 20 21  2  0  0  0
 20105  1  0  0  0
 21 23  1  0  0  0
 22 28  1  0  0  0
 22 32  2  0  0  0
 26 27  1  0  0  0
 28106  1  0  0  0
 28107  1  0  0  0
 29108  1  0  0  0
 29109  1  0  0  0
 33 34  1  0  0  0
 33 66  1  0  0  0
 33 70  2  0  0  0
 34 36  1  0  0  0
 34 59  1  0  0  0
 34110  1  0  0  0
 35 44  2  0  0  0
 35 45  1  0  0  0
 35 68  1  0  0  0
 36 56  1  0  0  0
 36111  1  0  0  0
 37 39  1  0  0  0
 37 47  1  0  0  0
 37 66  1  0  0  0
 37112  1  0  0  0
 38 43  2  0  0  0
 38 46  1  0  0  0
 38 47  1  0  0  0
 39 64  1  0  0  0
 39 67  2  0  0  0
 40 52  1  0  0  0
 40 53  2  0  0  0
 40 58  1  0  0  0
 41113  1  0  0  0
 41114  1  0  0  0
 41115  1  0  0  0
 41 48  1  0  0  0
 42 43  1  0  0  0
 42 66  1  0  0  0
 42116  1  0  0  0
 42117  1  0  0  0
 43 44  1  0  0  0
 44118  1  0  0  0
 45 46  2  0  0  0
 45119  1  0  0  0
 46120  1  0  0  0
 47121  1  0  0  0
 47122  1  0  0  0
 48 56  1  0  0  0
 48 65  1  0  0  0
 48123  1  0  0  0
 49 50  1  0  0  0
 49 53  1  0  0  0
 49 64  1  0  0  0
 49124  1  0  0  0
 50 51  1  0  0  0
 50125  1  0  0  0
 50126  1  0  0  0
 51 52  1  0  0  0
 51127  1  0  0  0
 51128  1  0  0  0
 52129  1  0  0  0
 52130  1  0  0  0
 53 54  1  0  0  0
 54 55  2  0  0  0
 54131  1  0  0  0
 55 57  1  0  0  0
 55132  1  0  0  0
 56 69  2  0  0  0
 57 58  2  0  0  0
 57133  1  0  0  0
 58134  1  0  0  0
 59 60  1  0  0  0
 59 61  1  0  0  0
 59 62  1  0  0  0
 60135  1  0  0  0
 60136  1  0  0  0
 60137  1  0  0  0
 61138  1  0  0  0
 61139  1  0  0  0
 61140  1  0  0  0
 62141  1  0  0  0
 62142  1  0  0  0
 62143  1  0  0  0
 63 65  1  0  0  0
 63144  1  0  0  0
 63145  1  0  0  0
 63146  1  0  0  0
 64147  1  0  0  0
 65148  1  0  0  0
 68 86  1  0  0  0
 71 72  2  0  0  0
 71 87  1  0  0  0
 71149  1  0  0  0
 72 73  1  0  0  0
 72 76  1  0  0  0
 73 77  1  0  0  0
 73 88  2  0  0  0
 74 78  1  0  0  0
 74 87  2  0  0  0
 74 88  1  0  0  0
 75 78  1  0  0  0
 75150  1  0  0  0
 75151  1  0  0  0
 75152  1  0  0  0
 76 86  1  0  0  0
 76153  1  0  0  0
 76154  1  0  0  0
 77 79  1  0  0  0
 77155  1  0  0  0
 77156  1  0  0  0
 78157  1  0  0  0
 78158  1  0  0  0
 79 80  1  0  0  0
 79159  1  0  0  0
 79160  1  0  0  0
 80 81  1  0  0  0
 80161  1  0  0  0
 80162  1  0  0  0
 81 82  1  0  0  0
 81163  1  0  0  0
 81164  1  0  0  0
 82 83  1  0  0  0
 82165  1  0  0  0
 82166  1  0  0  0
 83 84  1  0  0  0
 83167  1  0  0  0
 83168  1  0  0  0
 84 85  1  0  0  0
 84169  1  0  0  0
 84170  1  0  0  0
 85 89  1  0  0  0
 85171  1  0  0  0
 85172  1  0  0  0
 86173  1  0  0  0
 86174  1  0  0  0
 89175  1  0  0  0
M  ISO  4   1 100  68 101  86 101  89 100
M  END
> <chiral flag>
0

> <version>
0

> <s_m_source_file>
/data/baiqing/PycharmProjects/Reinvent-master-3.2/result/LINK_invent/BTK/process_docking_weight1_custom_sum_contain_oxygen_bond_distance_aromatic_linkinvent_7_9_3/rearranged_h_0038.sdf

> <i_m_source_file_index>
13

> <r_mmod_Potential_Energy-OPLS-2005>
-483.389587402344

> <r_mmod_Stretch_Energy-OPLS-2005>
31.8874263763428

> <r_mmod_Bend_Energy-OPLS-2005>
105.794044494629

> <r_mmod_Torsional_Energy-OPLS-2005>
224.454208374023

> <r_mmod_Improper_Torsional_Energy-OPLS-2005>
5.55815124511719

> <r_mmod_Van_der_Waal_Energy-OPLS-2005>
157.709594726562

> <r_mmod_Electrostatic_Energy-OPLS-2005>
-802.264038085938

> <r_mmod_Solvation_Energy-OPLS-2005>
-221.765823364258

> <b_mmod_Minimization_Converged-OPLS-2005>
0

> <r_mmod_RMS_Derivative-OPLS-2005>
5.98827600479126

$$$$
13
                    3D
 Structure written by MMmdl.
160168  0  0  1  0            999 V2000
  -30.5761  -14.9729   20.4059 C   0  0  0  0  0  0
  -30.4361  -12.5725   19.5369 C   0  0  0  0  0  0
  -29.5333  -12.5259   18.2810 C   0  0  0  0  0  0
  -28.0640  -12.3135   18.6880 C   0  0  0  0  0  0
  -27.6259  -13.2599   19.8362 C   0  0  2  0  0  0
  -28.6491  -13.3168   20.9876 C   0  0  0  0  0  0
  -25.2432  -13.8250   20.5719 C   0  0  0  0  0  0
  -24.1755  -13.0462   20.9220 C   0  0  0  0  0  0
  -24.6388  -11.6949   20.8750 C   0  0  0  0  0  0
  -23.9089  -10.4310   21.0401 C   0  0  0  0  0  0
  -24.3633   -9.4219   21.9176 C   0  0  0  0  0  0
  -23.6297   -8.2253   22.0760 C   0  0  0  0  0  0
  -22.4278   -8.0292   21.3554 C   0  0  0  0  0  0
  -21.9923   -9.0266   20.4650 C   0  0  0  0  0  0
  -22.7264  -10.2135   20.3048 C   0  0  0  0  0  0
  -21.6859   -6.0741   22.5280 C   0  0  0  0  0  0
  -21.4016   -6.5648   23.8215 C   0  0  0  0  0  0
  -21.3653   -5.6797   24.9174 C   0  0  0  0  0  0
  -21.6042   -4.3060   24.7222 C   0  0  0  0  0  0
  -21.8817   -3.8151   23.4347 C   0  0  0  0  0  0
  -21.9192   -4.6970   22.3404 C   0  0  0  0  0  0
  -22.7772  -13.5220   21.1883 C   0  0  0  0  0  0
  -22.1659   -4.2158   21.0977 F   0  0  0  0  0  0
  -21.5622   -3.4534   25.7728 F   0  0  0  0  0  0
  -29.9466  -13.6724   20.4142 N   0  0  0  0  0  0
  -26.2853  -12.9503   20.3208 N   0  0  0  0  0  0
  -25.9317  -11.6629   20.5719 N   0  0  0  0  0  0
  -22.0425  -12.8201   22.0438 N   0  0  0  0  0  0
  -25.4122  -15.1980   20.4188 N   0  0  0  0  0  0
  -31.7576  -15.0551   20.0632 O   0  0  0  0  0  0
  -21.6647   -6.8886   21.4243 O   0  0  0  0  0  0
  -22.3459  -14.5525   20.6737 O   0  0  0  0  0  0
  -24.6451  -31.8415   23.1845 C   0  0  0  0  0  0
  -25.9206  -32.4687   23.8247 C   0  0  1  0  0  0
  -27.2145  -27.1143   20.1680 C   0  0  0  0  0  0
  -25.5961  -33.8497   24.2178 N   0  0  0  0  0  0
  -23.4500  -30.4594   21.5300 C   0  0  2  0  0  0
  -24.8999  -28.8816   20.1110 C   0  0  0  0  0  0
  -22.7571  -29.4542   22.4846 C   0  0  0  0  0  0
  -18.0304  -28.1399   22.8482 C   0  0  0  0  0  0
  -24.1497  -36.7245   23.2644 C   0  0  0  0  0  0
  -26.0052  -30.7131   21.3817 C   0  0  0  0  0  0
  -26.0778  -29.3187   20.7305 C   0  0  0  0  0  0
  -27.2374  -28.4533   20.7369 C   0  0  0  0  0  0
  -26.0146  -26.7841   19.5033 C   0  0  0  0  0  0
  -24.8828  -27.6284   19.4790 C   0  0  0  0  0  0
  -23.6768  -29.7835   20.1509 C   0  0  0  0  0  0
  -25.4123  -36.3021   24.0324 C   0  0  1  0  0  0
  -20.5913  -28.3730   23.1231 C   0  0  2  0  0  0
  -20.6787  -26.9436   22.5402 C   0  0  0  0  0  0
  -19.5770  -26.6382   21.5216 C   0  0  0  0  0  0
  -18.1946  -26.7948   22.1615 C   0  0  0  0  0  0
  -19.1557  -28.8882   23.2847 C   0  0  0  0  0  0
  -18.9477  -30.1475   23.8876 C   0  0  0  0  0  0
  -17.6478  -30.6599   24.0561 C   0  0  0  0  0  0
  -25.9075  -34.9410   23.5058 C   0  0  0  0  0  0
  -16.5366  -29.9094   23.6336 C   0  0  0  0  0  0
  -16.7286  -28.6512   23.0363 C   0  0  0  0  0  0
  -26.4534  -31.6545   25.0682 C   0  0  0  0  0  0
  -25.3729  -31.3710   26.1377 C   0  0  0  0  0  0
  -27.0407  -30.2947   24.6255 C   0  0  0  0  0  0
  -27.6052  -32.4319   25.7475 C   0  0  0  0  0  0
  -27.5571  -37.1769   24.8464 C   0  0  0  0  0  0
  -21.4260  -29.3055   22.3602 N   0  0  0  0  0  0
  -26.4274  -37.3739   23.9434 N   0  0  0  0  0  0
  -24.7204  -31.0273   22.0873 N   0  0  0  0  0  0
  -23.4203  -28.8086   23.3004 O   0  0  0  0  0  0
  -28.2701  -26.1260   20.2042 O   0  0  0  0  0  0
  -26.5652  -34.8911   22.4625 O   0  0  0  0  0  0
  -23.5568  -32.1276   23.7064 O   0  0  0  0  0  0
  -28.9449  -19.1791   22.0136 C   0  0  0  0  0  0
  -29.4211  -19.1025   20.6906 C   0  0  0  0  0  0
  -29.3887  -20.4366   20.0141 C   0  0  0  0  0  0
  -28.5194  -20.4065   22.5745 C   0  0  0  0  0  0
  -28.9139  -21.7048   20.6485 C   0  0  0  0  0  0
  -28.0546  -20.4509   24.0159 C   0  0  0  0  0  0
  -29.0851  -20.5105   16.1320 C   0  0  0  0  0  0
  -29.8674  -20.5055   18.5736 C   0  0  0  0  0  0
  -30.0474  -17.6597   20.1470 C   0  0  0  0  0  0
  -29.0216  -23.2800   20.1129 C   0  0  0  0  0  0
  -28.6966  -20.3058   17.5988 C   0  0  0  0  0  0
  -28.0113  -24.5980   20.4718 C   0  0  0  0  0  0
  -28.5142  -21.6041   21.9335 N   0  0  0  0  0  0
  -29.7144  -16.2270   20.6494 O   0  0  0  0  0  0
  -31.4768  -12.7197   19.2444 H   0  0  0  0  0  0
  -30.4086  -11.6213   20.0712 H   0  0  0  0  0  0
  -29.8564  -11.7262   17.6131 H   0  0  0  0  0  0
  -29.6299  -13.4560   17.7187 H   0  0  0  0  0  0
  -27.9669  -11.2774   19.0133 H   0  0  0  0  0  0
  -27.4050  -12.4257   17.8264 H   0  0  0  0  0  0
  -27.5876  -14.2563   19.3955 H   0  0  0  0  0  0
  -28.7109  -12.3611   21.5095 H   0  0  0  0  0  0
  -28.3508  -14.0593   21.7290 H   0  0  0  0  0  0
  -25.2766   -9.5690   22.4774 H   0  0  0  0  0  0
  -23.9997   -7.4645   22.7490 H   0  0  0  0  0  0
  -21.0853   -8.8790   19.8953 H   0  0  0  0  0  0
  -22.3725  -10.9673   19.6162 H   0  0  0  0  0  0
  -21.2016   -7.6156   23.9735 H   0  0  0  0  0  0
  -21.1471   -6.0514   25.9079 H   0  0  0  0  0  0
  -22.0599   -2.7611   23.2839 H   0  0  0  0  0  0
  -22.4034  -11.9836   22.4773 H   0  0  0  0  0  0
  -21.1042  -13.1220   22.2659 H   0  0  0  0  0  0
  -24.6532  -15.8570   20.5543 H   0  0  0  0  0  0
  -26.2798  -15.6405   20.1404 H   0  0  0  0  0  0
  -26.7268  -32.5286   23.0969 H   0  0  0  0  0  0
  -25.0130  -33.9628   25.0343 H   0  0  0  0  0  0
  -22.7540  -31.2850   21.3700 H   0  0  0  0  0  0
  -23.3775  -35.9558   23.3273 H   0  0  0  0  0  0
  -24.3595  -36.8904   22.2064 H   0  0  0  0  0  0
  -23.7235  -37.6427   23.6702 H   0  0  0  0  0  0
  -26.1557  -31.4625   20.6034 H   0  0  0  0  0  0
  -26.8791  -30.7699   22.0199 H   0  0  0  0  0  0
  -28.1377  -28.7895   21.2340 H   0  0  0  0  0  0
  -25.9282  -25.8320   19.0017 H   0  0  0  0  0  0
  -23.9872  -27.2912   18.9757 H   0  0  0  0  0  0
  -23.8082  -30.5535   19.3904 H   0  0  0  0  0  0
  -22.7943  -29.2197   19.8444 H   0  0  0  0  0  0
  -25.1309  -36.1827   25.0815 H   0  0  0  0  0  0
  -21.0007  -28.3318   24.1349 H   0  0  0  0  0  0
  -20.5717  -26.2346   23.3612 H   0  0  0  0  0  0
  -21.6651  -26.7461   22.1184 H   0  0  0  0  0  0
  -19.6955  -25.6294   21.1245 H   0  0  0  0  0  0
  -19.6724  -27.3201   20.6759 H   0  0  0  0  0  0
  -17.4228  -26.6708   21.4007 H   0  0  0  0  0  0
  -18.0325  -26.0090   22.8998 H   0  0  0  0  0  0
  -19.7953  -30.7286   24.2251 H   0  0  0  0  0  0
  -17.5031  -31.6285   24.5160 H   0  0  0  0  0  0
  -15.5368  -30.2988   23.7699 H   0  0  0  0  0  0
  -15.8674  -28.0828   22.7100 H   0  0  0  0  0  0
  -24.5978  -30.6982   25.7694 H   0  0  0  0  0  0
  -24.8846  -32.2875   26.4692 H   0  0  0  0  0  0
  -25.8023  -30.8973   27.0211 H   0  0  0  0  0  0
  -26.3019  -29.6662   24.1280 H   0  0  0  0  0  0
  -27.4046  -29.7254   25.4812 H   0  0  0  0  0  0
  -27.8909  -30.4194   23.9550 H   0  0  0  0  0  0
  -27.2659  -33.3686   26.1907 H   0  0  0  0  0  0
  -28.3934  -32.6764   25.0344 H   0  0  0  0  0  0
  -28.0637  -31.8531   26.5499 H   0  0  0  0  0  0
  -28.2530  -38.0114   24.7532 H   0  0  0  0  0  0
  -28.1103  -36.2635   24.6235 H   0  0  0  0  0  0
  -27.2291  -37.1335   25.8862 H   0  0  0  0  0  0
  -20.9466  -29.8750   21.6766 H   0  0  0  0  0  0
  -26.0123  -38.2796   24.1454 H   0  0  0  0  0  0
  -28.9379  -18.2822   22.6199 H   0  0  0  0  0  0
  -28.6207  -19.7497   24.6281 H   0  0  0  0  0  0
  -26.9998  -20.1856   24.0767 H   0  0  0  0  0  0
  -28.1841  -21.4431   24.4485 H   0  0  0  0  0  0
  -28.2182  -20.3800   15.4829 H   0  0  0  0  0  0
  -29.8494  -19.7983   15.8173 H   0  0  0  0  0  0
  -29.4695  -21.5163   15.9609 H   0  0  0  0  0  0
  -30.6366  -19.7537   18.3955 H   0  0  0  0  0  0
  -30.3549  -21.4638   18.3932 H   0  0  0  0  0  0
  -31.1282  -17.7611   20.2484 H   0  0  0  0  0  0
  -29.8683  -17.6372   19.0717 H   0  0  0  0  0  0
  -29.0541  -23.2289   19.0266 H   0  0  0  0  0  0
  -30.0252  -23.5895   20.4009 H   0  0  0  0  0  0
  -28.2760  -19.3071   17.7240 H   0  0  0  0  0  0
  -27.8977  -21.0049   17.8473 H   0  0  0  0  0  0
  -27.8721  -24.5593   21.5525 H   0  0  0  0  0  0
  -27.0321  -24.3371   20.0751 H   0  0  0  0  0  0
  1 25  1  0  0  0
  1 30  2  0  0  0
  1 84  1  0  0  0
  2  3  1  0  0  0
  2 25  1  0  0  0
  2 85  1  0  0  0
  2 86  1  0  0  0
  3  4  1  0  0  0
  3 87  1  0  0  0
  3 88  1  0  0  0
  4  5  1  0  0  0
  4 89  1  0  0  0
  4 90  1  0  0  0
  5  6  1  0  0  0
  5 26  1  0  0  0
  5 91  1  0  0  0
  6 25  1  0  0  0
  6 92  1  0  0  0
  6 93  1  0  0  0
  7  8  2  0  0  0
  7 26  1  0  0  0
  7 29  1  0  0  0
  8  9  1  0  0  0
  8 22  1  0  0  0
  9 10  1  0  0  0
  9 27  2  0  0  0
 10 11  2  0  0  0
 10 15  1  0  0  0
 11 12  1  0  0  0
 11 94  1  0  0  0
 12 13  2  0  0  0
 12 95  1  0  0  0
 13 14  1  0  0  0
 13 31  1  0  0  0
 14 15  2  0  0  0
 14 96  1  0  0  0
 15 97  1  0  0  0
 16 17  2  0  0  0
 16 21  1  0  0  0
 16 31  1  0  0  0
 17 18  1  0  0  0
 17 98  1  0  0  0
 18 19  2  0  0  0
 18 99  1  0  0  0
 19 20  1  0  0  0
 19 24  1  0  0  0
 20 21  2  0  0  0
 20100  1  0  0  0
 21 23  1  0  0  0
 22 28  1  0  0  0
 22 32  2  0  0  0
 26 27  1  0  0  0
 28101  1  0  0  0
 28102  1  0  0  0
 29103  1  0  0  0
 29104  1  0  0  0
 33 34  1  0  0  0
 33 66  1  0  0  0
 33 70  2  0  0  0
 34 36  1  0  0  0
 34 59  1  0  0  0
 34105  1  0  0  0
 35 44  2  0  0  0
 35 45  1  0  0  0
 35 68  1  0  0  0
 36 56  1  0  0  0
 36106  1  0  0  0
 37 39  1  0  0  0
 37 47  1  0  0  0
 37 66  1  0  0  0
 37107  1  0  0  0
 38 43  2  0  0  0
 38 46  1  0  0  0
 38 47  1  0  0  0
 39 64  1  0  0  0
 39 67  2  0  0  0
 40 52  1  0  0  0
 40 53  2  0  0  0
 40 58  1  0  0  0
 41108  1  0  0  0
 41109  1  0  0  0
 41110  1  0  0  0
 41 48  1  0  0  0
 42 43  1  0  0  0
 42 66  1  0  0  0
 42111  1  0  0  0
 42112  1  0  0  0
 43 44  1  0  0  0
 44113  1  0  0  0
 45 46  2  0  0  0
 45114  1  0  0  0
 46115  1  0  0  0
 47116  1  0  0  0
 47117  1  0  0  0
 48 56  1  0  0  0
 48 65  1  0  0  0
 48118  1  0  0  0
 49 50  1  0  0  0
 49 53  1  0  0  0
 49 64  1  0  0  0
 49119  1  0  0  0
 50 51  1  0  0  0
 50120  1  0  0  0
 50121  1  0  0  0
 51 52  1  0  0  0
 51122  1  0  0  0
 51123  1  0  0  0
 52124  1  0  0  0
 52125  1  0  0  0
 53 54  1  0  0  0
 54 55  2  0  0  0
 54126  1  0  0  0
 55 57  1  0  0  0
 55127  1  0  0  0
 56 69  2  0  0  0
 57 58  2  0  0  0
 57128  1  0  0  0
 58129  1  0  0  0
 59 60  1  0  0  0
 59 61  1  0  0  0
 59 62  1  0  0  0
 60130  1  0  0  0
 60131  1  0  0  0
 60132  1  0  0  0
 61133  1  0  0  0
 61134  1  0  0  0
 61135  1  0  0  0
 62136  1  0  0  0
 62137  1  0  0  0
 62138  1  0  0  0
 63 65  1  0  0  0
 63139  1  0  0  0
 63140  1  0  0  0
 63141  1  0  0  0
 64142  1  0  0  0
 65143  1  0  0  0
 68 82  1  0  0  0
 71 72  2  0  0  0
 71 74  1  0  0  0
 71144  1  0  0  0
 72 73  1  0  0  0
 72 79  1  0  0  0
 73 75  2  0  0  0
 73 78  1  0  0  0
 74 76  1  0  0  0
 74 83  2  0  0  0
 75 80  1  0  0  0
 75 83  1  0  0  0
 76145  1  0  0  0
 76146  1  0  0  0
 76147  1  0  0  0
 77 81  1  0  0  0
 77148  1  0  0  0
 77149  1  0  0  0
 77150  1  0  0  0
 78 81  1  0  0  0
 78151  1  0  0  0
 78152  1  0  0  0
 79 84  1  0  0  0
 79153  1  0  0  0
 79154  1  0  0  0
 80 82  1  0  0  0
 80155  1  0  0  0
 80156  1  0  0  0
 81157  1  0  0  0
 81158  1  0  0  0
 82159  1  0  0  0
 82160  1  0  0  0
M  ISO  4   1 100  68 101  82 101  84 100
M  END
> <chiral flag>
0

> <version>
0

> <s_m_source_file>
/data/baiqing/PycharmProjects/Reinvent-master-3.2/result/LINK_invent/BTK/process_docking_weight1_custom_sum_contain_oxygen_bond_distance_aromatic_linkinvent_7_9_3/rearranged_h_0038.sdf

> <i_m_source_file_index>
14

> <r_mmod_Potential_Energy-OPLS-2005>
365.353668212891

> <r_mmod_Stretch_Energy-OPLS-2005>
302.189697265625

> <r_mmod_Bend_Energy-OPLS-2005>
257.940124511719

> <r_mmod_Torsional_Energy-OPLS-2005>
191.30744934082

> <r_mmod_Improper_Torsional_Energy-OPLS-2005>
4.64385366439819

> <r_mmod_Van_der_Waal_Energy-OPLS-2005>
124.869094848633

> <r_mmod_Electrostatic_Energy-OPLS-2005>
-515.229125976562

> <r_mmod_Solvation_Energy-OPLS-2005>
-205.916397094727

> <b_mmod_Minimization_Converged-OPLS-2005>
0

> <r_mmod_RMS_Derivative-OPLS-2005>
2.17492699623108

$$$$
14
                    3D
 Structure written by MMmdl.
181189  0  0  1  0            999 V2000
  -30.8060  -14.2811   20.7763 C   0  0  0  0  0  0
  -30.4264  -12.2930   19.3606 C   0  0  0  0  0  0
  -29.4754  -12.5268   18.1750 C   0  0  0  0  0  0
  -28.0051  -12.3689   18.6046 C   0  0  0  0  0  0
  -27.6655  -13.1953   19.8697 C   0  0  2  0  0  0
  -28.7028  -12.9268   20.9797 C   0  0  0  0  0  0
  -25.2600  -13.8150   20.5673 C   0  0  0  0  0  0
  -24.1840  -13.0428   20.9187 C   0  0  0  0  0  0
  -24.6398  -11.6897   20.8771 C   0  0  0  0  0  0
  -23.9072  -10.4290   21.0417 C   0  0  0  0  0  0
  -24.3629   -9.4200   21.9187 C   0  0  0  0  0  0
  -23.6296   -8.2249   22.0755 C   0  0  0  0  0  0
  -22.4280   -8.0278   21.3546 C   0  0  0  0  0  0
  -21.9927   -9.0255   20.4650 C   0  0  0  0  0  0
  -22.7263  -10.2134   20.3054 C   0  0  0  0  0  0
  -21.6848   -6.0737   22.5303 C   0  0  0  0  0  0
  -21.4013   -6.5645   23.8239 C   0  0  0  0  0  0
  -21.3652   -5.6792   24.9198 C   0  0  0  0  0  0
  -21.6029   -4.3056   24.7260 C   0  0  0  0  0  0
  -21.8815   -3.8147   23.4378 C   0  0  0  0  0  0
  -21.9185   -4.6959   22.3430 C   0  0  0  0  0  0
  -22.7851  -13.5215   21.1845 C   0  0  0  0  0  0
  -22.1648   -4.2152   21.0995 F   0  0  0  0  0  0
  -21.5639   -3.4537   25.7775 F   0  0  0  0  0  0
  -30.0622  -13.1957   20.4568 N   0  0  0  0  0  0
  -26.3030  -12.9292   20.3353 N   0  0  0  0  0  0
  -25.9301  -11.6468   20.5774 N   0  0  0  0  0  0
  -22.0444  -12.8238   22.0399 N   0  0  0  0  0  0
  -25.4296  -15.1871   20.4096 N   0  0  0  0  0  0
  -31.7107  -14.7487   20.0756 O   0  0  0  0  0  0
  -21.6634   -6.8870   21.4260 O   0  0  0  0  0  0
  -22.3532  -14.5505   20.6646 O   0  0  0  0  0  0
  -24.6106  -31.8714   23.2151 C   0  0  0  0  0  0
  -25.9021  -32.4838   23.8433 C   0  0  1  0  0  0
  -27.2364  -27.4714   20.0802 C   0  0  0  0  0  0
  -25.5898  -33.8642   24.2358 N   0  0  0  0  0  0
  -23.3957  -30.4969   21.5549 C   0  0  2  0  0  0
  -24.8391  -28.9694   20.1173 C   0  0  0  0  0  0
  -22.7382  -29.4678   22.5020 C   0  0  0  0  0  0
  -18.0267  -28.1371   22.8498 C   0  0  0  0  0  0
  -24.1483  -36.7322   23.2638 C   0  0  0  0  0  0
  -25.9216  -30.8465   21.3644 C   0  0  0  0  0  0
  -25.9971  -29.4838   20.7121 C   0  0  0  0  0  0
  -27.1948  -28.7400   20.6948 C   0  0  0  0  0  0
  -26.0535  -26.9619   19.4876 C   0  0  0  0  0  0
  -24.8599  -27.7049   19.5076 C   0  0  0  0  0  0
  -23.6012  -29.8325   20.1681 C   0  0  0  0  0  0
  -25.4102  -36.3125   24.0343 C   0  0  1  0  0  0
  -20.5852  -28.3652   23.1330 C   0  0  2  0  0  0
  -20.6757  -26.9392   22.5420 C   0  0  0  0  0  0
  -19.5736  -26.6378   21.5215 C   0  0  0  0  0  0
  -18.1912  -26.7920   22.1621 C   0  0  0  0  0  0
  -19.1514  -28.8827   23.2911 C   0  0  0  0  0  0
  -18.9444  -30.1437   23.8918 C   0  0  0  0  0  0
  -17.6449  -30.6582   24.0564 C   0  0  0  0  0  0
  -25.9027  -34.9489   23.5142 C   0  0  0  0  0  0
  -16.5341  -29.9087   23.6325 C   0  0  0  0  0  0
  -16.7256  -28.6502   23.0351 C   0  0  0  0  0  0
  -26.4465  -31.6608   25.0747 C   0  0  0  0  0  0
  -25.3743  -31.3704   26.1502 C   0  0  0  0  0  0
  -27.0289  -30.3058   24.6096 C   0  0  0  0  0  0
  -27.6047  -32.4322   25.7502 C   0  0  0  0  0  0
  -27.5582  -37.1814   24.8462 C   0  0  0  0  0  0
  -21.4116  -29.3030   22.3750 N   0  0  0  0  0  0
  -26.4291  -37.3800   23.9414 N   0  0  0  0  0  0
  -24.6606  -31.0849   22.1037 N   0  0  0  0  0  0
  -23.4168  -28.8210   23.3038 O   0  0  0  0  0  0
  -28.4364  -26.7936   20.0817 O   0  0  0  0  0  0
  -26.5580  -34.8927   22.4698 O   0  0  0  0  0  0
  -23.5307  -32.1457   23.7570 O   0  0  0  0  0  0
  -26.6329  -21.1534   20.4836 C   0  0  0  0  0  0
  -26.6187  -21.8161   19.2378 C   0  0  0  0  0  0
  -27.8463  -21.2132   21.2065 C   0  0  0  0  0  0
  -28.7783  -22.5001   19.5591 C   0  0  0  0  0  0
  -25.3944  -20.4212   20.9909 C   0  0  0  0  0  0
  -25.4090  -21.8374   18.3175 C   0  0  0  0  0  0
  -28.0830  -20.5634   22.5617 C   0  0  0  0  0  0
  -29.9145  -23.4215   19.1487 C   0  0  0  0  0  0
  -27.9764  -21.5708   23.7203 C   0  0  0  0  0  0
  -29.8084  -24.8153   19.7997 C   0  0  0  0  0  0
  -28.4877  -21.0138   25.0600 C   0  0  0  0  0  0
  -27.5150  -20.0374   25.7451 C   0  0  0  0  0  0
  -28.1622  -18.7192   26.2013 C   0  0  0  0  0  0
  -28.2769  -17.6597   25.0921 C   0  0  0  0  0  0
  -29.6427  -17.5454   24.3835 C   0  0  0  0  0  0
  -29.5772  -16.3718   23.3961 C   0  0  0  0  0  0
  -30.8733  -15.9571   22.6771 C   0  0  0  0  0  0
  -28.4415  -25.4700   19.5729 C   0  0  0  0  0  0
  -27.6979  -22.4810   18.7876 N   0  0  0  0  0  0
  -28.9004  -21.9010   20.7332 N   0  0  0  0  0  0
  -30.5582  -14.6999   22.0176 N   0  0  0  0  0  0
  -31.4624  -12.4359   19.0477 H   0  0  0  0  0  0
  -30.3544  -11.2621   19.7088 H   0  0  0  0  0  0
  -29.7038  -11.8238   17.3719 H   0  0  0  0  0  0
  -29.6385  -13.5254   17.7641 H   0  0  0  0  0  0
  -27.8224  -11.3107   18.8002 H   0  0  0  0  0  0
  -27.3429  -12.6490   17.7851 H   0  0  0  0  0  0
  -27.7248  -14.2488   19.5998 H   0  0  0  0  0  0
  -28.6517  -11.8869   21.3062 H   0  0  0  0  0  0
  -28.4259  -13.5248   21.8486 H   0  0  0  0  0  0
  -25.2755   -9.5686   22.4772 H   0  0  0  0  0  0
  -24.0002   -7.4639   22.7487 H   0  0  0  0  0  0
  -21.0851   -8.8761   19.8957 H   0  0  0  0  0  0
  -22.3700  -10.9663   19.6169 H   0  0  0  0  0  0
  -21.1994   -7.6150   23.9754 H   0  0  0  0  0  0
  -21.1481   -6.0514   25.9100 H   0  0  0  0  0  0
  -22.0599   -2.7607   23.2892 H   0  0  0  0  0  0
  -22.3998  -11.9934   22.4896 H   0  0  0  0  0  0
  -21.1046  -13.1281   22.2526 H   0  0  0  0  0  0
  -24.6646  -15.8426   20.5247 H   0  0  0  0  0  0
  -26.2914  -15.6306   20.1124 H   0  0  0  0  0  0
  -26.7096  -32.5561   23.1203 H   0  0  0  0  0  0
  -25.0078  -33.9817   25.0523 H   0  0  0  0  0  0
  -22.6828  -31.3126   21.4193 H   0  0  0  0  0  0
  -23.3742  -35.9656   23.3307 H   0  0  0  0  0  0
  -24.3577  -36.8926   22.2051 H   0  0  0  0  0  0
  -23.7236  -37.6531   23.6641 H   0  0  0  0  0  0
  -26.0314  -31.6149   20.5979 H   0  0  0  0  0  0
  -26.8107  -30.8984   21.9811 H   0  0  0  0  0  0
  -28.0921  -29.1378   21.1498 H   0  0  0  0  0  0
  -26.0272  -26.0006   18.9963 H   0  0  0  0  0  0
  -23.9684  -27.3022   19.0474 H   0  0  0  0  0  0
  -23.7074  -30.6089   19.4097 H   0  0  0  0  0  0
  -22.7262  -29.2515   19.8727 H   0  0  0  0  0  0
  -25.1275  -36.2001   25.0836 H   0  0  0  0  0  0
  -20.9940  -28.3212   24.1450 H   0  0  0  0  0  0
  -20.5662  -26.2256   23.3600 H   0  0  0  0  0  0
  -21.6629  -26.7441   22.1211 H   0  0  0  0  0  0
  -19.6895  -25.6292   21.1235 H   0  0  0  0  0  0
  -19.6679  -27.3200   20.6755 H   0  0  0  0  0  0
  -17.4183  -26.6680   21.4019 H   0  0  0  0  0  0
  -18.0307  -26.0054   22.9008 H   0  0  0  0  0  0
  -19.7920  -30.7250   24.2291 H   0  0  0  0  0  0
  -17.5006  -31.6267   24.5157 H   0  0  0  0  0  0
  -15.5343  -30.2997   23.7637 H   0  0  0  0  0  0
  -15.8655  -28.0830   22.7053 H   0  0  0  0  0  0
  -24.5922  -30.7037   25.7853 H   0  0  0  0  0  0
  -24.8926  -32.2852   26.4965 H   0  0  0  0  0  0
  -25.8115  -30.8877   27.0249 H   0  0  0  0  0  0
  -26.2829  -29.6830   24.1141 H   0  0  0  0  0  0
  -27.4063  -29.7282   25.4544 H   0  0  0  0  0  0
  -27.8662  -30.4387   23.9239 H   0  0  0  0  0  0
  -27.2678  -33.3616   26.2100 H   0  0  0  0  0  0
  -28.3849  -32.6883   25.0324 H   0  0  0  0  0  0
  -28.0716  -31.8429   26.5399 H   0  0  0  0  0  0
  -28.2597  -38.0114   24.7524 H   0  0  0  0  0  0
  -28.1079  -36.2650   24.6268 H   0  0  0  0  0  0
  -27.2302  -37.1449   25.8864 H   0  0  0  0  0  0
  -20.9261  -29.8772   21.7005 H   0  0  0  0  0  0
  -26.0185  -38.2878   24.1419 H   0  0  0  0  0  0
  -24.5236  -21.0756   20.9600 H   0  0  0  0  0  0
  -25.4738  -20.0805   22.0204 H   0  0  0  0  0  0
  -25.1916  -19.5535   20.3623 H   0  0  0  0  0  0
  -25.4730  -21.0235   17.5959 H   0  0  0  0  0  0
  -25.3584  -22.7772   17.7653 H   0  0  0  0  0  0
  -24.4677  -21.7380   18.8539 H   0  0  0  0  0  0
  -29.0906  -20.1498   22.5416 H   0  0  0  0  0  0
  -27.4361  -19.7043   22.7213 H   0  0  0  0  0  0
  -29.9163  -23.5243   18.0631 H   0  0  0  0  0  0
  -30.8692  -22.9631   19.4096 H   0  0  0  0  0  0
  -26.9534  -21.9347   23.8167 H   0  0  0  0  0  0
  -28.5804  -22.4445   23.4693 H   0  0  0  0  0  0
  -30.6012  -25.4579   19.4157 H   0  0  0  0  0  0
  -29.9778  -24.7201   20.8728 H   0  0  0  0  0  0
  -28.6561  -21.8525   25.7370 H   0  0  0  0  0  0
  -29.4696  -20.5596   24.9185 H   0  0  0  0  0  0
  -26.6502  -19.8304   25.1120 H   0  0  0  0  0  0
  -27.1022  -20.5342   26.6239 H   0  0  0  0  0  0
  -27.5168  -18.3028   26.9780 H   0  0  0  0  0  0
  -29.1222  -18.8897   26.6918 H   0  0  0  0  0  0
  -27.4892  -17.8067   24.3513 H   0  0  0  0  0  0
  -28.0567  -16.6929   25.5495 H   0  0  0  0  0  0
  -30.4336  -17.3768   25.1158 H   0  0  0  0  0  0
  -29.8919  -18.4648   23.8567 H   0  0  0  0  0  0
  -28.8175  -16.5978   22.6446 H   0  0  0  0  0  0
  -29.2060  -15.5052   23.9455 H   0  0  0  0  0  0
  -31.6858  -15.7955   23.3866 H   0  0  0  0  0  0
  -31.1991  -16.7169   21.9645 H   0  0  0  0  0  0
  -27.6739  -24.8907   20.0869 H   0  0  0  0  0  0
  -28.2136  -25.4830   18.5060 H   0  0  0  0  0  0
  -29.9132  -14.1052   22.5148 H   0  0  0  0  0  0
  1 25  1  0  0  0
  1 30  2  0  0  0
  1 91  1  0  0  0
  2  3  1  0  0  0
  2 25  1  0  0  0
  2 92  1  0  0  0
  2 93  1  0  0  0
  3  4  1  0  0  0
  3 94  1  0  0  0
  3 95  1  0  0  0
  4  5  1  0  0  0
  4 96  1  0  0  0
  4 97  1  0  0  0
  5  6  1  0  0  0
  5 26  1  0  0  0
  5 98  1  0  0  0
  6 25  1  0  0  0
  6 99  1  0  0  0
  6100  1  0  0  0
  7  8  2  0  0  0
  7 26  1  0  0  0
  7 29  1  0  0  0
  8  9  1  0  0  0
  8 22  1  0  0  0
  9 10  1  0  0  0
  9 27  2  0  0  0
 10 11  2  0  0  0
 10 15  1  0  0  0
 11 12  1  0  0  0
 11101  1  0  0  0
 12 13  2  0  0  0
 12102  1  0  0  0
 13 14  1  0  0  0
 13 31  1  0  0  0
 14 15  2  0  0  0
 14103  1  0  0  0
 15104  1  0  0  0
 16 17  2  0  0  0
 16 21  1  0  0  0
 16 31  1  0  0  0
 17 18  1  0  0  0
 17105  1  0  0  0
 18 19  2  0  0  0
 18106  1  0  0  0
 19 20  1  0  0  0
 19 24  1  0  0  0
 20 21  2  0  0  0
 20107  1  0  0  0
 21 23  1  0  0  0
 22 28  1  0  0  0
 22 32  2  0  0  0
 26 27  1  0  0  0
 28108  1  0  0  0
 28109  1  0  0  0
 29110  1  0  0  0
 29111  1  0  0  0
 33 34  1  0  0  0
 33 66  1  0  0  0
 33 70  2  0  0  0
 34 36  1  0  0  0
 34 59  1  0  0  0
 34112  1  0  0  0
 35 44  2  0  0  0
 35 45  1  0  0  0
 35 68  1  0  0  0
 36 56  1  0  0  0
 36113  1  0  0  0
 37 39  1  0  0  0
 37 47  1  0  0  0
 37 66  1  0  0  0
 37114  1  0  0  0
 38 43  2  0  0  0
 38 46  1  0  0  0
 38 47  1  0  0  0
 39 64  1  0  0  0
 39 67  2  0  0  0
 40 52  1  0  0  0
 40 53  2  0  0  0
 40 58  1  0  0  0
 41115  1  0  0  0
 41116  1  0  0  0
 41117  1  0  0  0
 41 48  1  0  0  0
 42 43  1  0  0  0
 42 66  1  0  0  0
 42118  1  0  0  0
 42119  1  0  0  0
 43 44  1  0  0  0
 44120  1  0  0  0
 45 46  2  0  0  0
 45121  1  0  0  0
 46122  1  0  0  0
 47123  1  0  0  0
 47124  1  0  0  0
 48 56  1  0  0  0
 48 65  1  0  0  0
 48125  1  0  0  0
 49 50  1  0  0  0
 49 53  1  0  0  0
 49 64  1  0  0  0
 49126  1  0  0  0
 50 51  1  0  0  0
 50127  1  0  0  0
 50128  1  0  0  0
 51 52  1  0  0  0
 51129  1  0  0  0
 51130  1  0  0  0
 52131  1  0  0  0
 52132  1  0  0  0
 53 54  1  0  0  0
 54 55  2  0  0  0
 54133  1  0  0  0
 55 57  1  0  0  0
 55134  1  0  0  0
 56 69  2  0  0  0
 57 58  2  0  0  0
 57135  1  0  0  0
 58136  1  0  0  0
 59 60  1  0  0  0
 59 61  1  0  0  0
 59 62  1  0  0  0
 60137  1  0  0  0
 60138  1  0  0  0
 60139  1  0  0  0
 61140  1  0  0  0
 61141  1  0  0  0
 61142  1  0  0  0
 62143  1  0  0  0
 62144  1  0  0  0
 62145  1  0  0  0
 63 65  1  0  0  0
 63146  1  0  0  0
 63147  1  0  0  0
 63148  1  0  0  0
 64149  1  0  0  0
 65150  1  0  0  0
 68 88  1  0  0  0
 71 72  2  0  0  0
 71 73  1  0  0  0
 71 75  1  0  0  0
 72 76  1  0  0  0
 72 89  1  0  0  0
 73 77  1  0  0  0
 73 90  2  0  0  0
 74 78  1  0  0  0
 74 89  2  0  0  0
 74 90  1  0  0  0
 75151  1  0  0  0
 75152  1  0  0  0
 75153  1  0  0  0
 76154  1  0  0  0
 76155  1  0  0  0
 76156  1  0  0  0
 77 79  1  0  0  0
 77157  1  0  0  0
 77158  1  0  0  0
 78 80  1  0  0  0
 78159  1  0  0  0
 78160  1  0  0  0
 79 81  1  0  0  0
 79161  1  0  0  0
 79162  1  0  0  0
 80 88  1  0  0  0
 80163  1  0  0  0
 80164  1  0  0  0
 81 82  1  0  0  0
 81165  1  0  0  0
 81166  1  0  0  0
 82 83  1  0  0  0
 82167  1  0  0  0
 82168  1  0  0  0
 83 84  1  0  0  0
 83169  1  0  0  0
 83170  1  0  0  0
 84 85  1  0  0  0
 84171  1  0  0  0
 84172  1  0  0  0
 85 86  1  0  0  0
 85173  1  0  0  0
 85174  1  0  0  0
 86 87  1  0  0  0
 86175  1  0  0  0
 86176  1  0  0  0
 87 91  1  0  0  0
 87177  1  0  0  0
 87178  1  0  0  0
 88179  1  0  0  0
 88180  1  0  0  0
 91181  1  0  0  0
M  ISO  4   1 100  68 101  88 101  91 100
M  END
> <chiral flag>
0

> <version>
0

> <s_m_source_file>
/data/baiqing/PycharmProjects/Reinvent-master-3.2/result/LINK_invent/BTK/process_docking_weight1_custom_sum_contain_oxygen_bond_distance_aromatic_linkinvent_7_9_3/rearranged_h_0038.sdf

> <i_m_source_file_index>
15

> <r_mmod_Potential_Energy-OPLS-2005>
-503.687377929688

> <r_mmod_Stretch_Energy-OPLS-2005>
31.261173248291

> <r_mmod_Bend_Energy-OPLS-2005>
114.508316040039

> <r_mmod_Torsional_Energy-OPLS-2005>
205.791030883789

> <r_mmod_Improper_Torsional_Energy-OPLS-2005>
3.88136410713196

> <r_mmod_Van_der_Waal_Energy-OPLS-2005>
162.545516967773

> <r_mmod_Electrostatic_Energy-OPLS-2005>
-809.443115234375

> <r_mmod_Solvation_Energy-OPLS-2005>
-223.183868408203

> <b_mmod_Minimization_Converged-OPLS-2005>
0

> <r_mmod_RMS_Derivative-OPLS-2005>
2.80633878707886

$$$$
15
                    3D
 Structure written by MMmdl.
164172  0  0  1  0            999 V2000
  -30.6872  -14.5043   20.5319 C   0  0  0  0  0  0
  -30.4256  -12.3161   19.4417 C   0  0  0  0  0  0
  -29.5019  -12.4870   18.2209 C   0  0  0  0  0  0
  -28.0213  -12.3568   18.6290 C   0  0  0  0  0  0
  -27.6591  -13.2107   19.8767 C   0  0  2  0  0  0
  -28.7035  -13.0293   21.0014 C   0  0  0  0  0  0
  -25.2561  -13.8162   20.5668 C   0  0  0  0  0  0
  -24.1832  -13.0414   20.9182 C   0  0  0  0  0  0
  -24.6402  -11.6894   20.8714 C   0  0  0  0  0  0
  -23.9063  -10.4288   21.0358 C   0  0  0  0  0  0
  -24.3612   -9.4207   21.9142 C   0  0  0  0  0  0
  -23.6290   -8.2248   22.0709 C   0  0  0  0  0  0
  -22.4269   -8.0277   21.3508 C   0  0  0  0  0  0
  -21.9908   -9.0258   20.4605 C   0  0  0  0  0  0
  -22.7238  -10.2140   20.3021 C   0  0  0  0  0  0
  -21.6885   -6.0763   22.5282 C   0  0  0  0  0  0
  -21.4015   -6.5638   23.8225 C   0  0  0  0  0  0
  -21.3657   -5.6774   24.9170 C   0  0  0  0  0  0
  -21.6065   -4.3041   24.7196 C   0  0  0  0  0  0
  -21.8828   -3.8155   23.4307 C   0  0  0  0  0  0
  -21.9180   -4.6977   22.3375 C   0  0  0  0  0  0
  -22.7836  -13.5182   21.1828 C   0  0  0  0  0  0
  -22.1627   -4.2153   21.0951 F   0  0  0  0  0  0
  -21.5624   -3.4527   25.7723 F   0  0  0  0  0  0
  -30.0280  -13.3208   20.4404 N   0  0  0  0  0  0
  -26.3012  -12.9354   20.3392 N   0  0  0  0  0  0
  -25.9354  -11.6507   20.5816 N   0  0  0  0  0  0
  -22.0474  -12.8208   22.0397 N   0  0  0  0  0  0
  -25.4207  -15.1918   20.4067 N   0  0  0  0  0  0
  -31.8497  -14.6432   20.1409 O   0  0  0  0  0  0
  -21.6613   -6.8896   21.4255 O   0  0  0  0  0  0
  -22.3517  -14.5501   20.6663 O   0  0  0  0  0  0
  -24.6077  -31.8731   23.2125 C   0  0  0  0  0  0
  -25.9003  -32.4859   23.8405 C   0  0  1  0  0  0
  -27.2428  -27.4913   20.1310 C   0  0  0  0  0  0
  -25.5865  -33.8652   24.2343 N   0  0  0  0  0  0
  -23.3957  -30.4949   21.5480 C   0  0  2  0  0  0
  -24.8476  -28.9673   20.1167 C   0  0  0  0  0  0
  -22.7394  -29.4666   22.4973 C   0  0  0  0  0  0
  -18.0259  -28.1398   22.8495 C   0  0  0  0  0  0
  -24.1485  -36.7321   23.2644 C   0  0  0  0  0  0
  -25.9140  -30.8656   21.3515 C   0  0  0  0  0  0
  -25.9986  -29.4998   20.7105 C   0  0  0  0  0  0
  -27.2007  -28.7722   20.7163 C   0  0  0  0  0  0
  -26.0804  -26.9504   19.5477 C   0  0  0  0  0  0
  -24.8797  -27.6870   19.5300 C   0  0  0  0  0  0
  -23.6077  -29.8281   20.1603 C   0  0  0  0  0  0
  -25.4108  -36.3133   24.0341 C   0  0  1  0  0  0
  -20.5853  -28.3669   23.1337 C   0  0  2  0  0  0
  -20.6738  -26.9404   22.5427 C   0  0  0  0  0  0
  -19.5713  -26.6399   21.5219 C   0  0  0  0  0  0
  -18.1902  -26.7938   22.1640 C   0  0  0  0  0  0
  -19.1519  -28.8841   23.2916 C   0  0  0  0  0  0
  -18.9442  -30.1448   23.8933 C   0  0  0  0  0  0
  -17.6452  -30.6591   24.0581 C   0  0  0  0  0  0
  -25.9026  -34.9495   23.5144 C   0  0  0  0  0  0
  -16.5338  -29.9114   23.6318 C   0  0  0  0  0  0
  -16.7255  -28.6530   23.0326 C   0  0  0  0  0  0
  -26.4445  -31.6624   25.0708 C   0  0  0  0  0  0
  -25.3718  -31.3725   26.1464 C   0  0  0  0  0  0
  -27.0277  -30.3088   24.6022 C   0  0  0  0  0  0
  -27.6047  -32.4321   25.7450 C   0  0  0  0  0  0
  -27.5579  -37.1815   24.8470 C   0  0  0  0  0  0
  -21.4121  -29.3050   22.3752 N   0  0  0  0  0  0
  -26.4307  -37.3800   23.9397 N   0  0  0  0  0  0
  -24.6581  -31.0902   22.0977 N   0  0  0  0  0  0
  -23.4198  -28.8205   23.2984 O   0  0  0  0  0  0
  -28.3826  -26.7368   20.1439 O   0  0  0  0  0  0
  -26.5603  -34.8940   22.4713 O   0  0  0  0  0  0
  -23.5297  -32.1434   23.7557 O   0  0  0  0  0  0
  -28.6722  -25.4511   17.5174 C   0  0  0  0  0  0
  -30.0122  -23.8326   18.6990 C   0  0  0  0  0  0
  -29.7274  -25.1796   18.4090 C   0  0  0  0  0  0
  -27.9143  -24.3863   17.0066 C   0  0  0  0  0  0
  -29.2268  -22.8172   18.1198 C   0  0  0  0  0  0
  -26.7437  -24.6852   16.0890 C   0  0  0  0  0  0
  -30.4917  -26.2970   19.1117 C   0  0  0  0  0  0
  -29.6424  -21.3595   18.2942 C   0  0  0  0  0  0
  -28.9221  -20.4888   19.3645 C   0  0  0  0  0  0
  -29.7089  -19.1498   19.4559 C   0  0  0  0  0  0
  -29.2746  -18.0527   20.4654 C   0  0  0  0  0  0
  -30.3911  -16.9665   20.5591 C   0  0  0  0  0  0
  -29.5641  -27.3830   19.6846 C   0  0  0  0  0  0
  -28.1804  -23.0883   17.2985 N   0  0  0  0  0  0
  -29.9393  -15.5878   20.8382 N   0  0  0  0  0  0
  -31.4652  -12.4212   19.1351 H   0  0  0  0  0  0
  -30.3379  -11.3117   19.8614 H   0  0  0  0  0  0
  -29.7385  -11.7416   17.4628 H   0  0  0  0  0  0
  -29.6808  -13.4578   17.7598 H   0  0  0  0  0  0
  -27.8309  -11.3012   18.8275 H   0  0  0  0  0  0
  -27.3789  -12.6236   17.7926 H   0  0  0  0  0  0
  -27.6869  -14.2535   19.5688 H   0  0  0  0  0  0
  -28.6884  -12.0079   21.3809 H   0  0  0  0  0  0
  -28.4729  -13.6668   21.8560 H   0  0  0  0  0  0
  -25.2736   -9.5690   22.4721 H   0  0  0  0  0  0
  -23.9995   -7.4656   22.7436 H   0  0  0  0  0  0
  -21.0841   -8.8808   19.8904 H   0  0  0  0  0  0
  -22.3688  -10.9705   19.6141 H   0  0  0  0  0  0
  -21.1992   -7.6152   23.9736 H   0  0  0  0  0  0
  -21.1464   -6.0476   25.9088 H   0  0  0  0  0  0
  -22.0603   -2.7618   23.2799 H   0  0  0  0  0  0
  -22.4080  -11.9893   22.4870 H   0  0  0  0  0  0
  -21.1094  -13.1305   22.2519 H   0  0  0  0  0  0
  -24.6580  -15.8416   20.5551 H   0  0  0  0  0  0
  -26.2672  -15.6567   20.0994 H   0  0  0  0  0  0
  -26.7098  -32.5612   23.1210 H   0  0  0  0  0  0
  -24.9974  -33.9816   25.0458 H   0  0  0  0  0  0
  -22.6810  -31.3082   21.4090 H   0  0  0  0  0  0
  -23.3731  -35.9675   23.3369 H   0  0  0  0  0  0
  -24.3567  -36.8862   22.2043 H   0  0  0  0  0  0
  -23.7264  -37.6558   23.6609 H   0  0  0  0  0  0
  -26.0064  -31.6262   20.5751 H   0  0  0  0  0  0
  -26.8100  -30.9352   21.9557 H   0  0  0  0  0  0
  -28.0848  -29.1825   21.1844 H   0  0  0  0  0  0
  -26.1119  -25.9625   19.1097 H   0  0  0  0  0  0
  -23.9949  -27.2646   19.0763 H   0  0  0  0  0  0
  -23.7272  -30.6074   19.4064 H   0  0  0  0  0  0
  -22.7332  -29.2519   19.8545 H   0  0  0  0  0  0
  -25.1296  -36.2003   25.0837 H   0  0  0  0  0  0
  -20.9945  -28.3217   24.1451 H   0  0  0  0  0  0
  -20.5621  -26.2274   23.3611 H   0  0  0  0  0  0
  -21.6609  -26.7424   22.1228 H   0  0  0  0  0  0
  -19.6870  -25.6315   21.1227 H   0  0  0  0  0  0
  -19.6658  -27.3230   20.6765 H   0  0  0  0  0  0
  -17.4162  -26.6681   21.4050 H   0  0  0  0  0  0
  -18.0309  -26.0084   22.9043 H   0  0  0  0  0  0
  -19.7921  -30.7250   24.2322 H   0  0  0  0  0  0
  -17.5007  -31.6271   24.5193 H   0  0  0  0  0  0
  -15.5346  -30.3035   23.7607 H   0  0  0  0  0  0
  -15.8649  -28.0876   22.7007 H   0  0  0  0  0  0
  -24.5854  -30.7129   25.7769 H   0  0  0  0  0  0
  -24.8958  -32.2904   26.4937 H   0  0  0  0  0  0
  -25.8059  -30.8839   27.0201 H   0  0  0  0  0  0
  -26.2812  -29.6844   24.1107 H   0  0  0  0  0  0
  -27.4132  -29.7308   25.4430 H   0  0  0  0  0  0
  -27.8590  -30.4437   23.9098 H   0  0  0  0  0  0
  -27.2696  -33.3607   26.2076 H   0  0  0  0  0  0
  -28.3825  -32.6909   25.0253 H   0  0  0  0  0  0
  -28.0759  -31.8419   26.5316 H   0  0  0  0  0  0
  -28.2636  -38.0072   24.7490 H   0  0  0  0  0  0
  -28.1039  -36.2613   24.6347 H   0  0  0  0  0  0
  -27.2294  -37.1522   25.8872 H   0  0  0  0  0  0
  -20.9260  -29.8845   21.7057 H   0  0  0  0  0  0
  -26.0207  -38.2887   24.1376 H   0  0  0  0  0  0
  -28.3988  -26.4714   17.2783 H   0  0  0  0  0  0
  -30.8293  -23.5835   19.3590 H   0  0  0  0  0  0
  -26.9497  -25.5806   15.4966 H   0  0  0  0  0  0
  -25.8426  -24.8784   16.6748 H   0  0  0  0  0  0
  -26.5518  -23.8692   15.3934 H   0  0  0  0  0  0
  -31.2212  -26.7411   18.4326 H   0  0  0  0  0  0
  -31.0618  -25.8669   19.9360 H   0  0  0  0  0  0
  -30.7111  -21.3638   18.5223 H   0  0  0  0  0  0
  -29.5713  -20.8740   17.3207 H   0  0  0  0  0  0
  -27.8776  -20.3212   19.0879 H   0  0  0  0  0  0
  -28.9045  -20.9964   20.3322 H   0  0  0  0  0  0
  -30.7587  -19.3915   19.6533 H   0  0  0  0  0  0
  -29.6926  -18.7027   18.4576 H   0  0  0  0  0  0
  -28.3128  -17.6342   20.1557 H   0  0  0  0  0  0
  -29.1132  -18.4904   21.4531 H   0  0  0  0  0  0
  -31.1331  -17.2616   21.3095 H   0  0  0  0  0  0
  -30.9317  -16.9523   19.6068 H   0  0  0  0  0  0
  -29.3189  -28.1080   18.9060 H   0  0  0  0  0  0
  -30.0519  -27.9267   20.4955 H   0  0  0  0  0  0
  -28.9778  -15.4407   21.1085 H   0  0  0  0  0  0
  1 25  1  0  0  0
  1 30  2  0  0  0
  1 85  1  0  0  0
  2  3  1  0  0  0
  2 25  1  0  0  0
  2 86  1  0  0  0
  2 87  1  0  0  0
  3  4  1  0  0  0
  3 88  1  0  0  0
  3 89  1  0  0  0
  4  5  1  0  0  0
  4 90  1  0  0  0
  4 91  1  0  0  0
  5  6  1  0  0  0
  5 26  1  0  0  0
  5 92  1  0  0  0
  6 25  1  0  0  0
  6 93  1  0  0  0
  6 94  1  0  0  0
  7  8  2  0  0  0
  7 26  1  0  0  0
  7 29  1  0  0  0
  8  9  1  0  0  0
  8 22  1  0  0  0
  9 10  1  0  0  0
  9 27  2  0  0  0
 10 11  2  0  0  0
 10 15  1  0  0  0
 11 12  1  0  0  0
 11 95  1  0  0  0
 12 13  2  0  0  0
 12 96  1  0  0  0
 13 14  1  0  0  0
 13 31  1  0  0  0
 14 15  2  0  0  0
 14 97  1  0  0  0
 15 98  1  0  0  0
 16 17  2  0  0  0
 16 21  1  0  0  0
 16 31  1  0  0  0
 17 18  1  0  0  0
 17 99  1  0  0  0
 18 19  2  0  0  0
 18100  1  0  0  0
 19 20  1  0  0  0
 19 24  1  0  0  0
 20 21  2  0  0  0
 20101  1  0  0  0
 21 23  1  0  0  0
 22 28  1  0  0  0
 22 32  2  0  0  0
 26 27  1  0  0  0
 28102  1  0  0  0
 28103  1  0  0  0
 29104  1  0  0  0
 29105  1  0  0  0
 33 34  1  0  0  0
 33 66  1  0  0  0
 33 70  2  0  0  0
 34 36  1  0  0  0
 34 59  1  0  0  0
 34106  1  0  0  0
 35 44  2  0  0  0
 35 45  1  0  0  0
 35 68  1  0  0  0
 36 56  1  0  0  0
 36107  1  0  0  0
 37 39  1  0  0  0
 37 47  1  0  0  0
 37 66  1  0  0  0
 37108  1  0  0  0
 38 43  2  0  0  0
 38 46  1  0  0  0
 38 47  1  0  0  0
 39 64  1  0  0  0
 39 67  2  0  0  0
 40 52  1  0  0  0
 40 53  2  0  0  0
 40 58  1  0  0  0
 41109  1  0  0  0
 41110  1  0  0  0
 41111  1  0  0  0
 41 48  1  0  0  0
 42 43  1  0  0  0
 42 66  1  0  0  0
 42112  1  0  0  0
 42113  1  0  0  0
 43 44  1  0  0  0
 44114  1  0  0  0
 45 46  2  0  0  0
 45115  1  0  0  0
 46116  1  0  0  0
 47117  1  0  0  0
 47118  1  0  0  0
 48 56  1  0  0  0
 48 65  1  0  0  0
 48119  1  0  0  0
 49 50  1  0  0  0
 49 53  1  0  0  0
 49 64  1  0  0  0
 49120  1  0  0  0
 50 51  1  0  0  0
 50121  1  0  0  0
 50122  1  0  0  0
 51 52  1  0  0  0
 51123  1  0  0  0
 51124  1  0  0  0
 52125  1  0  0  0
 52126  1  0  0  0
 53 54  1  0  0  0
 54 55  2  0  0  0
 54127  1  0  0  0
 55 57  1  0  0  0
 55128  1  0  0  0
 56 69  2  0  0  0
 57 58  2  0  0  0
 57129  1  0  0  0
 58130  1  0  0  0
 59 60  1  0  0  0
 59 61  1  0  0  0
 59 62  1  0  0  0
 60131  1  0  0  0
 60132  1  0  0  0
 60133  1  0  0  0
 61134  1  0  0  0
 61135  1  0  0  0
 61136  1  0  0  0
 62137  1  0  0  0
 62138  1  0  0  0
 62139  1  0  0  0
 63 65  1  0  0  0
 63140  1  0  0  0
 63141  1  0  0  0
 63142  1  0  0  0
 64143  1  0  0  0
 65144  1  0  0  0
 68 83  1  0  0  0
 71 73  2  0  0  0
 71 74  1  0  0  0
 71145  1  0  0  0
 72 73  1  0  0  0
 72 75  2  0  0  0
 72146  1  0  0  0
 73 77  1  0  0  0
 74 76  1  0  0  0
 74 84  2  0  0  0
 75 78  1  0  0  0
 75 84  1  0  0  0
 76147  1  0  0  0
 76148  1  0  0  0
 76149  1  0  0  0
 77 83  1  0  0  0
 77150  1  0  0  0
 77151  1  0  0  0
 78 79  1  0  0  0
 78152  1  0  0  0
 78153  1  0  0  0
 79 80  1  0  0  0
 79154  1  0  0  0
 79155  1  0  0  0
 80 81  1  0  0  0
 80156  1  0  0  0
 80157  1  0  0  0
 81 82  1  0  0  0
 81158  1  0  0  0
 81159  1  0  0  0
 82 85  1  0  0  0
 82160  1  0  0  0
 82161  1  0  0  0
 83162  1  0  0  0
 83163  1  0  0  0
 85164  1  0  0  0
M  ISO  4   1 100  68 101  83 101  85 100
M  END
> <chiral flag>
0

> <version>
0

> <s_m_source_file>
/data/baiqing/PycharmProjects/Reinvent-master-3.2/result/LINK_invent/BTK/process_docking_weight1_custom_sum_contain_oxygen_bond_distance_aromatic_linkinvent_7_9_3/rearranged_h_0038.sdf

> <i_m_source_file_index>
16

> <r_mmod_Potential_Energy-OPLS-2005>
-180.428283691406

> <r_mmod_Stretch_Energy-OPLS-2005>
35.810546875

> <r_mmod_Bend_Energy-OPLS-2005>
103.886695861816

> <r_mmod_Torsional_Energy-OPLS-2005>
218.271484375

> <r_mmod_Improper_Torsional_Energy-OPLS-2005>
6.56940507888794

> <r_mmod_Van_der_Waal_Energy-OPLS-2005>
156.337539672852

> <r_mmod_Electrostatic_Energy-OPLS-2005>
-494.025939941406

> <r_mmod_Solvation_Energy-OPLS-2005>
-223.222045898438

> <b_mmod_Minimization_Converged-OPLS-2005>
0

> <r_mmod_RMS_Derivative-OPLS-2005>
5.81289291381836

$$$$
16
                    3D
 Structure written by MMmdl.
160168  0  0  1  0            999 V2000
  -30.6834  -14.5278   20.5569 C   0  0  0  0  0  0
  -30.4290  -12.3310   19.4398 C   0  0  0  0  0  0
  -29.5029  -12.5015   18.2167 C   0  0  0  0  0  0
  -28.0241  -12.3511   18.6258 C   0  0  0  0  0  0
  -27.6585  -13.2103   19.8650 C   0  0  2  0  0  0
  -28.7016  -13.0384   20.9922 C   0  0  0  0  0  0
  -25.2589  -13.8163   20.5681 C   0  0  0  0  0  0
  -24.1842  -13.0435   20.9175 C   0  0  0  0  0  0
  -24.6400  -11.6904   20.8729 C   0  0  0  0  0  0
  -23.9064  -10.4291   21.0402 C   0  0  0  0  0  0
  -24.3615   -9.4207   21.9182 C   0  0  0  0  0  0
  -23.6290   -8.2243   22.0753 C   0  0  0  0  0  0
  -22.4272   -8.0280   21.3544 C   0  0  0  0  0  0
  -21.9908   -9.0253   20.4645 C   0  0  0  0  0  0
  -22.7236  -10.2133   20.3052 C   0  0  0  0  0  0
  -21.6853   -6.0735   22.5279 C   0  0  0  0  0  0
  -21.4015   -6.5639   23.8213 C   0  0  0  0  0  0
  -21.3658   -5.6792   24.9175 C   0  0  0  0  0  0
  -21.6045   -4.3055   24.7225 C   0  0  0  0  0  0
  -21.8820   -3.8147   23.4346 C   0  0  0  0  0  0
  -21.9192   -4.6963   22.3402 C   0  0  0  0  0  0
  -22.7866  -13.5234   21.1844 C   0  0  0  0  0  0
  -22.1661   -4.2150   21.0980 F   0  0  0  0  0  0
  -21.5628   -3.4539   25.7737 F   0  0  0  0  0  0
  -30.0313  -13.3350   20.4410 N   0  0  0  0  0  0
  -26.3019  -12.9336   20.3326 N   0  0  0  0  0  0
  -25.9328  -11.6495   20.5749 N   0  0  0  0  0  0
  -22.0508  -12.8226   22.0403 N   0  0  0  0  0  0
  -25.4316  -15.1882   20.4116 N   0  0  0  0  0  0
  -31.8265  -14.6774   20.1158 O   0  0  0  0  0  0
  -21.6637   -6.8877   21.4240 O   0  0  0  0  0  0
  -22.3551  -14.5543   20.6698 O   0  0  0  0  0  0
  -24.6212  -31.8664   23.2115 C   0  0  0  0  0  0
  -25.9089  -32.4813   23.8412 C   0  0  1  0  0  0
  -27.2197  -27.3785   20.0920 C   0  0  0  0  0  0
  -25.5931  -33.8614   24.2334 N   0  0  0  0  0  0
  -23.4102  -30.4960   21.5539 C   0  0  2  0  0  0
  -24.8525  -28.9682   20.1121 C   0  0  0  0  0  0
  -22.7445  -29.4663   22.4971 C   0  0  0  0  0  0
  -18.0280  -28.1380   22.8494 C   0  0  0  0  0  0
  -24.1490  -36.7307   23.2638 C   0  0  0  0  0  0
  -25.9494  -30.8132   21.3775 C   0  0  0  0  0  0
  -26.0215  -29.4481   20.7160 C   0  0  0  0  0  0
  -27.2067  -28.6623   20.7049 C   0  0  0  0  0  0
  -26.0228  -26.9493   19.4608 C   0  0  0  0  0  0
  -24.8515  -27.7195   19.4810 C   0  0  0  0  0  0
  -23.6200  -29.8416   20.1655 C   0  0  0  0  0  0
  -25.4112  -36.3106   24.0337 C   0  0  1  0  0  0
  -20.5878  -28.3681   23.1296 C   0  0  2  0  0  0
  -20.6771  -26.9411   22.5408 C   0  0  0  0  0  0
  -19.5744  -26.6386   21.5211 C   0  0  0  0  0  0
  -18.1924  -26.7927   22.1626 C   0  0  0  0  0  0
  -19.1532  -28.8846   23.2892 C   0  0  0  0  0  0
  -18.9456  -30.1451   23.8905 C   0  0  0  0  0  0
  -17.6458  -30.6586   24.0566 C   0  0  0  0  0  0
  -25.9046  -34.9471   23.5129 C   0  0  0  0  0  0
  -16.5349  -29.9085   23.6330 C   0  0  0  0  0  0
  -16.7268  -28.6501   23.0354 C   0  0  0  0  0  0
  -26.4493  -31.6599   25.0755 C   0  0  0  0  0  0
  -25.3744  -31.3707   26.1490 C   0  0  0  0  0  0
  -27.0335  -30.3033   24.6173 C   0  0  0  0  0  0
  -27.6064  -32.4323   25.7517 C   0  0  0  0  0  0
  -27.5584  -37.1807   24.8466 C   0  0  0  0  0  0
  -21.4168  -29.3047   22.3701 N   0  0  0  0  0  0
  -26.4295  -37.3794   23.9413 N   0  0  0  0  0  0
  -24.6788  -31.0730   22.1045 N   0  0  0  0  0  0
  -23.4198  -28.8185   23.3014 O   0  0  0  0  0  0
  -28.3530  -26.5595   20.1351 O   0  0  0  0  0  0
  -26.5600  -34.8922   22.4687 O   0  0  0  0  0  0
  -23.5390  -32.1443   23.7473 O   0  0  0  0  0  0
  -30.1651  -22.3233   21.7007 C   0  0  0  0  0  0
  -29.6627  -21.5356   19.3995 C   0  0  0  0  0  0
  -29.3019  -23.6012   21.4855 C   0  0  0  0  0  0
  -28.8112  -22.8041   19.1556 C   0  0  0  0  0  0
  -29.6712  -21.1024   20.8797 C   0  0  1  0  0  0
  -29.2046  -24.0486   20.0045 C   0  0  1  0  0  0
  -29.9334  -15.7861   21.0982 C   0  0  0  0  0  0
  -30.5091  -19.7978   21.1209 C   0  0  0  0  0  0
  -28.1428  -25.1712   19.7454 C   0  0  0  0  0  0
  -30.6710  -17.1658   20.9493 C   0  0  0  0  0  0
  -29.7593  -18.4381   20.9361 C   0  0  0  0  0  0
  -31.4738  -12.4289   19.1405 H   0  0  0  0  0  0
  -30.3324  -11.3279   19.8583 H   0  0  0  0  0  0
  -29.7543  -11.7685   17.4492 H   0  0  0  0  0  0
  -29.6629  -13.4831   17.7680 H   0  0  0  0  0  0
  -27.8466  -11.2968   18.8412 H   0  0  0  0  0  0
  -27.3733  -12.6027   17.7876 H   0  0  0  0  0  0
  -27.6856  -14.2484   19.5367 H   0  0  0  0  0  0
  -28.6835  -12.0174   21.3760 H   0  0  0  0  0  0
  -28.4592  -13.6773   21.8414 H   0  0  0  0  0  0
  -25.2762   -9.5683   22.4754 H   0  0  0  0  0  0
  -23.9999   -7.4636   22.7475 H   0  0  0  0  0  0
  -21.0840   -8.8771   19.8950 H   0  0  0  0  0  0
  -22.3695  -10.9671   19.6159 H   0  0  0  0  0  0
  -21.2006   -7.6147   23.9716 H   0  0  0  0  0  0
  -21.1481   -6.0523   25.9078 H   0  0  0  0  0  0
  -22.0600   -2.7609   23.2847 H   0  0  0  0  0  0
  -22.4123  -11.9883   22.4784 H   0  0  0  0  0  0
  -21.1130  -13.1259   22.2615 H   0  0  0  0  0  0
  -24.6697  -15.8475   20.5281 H   0  0  0  0  0  0
  -26.2931  -15.6285   20.1131 H   0  0  0  0  0  0
  -26.7157  -32.5503   23.1167 H   0  0  0  0  0  0
  -25.0098  -33.9777   25.0490 H   0  0  0  0  0  0
  -22.7014  -31.3158   21.4195 H   0  0  0  0  0  0
  -23.3754  -35.9637   23.3303 H   0  0  0  0  0  0
  -24.3584  -36.8920   22.2052 H   0  0  0  0  0  0
  -23.7237  -37.6510   23.6652 H   0  0  0  0  0  0
  -26.0783  -31.5816   20.6140 H   0  0  0  0  0  0
  -26.8314  -30.8558   22.0048 H   0  0  0  0  0  0
  -28.1025  -29.0262   21.1884 H   0  0  0  0  0  0
  -25.9433  -26.0069   18.9413 H   0  0  0  0  0  0
  -23.9562  -27.3471   19.0020 H   0  0  0  0  0  0
  -23.7362  -30.6232   19.4138 H   0  0  0  0  0  0
  -22.7402  -29.2711   19.8620 H   0  0  0  0  0  0
  -25.1285  -36.1971   25.0829 H   0  0  0  0  0  0
  -20.9970  -28.3248   24.1416 H   0  0  0  0  0  0
  -20.5680  -26.2289   23.3601 H   0  0  0  0  0  0
  -21.6639  -26.7452   22.1196 H   0  0  0  0  0  0
  -19.6907  -25.6299   21.1233 H   0  0  0  0  0  0
  -19.6676  -27.3201   20.6744 H   0  0  0  0  0  0
  -17.4194  -26.6680   21.4027 H   0  0  0  0  0  0
  -18.0325  -26.0064   22.9017 H   0  0  0  0  0  0
  -19.7932  -30.7264   24.2278 H   0  0  0  0  0  0
  -17.5013  -31.6267   24.5166 H   0  0  0  0  0  0
  -15.5350  -30.2990   23.7649 H   0  0  0  0  0  0
  -15.8669  -28.0820   22.7070 H   0  0  0  0  0  0
  -24.5925  -30.7049   25.7820 H   0  0  0  0  0  0
  -24.8927  -32.2860   26.4939 H   0  0  0  0  0  0
  -25.8087  -30.8874   27.0250 H   0  0  0  0  0  0
  -26.2900  -29.6784   24.1212 H   0  0  0  0  0  0
  -27.4070  -29.7282   25.4656 H   0  0  0  0  0  0
  -27.8754  -30.4338   23.9369 H   0  0  0  0  0  0
  -27.2686  -33.3620   26.2108 H   0  0  0  0  0  0
  -28.3865  -32.6886   25.0336 H   0  0  0  0  0  0
  -28.0744  -31.8441   26.5420 H   0  0  0  0  0  0
  -28.2596  -38.0110   24.7528 H   0  0  0  0  0  0
  -28.1085  -36.2642   24.6275 H   0  0  0  0  0  0
  -27.2303  -37.1439   25.8869 H   0  0  0  0  0  0
  -20.9331  -29.8788   21.6937 H   0  0  0  0  0  0
  -26.0183  -38.2871   24.1418 H   0  0  0  0  0  0
  -30.1653  -22.0727   22.7624 H   0  0  0  0  0  0
  -31.2029  -22.5416   21.4439 H   0  0  0  0  0  0
  -30.6840  -21.7189   19.0623 H   0  0  0  0  0  0
  -29.2818  -20.7221   18.7808 H   0  0  0  0  0  0
  -29.7018  -24.4201   22.0848 H   0  0  0  0  0  0
  -28.2994  -23.4110   21.8717 H   0  0  0  0  0  0
  -27.7676  -22.5531   19.3531 H   0  0  0  0  0  0
  -28.8572  -23.0584   18.0957 H   0  0  0  0  0  0
  -28.6452  -20.8977   21.1905 H   0  0  0  0  0  0
  -30.1823  -24.3990   19.6710 H   0  0  0  0  0  0
  -28.9894  -15.8518   20.5595 H   0  0  0  0  0  0
  -29.6784  -15.6258   22.1458 H   0  0  0  0  0  0
  -30.8968  -19.8138   22.1405 H   0  0  0  0  0  0
  -31.3923  -19.8182   20.4810 H   0  0  0  0  0  0
  -27.2262  -24.8066   20.2126 H   0  0  0  0  0  0
  -27.9660  -25.1910   18.6685 H   0  0  0  0  0  0
  -31.2632  -17.1757   20.0332 H   0  0  0  0  0  0
  -31.3913  -17.2506   21.7640 H   0  0  0  0  0  0
  -29.2035  -18.4574   19.9978 H   0  0  0  0  0  0
  -29.0094  -18.3499   21.7235 H   0  0  0  0  0  0
  1 25  1  0  0  0
  1 30  2  0  0  0
  1 77  1  0  0  0
  2  3  1  0  0  0
  2 25  1  0  0  0
  2 82  1  0  0  0
  2 83  1  0  0  0
  3  4  1  0  0  0
  3 84  1  0  0  0
  3 85  1  0  0  0
  4  5  1  0  0  0
  4 86  1  0  0  0
  4 87  1  0  0  0
  5  6  1  0  0  0
  5 26  1  0  0  0
  5 88  1  0  0  0
  6 25  1  0  0  0
  6 89  1  0  0  0
  6 90  1  0  0  0
  7  8  2  0  0  0
  7 26  1  0  0  0
  7 29  1  0  0  0
  8  9  1  0  0  0
  8 22  1  0  0  0
  9 10  1  0  0  0
  9 27  2  0  0  0
 10 11  2  0  0  0
 10 15  1  0  0  0
 11 12  1  0  0  0
 11 91  1  0  0  0
 12 13  2  0  0  0
 12 92  1  0  0  0
 13 14  1  0  0  0
 13 31  1  0  0  0
 14 15  2  0  0  0
 14 93  1  0  0  0
 15 94  1  0  0  0
 16 17  2  0  0  0
 16 21  1  0  0  0
 16 31  1  0  0  0
 17 18  1  0  0  0
 17 95  1  0  0  0
 18 19  2  0  0  0
 18 96  1  0  0  0
 19 20  1  0  0  0
 19 24  1  0  0  0
 20 21  2  0  0  0
 20 97  1  0  0  0
 21 23  1  0  0  0
 22 28  1  0  0  0
 22 32  2  0  0  0
 26 27  1  0  0  0
 28 98  1  0  0  0
 28 99  1  0  0  0
 29100  1  0  0  0
 29101  1  0  0  0
 33 34  1  0  0  0
 33 66  1  0  0  0
 33 70  2  0  0  0
 34 36  1  0  0  0
 34 59  1  0  0  0
 34102  1  0  0  0
 35 44  2  0  0  0
 35 45  1  0  0  0
 35 68  1  0  0  0
 36 56  1  0  0  0
 36103  1  0  0  0
 37 39  1  0  0  0
 37 47  1  0  0  0
 37 66  1  0  0  0
 37104  1  0  0  0
 38 43  2  0  0  0
 38 46  1  0  0  0
 38 47  1  0  0  0
 39 64  1  0  0  0
 39 67  2  0  0  0
 40 52  1  0  0  0
 40 53  2  0  0  0
 40 58  1  0  0  0
 41105  1  0  0  0
 41106  1  0  0  0
 41107  1  0  0  0
 41 48  1  0  0  0
 42 43  1  0  0  0
 42 66  1  0  0  0
 42108  1  0  0  0
 42109  1  0  0  0
 43 44  1  0  0  0
 44110  1  0  0  0
 45 46  2  0  0  0
 45111  1  0  0  0
 46112  1  0  0  0
 47113  1  0  0  0
 47114  1  0  0  0
 48 56  1  0  0  0
 48 65  1  0  0  0
 48115  1  0  0  0
 49 50  1  0  0  0
 49 53  1  0  0  0
 49 64  1  0  0  0
 49116  1  0  0  0
 50 51  1  0  0  0
 50117  1  0  0  0
 50118  1  0  0  0
 51 52  1  0  0  0
 51119  1  0  0  0
 51120  1  0  0  0
 52121  1  0  0  0
 52122  1  0  0  0
 53 54  1  0  0  0
 54 55  2  0  0  0
 54123  1  0  0  0
 55 57  1  0  0  0
 55124  1  0  0  0
 56 69  2  0  0  0
 57 58  2  0  0  0
 57125  1  0  0  0
 58126  1  0  0  0
 59 60  1  0  0  0
 59 61  1  0  0  0
 59 62  1  0  0  0
 60127  1  0  0  0
 60128  1  0  0  0
 60129  1  0  0  0
 61130  1  0  0  0
 61131  1  0  0  0
 61132  1  0  0  0
 62133  1  0  0  0
 62134  1  0  0  0
 62135  1  0  0  0
 63 65  1  0  0  0
 63136  1  0  0  0
 63137  1  0  0  0
 63138  1  0  0  0
 64139  1  0  0  0
 65140  1  0  0  0
 68 79  1  0  0  0
 71 73  1  0  0  0
 71 75  1  0  0  0
 71141  1  0  0  0
 71142  1  0  0  0
 72 74  1  0  0  0
 72 75  1  0  0  0
 72143  1  0  0  0
 72144  1  0  0  0
 73 76  1  0  0  0
 73145  1  0  0  0
 73146  1  0  0  0
 74 76  1  0  0  0
 74147  1  0  0  0
 74148  1  0  0  0
 75 78  1  0  0  0
 75149  1  0  0  0
 76 79  1  0  0  0
 76150  1  0  0  0
 77 80  1  0  0  0
 77151  1  0  0  0
 77152  1  0  0  0
 78 81  1  0  0  0
 78153  1  0  0  0
 78154  1  0  0  0
 79155  1  0  0  0
 79156  1  0  0  0
 80 81  1  0  0  0
 80157  1  0  0  0
 80158  1  0  0  0
 81159  1  0  0  0
 81160  1  0  0  0
M  ISO  4   1 100  68 101  77 100  79 101
M  END
> <chiral flag>
0

> <version>
0

> <s_m_source_file>
/data/baiqing/PycharmProjects/Reinvent-master-3.2/result/LINK_invent/BTK/process_docking_weight1_custom_sum_contain_oxygen_bond_distance_aromatic_linkinvent_7_9_3/rearranged_h_0038.sdf

> <i_m_source_file_index>
17

> <r_mmod_Potential_Energy-OPLS-2005>
50.1472587585449

> <r_mmod_Stretch_Energy-OPLS-2005>
50.2772254943848

> <r_mmod_Bend_Energy-OPLS-2005>
114.543243408203

> <r_mmod_Torsional_Energy-OPLS-2005>
198.774291992188

> <r_mmod_Improper_Torsional_Energy-OPLS-2005>
3.2341628074646

> <r_mmod_Van_der_Waal_Energy-OPLS-2005>
140.797286987305

> <r_mmod_Electrostatic_Energy-OPLS-2005>
-300.893585205078

> <r_mmod_Solvation_Energy-OPLS-2005>
-181.387542724609

> <b_mmod_Minimization_Converged-OPLS-2005>
0

> <r_mmod_RMS_Derivative-OPLS-2005>
0.262953817844391

$$$$
17
                    3D
 Structure written by MMmdl.
158167  0  0  1  0            999 V2000
  -31.1144  -12.9066   20.4445 C   0  0  0  0  0  0
  -30.4447  -13.3010   18.5360 C   0  0  0  0  0  0
  -30.1057  -15.0959   18.8731 C   0  0  0  0  0  0
  -28.4696  -15.5947   20.2167 C   0  0  0  0  0  0
  -27.5708  -13.7589   20.8704 C   0  0  2  0  0  0
  -28.5434  -12.2516   20.3788 C   0  0  0  0  0  0
  -25.0717  -13.9747   20.6282 C   0  0  0  0  0  0
  -24.0616  -13.0979   20.8750 C   0  0  0  0  0  0
  -24.6057  -11.7761   20.8861 C   0  0  0  0  0  0
  -23.9246  -10.4629   21.0288 C   0  0  0  0  0  0
  -24.3618   -9.4529   21.9240 C   0  0  0  0  0  0
  -23.6244   -8.2523   22.0859 C   0  0  0  0  0  0
  -22.4315   -8.0390   21.3527 C   0  0  0  0  0  0
  -22.0108   -9.0361   20.4501 C   0  0  0  0  0  0
  -22.7510  -10.2187   20.2873 C   0  0  0  0  0  0
  -21.6864   -6.0843   22.5296 C   0  0  0  0  0  0
  -21.4103   -6.5696   23.8303 C   0  0  0  0  0  0
  -21.3884   -5.6820   24.9282 C   0  0  0  0  0  0
  -21.6028   -4.3078   24.7244 C   0  0  0  0  0  0
  -21.8655   -3.8165   23.4378 C   0  0  0  0  0  0
  -21.9058   -4.7010   22.3443 C   0  0  0  0  0  0
  -22.6607  -13.5019   21.1434 C   0  0  0  0  0  0
  -22.1502   -4.2233   21.1010 F   0  0  0  0  0  0
  -21.5694   -3.4525   25.7792 F   0  0  0  0  0  0
  -30.0831  -12.3617   19.6657 N   0  0  0  0  0  0
  -26.2044  -13.2432   20.6400 N   0  0  0  0  0  0
  -25.9150  -11.8845   20.7504 N   0  0  0  0  0  0
  -21.9820  -12.7964   22.0367 N   0  0  0  0  0  0
  -25.1442  -15.3503   20.5164 N   0  0  0  0  0  0
  -32.1701  -13.5716   20.1980 O   0  0  0  0  0  0
  -21.6593   -6.9018   21.4320 O   0  0  0  0  0  0
  -22.1845  -14.5089   20.6145 O   0  0  0  0  0  0
  -24.6867  -31.7978   23.1510 C   0  0  0  0  0  0
  -25.9436  -32.4457   23.7950 C   0  0  1  0  0  0
  -26.9411  -26.6127   20.0295 C   0  0  0  0  0  0
  -25.6063  -33.8295   24.1847 N   0  0  0  0  0  0
  -23.4922  -30.4273   21.5347 C   0  0  2  0  0  0
  -24.8766  -28.7849   20.0839 C   0  0  0  0  0  0
  -22.7726  -29.4378   22.4870 C   0  0  0  0  0  0
  -18.0355  -28.1442   22.8501 C   0  0  0  0  0  0
  -24.1519  -36.7195   23.2622 C   0  0  0  0  0  0
  -26.0854  -30.4769   21.4259 C   0  0  0  0  0  0
  -26.0903  -29.0641   20.7180 C   0  0  0  0  0  0
  -27.1361  -27.9860   20.6726 C   0  0  0  0  0  0
  -25.7351  -26.6004   19.3254 C   0  0  0  0  0  0
  -24.7437  -27.6014   19.3615 C   0  0  0  0  0  0
  -23.7164  -29.7859   20.1448 C   0  0  0  0  0  0
  -25.4154  -36.2858   24.0208 C   0  0  1  0  0  0
  -20.5986  -28.3749   23.1246 C   0  0  2  0  0  0
  -20.6823  -26.9421   22.5446 C   0  0  0  0  0  0
  -19.5745  -26.6360   21.5300 C   0  0  0  0  0  0
  -18.1935  -26.7978   22.1685 C   0  0  0  0  0  0
  -19.1612  -28.8935   23.2869 C   0  0  0  0  0  0
  -18.9451  -30.1555   23.8841 C   0  0  0  0  0  0
  -17.6413  -30.6603   24.0540 C   0  0  0  0  0  0
  -25.9174  -34.9286   23.4881 C   0  0  0  0  0  0
  -16.5344  -29.9028   23.6352 C   0  0  0  0  0  0
  -16.7324  -28.6498   23.0323 C   0  0  0  0  0  0
  -26.4581  -31.6552   25.0638 C   0  0  0  0  0  0
  -25.3589  -31.3920   26.1226 C   0  0  0  0  0  0
  -27.0509  -30.2852   24.6632 C   0  0  0  0  0  0
  -27.6037  -32.4441   25.7478 C   0  0  0  0  0  0
  -27.5599  -37.1708   24.8381 C   0  0  0  0  0  0
  -21.4415  -29.3001   22.3593 N   0  0  0  0  0  0
  -26.4216  -37.3648   23.9464 N   0  0  0  0  0  0
  -24.7847  -30.9247   22.0928 N   0  0  0  0  0  0
  -23.4197  -28.7882   23.3108 O   0  0  0  0  0  0
  -27.6393  -25.2339   20.0179 O   0  0  0  0  0  0
  -26.5805  -34.8879   22.4504 O   0  0  0  0  0  0
  -23.5960  -32.1223   23.6504 O   0  0  0  0  0  0
  -26.9337  -19.1184   18.2307 C   0  0  0  0  0  0
  -27.0006  -20.2170   19.4208 C   0  0  0  0  0  0
  -26.9445  -17.5873   18.6685 C   0  0  0  0  0  0
  -27.2989  -20.8686   22.0522 C   0  0  0  0  0  0
  -27.1529  -21.8434   19.8622 C   0  0  0  0  0  0
  -27.2114  -19.4843   21.7822 C   0  0  0  0  0  0
  -27.5112  -18.3681   22.8002 C   0  0  0  0  0  0
  -27.0693  -15.7526   18.1156 C   0  0  0  0  0  0
  -27.2293  -23.6289   19.3287 C   0  0  0  0  0  0
  -28.0824  -14.0819   18.6681 C   0  0  0  0  0  0
  -29.8760  -14.1140   20.9990 C   0  0  0  0  0  0
  -26.7469  -17.8494   19.9921 N   0  0  0  0  0  0
  -27.2551  -21.9372   21.2115 N   0  0  0  0  0  0
  -26.9564  -19.2017   20.4389 N   0  0  0  0  0  0
  -30.6183  -13.0201   21.5936 N   0  0  0  0  0  0
  -31.4205  -13.1480   18.0499 H   0  0  0  0  0  0
  -29.9933  -12.8297   17.6590 H   0  0  0  0  0  0
  -29.9687  -15.6157   17.9149 H   0  0  0  0  0  0
  -31.0208  -15.6426   19.1334 H   0  0  0  0  0  0
  -28.6045  -16.4090   19.5401 H   0  0  0  0  0  0
  -28.7187  -16.2462   21.0962 H   0  0  0  0  0  0
  -27.5064  -13.8723   21.9714 H   0  0  0  0  0  0
  -28.0265  -11.6047   19.6710 H   0  0  0  0  0  0
  -28.6189  -11.5909   21.2541 H   0  0  0  0  0  0
  -25.2510   -9.6098   22.5118 H   0  0  0  0  0  0
  -23.9835   -7.5039   22.7711 H   0  0  0  0  0  0
  -21.1113   -8.8788   19.8664 H   0  0  0  0  0  0
  -22.3975  -10.9647   19.5865 H   0  0  0  0  0  0
  -21.2168   -7.6183   23.9939 H   0  0  0  0  0  0
  -21.1992   -6.0540   25.9276 H   0  0  0  0  0  0
  -22.0191   -2.7582   23.2807 H   0  0  0  0  0  0
  -22.4157  -12.0115   22.4971 H   0  0  0  0  0  0
  -21.0349  -13.0484   22.2868 H   0  0  0  0  0  0
  -24.3033  -15.9129   20.5300 H   0  0  0  0  0  0
  -25.9830  -15.9139   20.4039 H   0  0  0  0  0  0
  -26.7480  -32.4755   23.0639 H   0  0  0  0  0  0
  -24.9998  -33.9301   24.9834 H   0  0  0  0  0  0
  -22.8251  -31.2757   21.3826 H   0  0  0  0  0  0
  -23.3810  -35.9498   23.3073 H   0  0  0  0  0  0
  -24.3619  -36.9116   22.2096 H   0  0  0  0  0  0
  -23.7217  -37.6278   23.6867 H   0  0  0  0  0  0
  -26.3296  -31.2248   20.6677 H   0  0  0  0  0  0
  -26.9283  -30.4817   22.0984 H   0  0  0  0  0  0
  -28.0707  -28.1567   21.1788 H   0  0  0  0  0  0
  -25.4591  -25.7136   18.7786 H   0  0  0  0  0  0
  -23.8174  -27.4177   18.8279 H   0  0  0  0  0  0
  -23.9368  -30.5845   19.4289 H   0  0  0  0  0  0
  -22.8029  -29.3126   19.7810 H   0  0  0  0  0  0
  -25.1373  -36.1605   25.0661 H   0  0  0  0  0  0
  -20.9995  -28.3331   24.1402 H   0  0  0  0  0  0
  -20.5791  -26.2336   23.3698 H   0  0  0  0  0  0
  -21.6677  -26.7458   22.1197 H   0  0  0  0  0  0
  -19.6880  -25.6242   21.1390 H   0  0  0  0  0  0
  -19.6703  -27.3151   20.6817 H   0  0  0  0  0  0
  -17.4246  -26.6834   21.4039 H   0  0  0  0  0  0
  -18.0235  -26.0123   22.9061 H   0  0  0  0  0  0
  -19.7907  -30.7448   24.2128 H   0  0  0  0  0  0
  -17.4930  -31.6239   24.5199 H   0  0  0  0  0  0
  -15.5332  -30.2849   23.7714 H   0  0  0  0  0  0
  -15.8774  -28.0771   22.7000 H   0  0  0  0  0  0
  -24.5800  -30.7282   25.7451 H   0  0  0  0  0  0
  -24.8753  -32.3191   26.4344 H   0  0  0  0  0  0
  -25.7656  -30.9216   27.0189 H   0  0  0  0  0  0
  -26.3172  -29.6488   24.1672 H   0  0  0  0  0  0
  -27.3979  -29.7299   25.5363 H   0  0  0  0  0  0
  -27.9188  -30.4013   24.0136 H   0  0  0  0  0  0
  -27.2567  -33.3883   26.1749 H   0  0  0  0  0  0
  -28.3996  -32.6817   25.0377 H   0  0  0  0  0  0
  -28.0562  -31.8753   26.5662 H   0  0  0  0  0  0
  -28.2338  -38.0252   24.7718 H   0  0  0  0  0  0
  -28.1345  -36.2802   24.5828 H   0  0  0  0  0  0
  -27.2365  -37.0887   25.8751 H   0  0  0  0  0  0
  -20.9692  -29.8649   21.6713 H   0  0  0  0  0  0
  -26.0052  -38.2658   24.1592 H   0  0  0  0  0  0
  -26.9332  -19.4792   17.2092 H   0  0  0  0  0  0
  -27.4812  -21.1330   23.0840 H   0  0  0  0  0  0
  -27.5370  -18.7405   23.8288 H   0  0  0  0  0  0
  -28.4917  -17.9393   22.6360 H   0  0  0  0  0  0
  -26.8004  -17.5459   22.7866 H   0  0  0  0  0  0
  -27.1635  -15.7675   17.0224 H   0  0  0  0  0  0
  -26.0478  -15.3542   18.1372 H   0  0  0  0  0  0
  -26.3268  -23.7617   18.7439 H   0  0  0  0  0  0
  -28.0003  -23.5491   18.5599 H   0  0  0  0  0  0
  -28.4469  -13.9651   17.6404 H   0  0  0  0  0  0
  -27.3994  -13.2387   18.5284 H   0  0  0  0  0  0
  -30.5244  -15.0149   21.1679 H   0  0  0  0  0  0
  -29.4537  -14.3096   21.9981 H   0  0  0  0  0  0
  -31.2043  -13.2029   22.3942 H   0  0  0  0  0  0
  1 25  1  0  0  0
  1 30  2  0  0  0
  1 85  1  0  0  0
  2  3  1  0  0  0
  2 25  1  0  0  0
  2 86  1  0  0  0
  2 87  1  0  0  0
  3  4  1  0  0  0
  3 88  1  0  0  0
  3 89  1  0  0  0
  4  5  1  0  0  0
  4 90  1  0  0  0
  4 91  1  0  0  0
  5  6  1  0  0  0
  5 26  1  0  0  0
  5 92  1  0  0  0
  6 25  1  0  0  0
  6 93  1  0  0  0
  6 94  1  0  0  0
  7  8  2  0  0  0
  7 26  1  0  0  0
  7 29  1  0  0  0
  8  9  1  0  0  0
  8 22  1  0  0  0
  9 10  1  0  0  0
  9 27  2  0  0  0
 10 11  2  0  0  0
 10 15  1  0  0  0
 11 12  1  0  0  0
 11 95  1  0  0  0
 12 13  2  0  0  0
 12 96  1  0  0  0
 13 14  1  0  0  0
 13 31  1  0  0  0
 14 15  2  0  0  0
 14 97  1  0  0  0
 15 98  1  0  0  0
 16 17  2  0  0  0
 16 21  1  0  0  0
 16 31  1  0  0  0
 17 18  1  0  0  0
 17 99  1  0  0  0
 18 19  2  0  0  0
 18100  1  0  0  0
 19 20  1  0  0  0
 19 24  1  0  0  0
 20 21  2  0  0  0
 20101  1  0  0  0
 21 23  1  0  0  0
 22 28  1  0  0  0
 22 32  2  0  0  0
 26 27  1  0  0  0
 28102  1  0  0  0
 28103  1  0  0  0
 29104  1  0  0  0
 29105  1  0  0  0
 33 34  1  0  0  0
 33 66  1  0  0  0
 33 70  2  0  0  0
 34 36  1  0  0  0
 34 59  1  0  0  0
 34106  1  0  0  0
 35 44  2  0  0  0
 35 45  1  0  0  0
 35 68  1  0  0  0
 36 56  1  0  0  0
 36107  1  0  0  0
 37 39  1  0  0  0
 37 47  1  0  0  0
 37 66  1  0  0  0
 37108  1  0  0  0
 38 43  2  0  0  0
 38 46  1  0  0  0
 38 47  1  0  0  0
 39 64  1  0  0  0
 39 67  2  0  0  0
 40 52  1  0  0  0
 40 53  2  0  0  0
 40 58  1  0  0  0
 41109  1  0  0  0
 41110  1  0  0  0
 41111  1  0  0  0
 41 48  1  0  0  0
 42 43  1  0  0  0
 42 66  1  0  0  0
 42112  1  0  0  0
 42113  1  0  0  0
 43 44  1  0  0  0
 44114  1  0  0  0
 45 46  2  0  0  0
 45115  1  0  0  0
 46116  1  0  0  0
 47117  1  0  0  0
 47118  1  0  0  0
 48 56  1  0  0  0
 48 65  1  0  0  0
 48119  1  0  0  0
 49 50  1  0  0  0
 49 53  1  0  0  0
 49 64  1  0  0  0
 49120  1  0  0  0
 50 51  1  0  0  0
 50121  1  0  0  0
 50122  1  0  0  0
 51 52  1  0  0  0
 51123  1  0  0  0
 51124  1  0  0  0
 52125  1  0  0  0
 52126  1  0  0  0
 53 54  1  0  0  0
 54 55  2  0  0  0
 54127  1  0  0  0
 55 57  1  0  0  0
 55128  1  0  0  0
 56 69  2  0  0  0
 57 58  2  0  0  0
 57129  1  0  0  0
 58130  1  0  0  0
 59 60  1  0  0  0
 59 61  1  0  0  0
 59 62  1  0  0  0
 60131  1  0  0  0
 60132  1  0  0  0
 60133  1  0  0  0
 61134  1  0  0  0
 61135  1  0  0  0
 61136  1  0  0  0
 62137  1  0  0  0
 62138  1  0  0  0
 62139  1  0  0  0
 63 65  1  0  0  0
 63140  1  0  0  0
 63141  1  0  0  0
 63142  1  0  0  0
 64143  1  0  0  0
 65144  1  0  0  0
 68 79  1  0  0  0
 71 72  2  0  0  0
 71 73  1  0  0  0
 71145  1  0  0  0
 72 75  1  0  0  0
 72 84  1  0  0  0
 73 78  1  0  0  0
 73 82  2  0  0  0
 74 76  2  0  0  0
 74 83  1  0  0  0
 74146  1  0  0  0
 75 79  1  0  0  0
 75 83  2  0  0  0
 76 77  1  0  0  0
 76 84  1  0  0  0
 77147  1  0  0  0
 77148  1  0  0  0
 77149  1  0  0  0
 78 80  1  0  0  0
 78150  1  0  0  0
 78151  1  0  0  0
 79152  1  0  0  0
 79153  1  0  0  0
 80 81  1  0  0  0
 80154  1  0  0  0
 80155  1  0  0  0
 81 85  1  0  0  0
 81156  1  0  0  0
 81157  1  0  0  0
 82 84  1  0  0  0
 85158  1  0  0  0
M  ISO  4   1 100  68 101  79 101  85 100
M  END
> <chiral flag>
0

> <version>
0

> <s_m_source_file>
/data/baiqing/PycharmProjects/Reinvent-master-3.2/result/LINK_invent/BTK/process_docking_weight1_custom_sum_contain_oxygen_bond_distance_aromatic_linkinvent_7_9_3/rearranged_h_0038.sdf

> <i_m_source_file_index>
18

> <r_mmod_Potential_Energy-OPLS-2005>
11416.1552734375

> <r_mmod_Stretch_Energy-OPLS-2005>
4807.77734375

> <r_mmod_Bend_Energy-OPLS-2005>
1346.17041015625

> <r_mmod_Torsional_Energy-OPLS-2005>
337.744598388672

> <r_mmod_Improper_Torsional_Energy-OPLS-2005>
24.2953720092773

> <r_mmod_Van_der_Waal_Energy-OPLS-2005>
1992.48132324219

> <r_mmod_Electrostatic_Energy-OPLS-2005>
-395.110504150391

> <r_mmod_Solvation_Energy-OPLS-2005>
-229.756454467773

> <b_mmod_Minimization_Converged-OPLS-2005>
0

> <r_mmod_RMS_Derivative-OPLS-2005>
33.9125671386719

$$$$
18
                    3D
 Structure written by MMmdl.
165173  0  0  1  0            999 V2000
  -30.6811  -14.5102   20.5588 C   0  0  0  0  0  0
  -30.4270  -12.3257   19.4234 C   0  0  0  0  0  0
  -29.4949  -12.4964   18.2054 C   0  0  0  0  0  0
  -28.0185  -12.3481   18.6250 C   0  0  0  0  0  0
  -27.6588  -13.2053   19.8684 C   0  0  2  0  0  0
  -28.7017  -13.0055   20.9907 C   0  0  0  0  0  0
  -25.2594  -13.8160   20.5681 C   0  0  0  0  0  0
  -24.1844  -13.0440   20.9185 C   0  0  0  0  0  0
  -24.6395  -11.6905   20.8748 C   0  0  0  0  0  0
  -23.9062  -10.4295   21.0429 C   0  0  0  0  0  0
  -24.3612   -9.4207   21.9206 C   0  0  0  0  0  0
  -23.6293   -8.2241   22.0764 C   0  0  0  0  0  0
  -22.4271   -8.0284   21.3553 C   0  0  0  0  0  0
  -21.9912   -9.0260   20.4649 C   0  0  0  0  0  0
  -22.7243  -10.2139   20.3069 C   0  0  0  0  0  0
  -21.6848   -6.0742   22.5280 C   0  0  0  0  0  0
  -21.4013   -6.5645   23.8212 C   0  0  0  0  0  0
  -21.3655   -5.6801   24.9176 C   0  0  0  0  0  0
  -21.6043   -4.3066   24.7233 C   0  0  0  0  0  0
  -21.8814   -3.8152   23.4351 C   0  0  0  0  0  0
  -21.9193   -4.6969   22.3407 C   0  0  0  0  0  0
  -22.7867  -13.5241   21.1859 C   0  0  0  0  0  0
  -22.1660   -4.2157   21.0988 F   0  0  0  0  0  0
  -21.5631   -3.4543   25.7744 F   0  0  0  0  0  0
  -30.0268  -13.3220   20.4303 N   0  0  0  0  0  0
  -26.3016  -12.9318   20.3342 N   0  0  0  0  0  0
  -25.9317  -11.6484   20.5771 N   0  0  0  0  0  0
  -22.0496  -12.8222   22.0401 N   0  0  0  0  0  0
  -25.4326  -15.1866   20.4074 N   0  0  0  0  0  0
  -31.8213  -14.6936   20.1245 O   0  0  0  0  0  0
  -21.6631   -6.8879   21.4243 O   0  0  0  0  0  0
  -22.3561  -14.5562   20.6729 O   0  0  0  0  0  0
  -24.6182  -31.8653   23.2101 C   0  0  0  0  0  0
  -25.9066  -32.4797   23.8390 C   0  0  1  0  0  0
  -27.2198  -27.3945   20.0976 C   0  0  0  0  0  0
  -25.5921  -33.8608   24.2324 N   0  0  0  0  0  0
  -23.4080  -30.4902   21.5505 C   0  0  2  0  0  0
  -24.8533  -28.9557   20.1113 C   0  0  0  0  0  0
  -22.7428  -29.4647   22.4979 C   0  0  0  0  0  0
  -18.0269  -28.1378   22.8495 C   0  0  0  0  0  0
  -24.1490  -36.7303   23.2644 C   0  0  0  0  0  0
  -25.9422  -30.8149   21.3743 C   0  0  0  0  0  0
  -26.0167  -29.4474   20.7195 C   0  0  0  0  0  0
  -27.2045  -28.6720   20.7159 C   0  0  0  0  0  0
  -26.0536  -26.9488   19.4478 C   0  0  0  0  0  0
  -24.8687  -27.7063   19.4709 C   0  0  0  0  0  0
  -23.6180  -29.8270   20.1647 C   0  0  0  0  0  0
  -25.4108  -36.3095   24.0339 C   0  0  1  0  0  0
  -20.5863  -28.3667   23.1315 C   0  0  2  0  0  0
  -20.6774  -26.9403   22.5418 C   0  0  0  0  0  0
  -19.5753  -26.6379   21.5217 C   0  0  0  0  0  0
  -18.1920  -26.7925   22.1613 C   0  0  0  0  0  0
  -19.1523  -28.8837   23.2900 C   0  0  0  0  0  0
  -18.9458  -30.1439   23.8910 C   0  0  0  0  0  0
  -17.6469  -30.6592   24.0568 C   0  0  0  0  0  0
  -25.9046  -34.9459   23.5123 C   0  0  0  0  0  0
  -16.5353  -29.9089   23.6345 C   0  0  0  0  0  0
  -16.7257  -28.6503   23.0376 C   0  0  0  0  0  0
  -26.4488  -31.6588   25.0736 C   0  0  0  0  0  0
  -25.3754  -31.3680   26.1485 C   0  0  0  0  0  0
  -27.0324  -30.3022   24.6146 C   0  0  0  0  0  0
  -27.6080  -32.4314   25.7475 C   0  0  0  0  0  0
  -27.5571  -37.1801   24.8465 C   0  0  0  0  0  0
  -21.4150  -29.3030   22.3716 N   0  0  0  0  0  0
  -26.4290  -37.3782   23.9408 N   0  0  0  0  0  0
  -24.6740  -31.0718   22.1021 N   0  0  0  0  0  0
  -23.4167  -28.8188   23.3043 O   0  0  0  0  0  0
  -28.3426  -26.5870   20.0865 O   0  0  0  0  0  0
  -26.5597  -34.8913   22.4676 O   0  0  0  0  0  0
  -23.5371  -32.1451   23.7467 O   0  0  0  0  0  0
  -27.6925  -21.3683   19.6003 C   0  0  0  0  0  0
  -26.8674  -23.6278   20.0283 C   0  0  0  0  0  0
  -29.1817  -23.0696   20.5150 C   0  0  0  0  0  0
  -26.6470  -22.3136   19.5642 C   0  0  0  0  0  0
  -28.9642  -21.7236   20.0953 C   0  0  0  0  0  0
  -28.1399  -24.0440   20.4755 C   0  0  0  0  0  0
  -23.1057  -20.6552   19.3797 C   0  0  0  0  0  0
  -25.2887  -21.9207   19.0062 C   0  0  0  0  0  0
  -30.0899  -20.6698   20.0847 C   0  0  0  0  0  0
  -28.3370  -25.4792   21.0281 C   0  0  0  0  0  0
  -24.4868  -21.0102   19.9475 C   0  0  0  0  0  0
  -29.9686  -19.4677   21.0801 C   0  0  0  0  0  0
  -29.8260  -18.0297   20.4750 C   0  0  0  0  0  0
  -30.3881  -16.9011   21.3993 C   0  0  0  0  0  0
  -29.9518  -15.5237   21.0776 N   0  0  0  0  0  0
  -31.4710  -12.4295   19.1221 H   0  0  0  0  0  0
  -30.3347  -11.3183   19.8332 H   0  0  0  0  0  0
  -29.7377  -11.7598   17.4376 H   0  0  0  0  0  0
  -29.6515  -13.4764   17.7520 H   0  0  0  0  0  0
  -27.8453  -11.2937   18.8453 H   0  0  0  0  0  0
  -27.3597  -12.5951   17.7918 H   0  0  0  0  0  0
  -27.6973  -14.2487   19.5547 H   0  0  0  0  0  0
  -28.6864  -11.9718   21.3419 H   0  0  0  0  0  0
  -28.4599  -13.6119   21.8649 H   0  0  0  0  0  0
  -25.2745   -9.5686   22.4798 H   0  0  0  0  0  0
  -23.9993   -7.4632   22.7487 H   0  0  0  0  0  0
  -21.0839   -8.8786   19.8957 H   0  0  0  0  0  0
  -22.3702  -10.9689   19.6186 H   0  0  0  0  0  0
  -21.2000   -7.6152   23.9723 H   0  0  0  0  0  0
  -21.1485   -6.0529   25.9080 H   0  0  0  0  0  0
  -22.0599   -2.7615   23.2852 H   0  0  0  0  0  0
  -22.4092  -11.9858   22.4755 H   0  0  0  0  0  0
  -21.1124  -13.1262   22.2629 H   0  0  0  0  0  0
  -24.6650  -15.8412   20.5106 H   0  0  0  0  0  0
  -26.2821  -15.6224   20.0731 H   0  0  0  0  0  0
  -26.7125  -32.5494   23.1140 H   0  0  0  0  0  0
  -25.0109  -33.9764   25.0489 H   0  0  0  0  0  0
  -22.6987  -31.3087   21.4104 H   0  0  0  0  0  0
  -23.3760  -35.9628   23.3308 H   0  0  0  0  0  0
  -24.3587  -36.8931   22.2059 H   0  0  0  0  0  0
  -23.7249  -37.6505   23.6671 H   0  0  0  0  0  0
  -26.0632  -31.5806   20.6065 H   0  0  0  0  0  0
  -26.8281  -30.8638   21.9968 H   0  0  0  0  0  0
  -28.1002  -29.0405   21.1976 H   0  0  0  0  0  0
  -26.0622  -26.0207   18.8998 H   0  0  0  0  0  0
  -23.9829  -27.3313   18.9767 H   0  0  0  0  0  0
  -23.7254  -30.6062   19.4092 H   0  0  0  0  0  0
  -22.7412  -29.2486   19.8666 H   0  0  0  0  0  0
  -25.1288  -36.1954   25.0835 H   0  0  0  0  0  0
  -20.9944  -28.3235   24.1440 H   0  0  0  0  0  0
  -20.5718  -26.2261   23.3600 H   0  0  0  0  0  0
  -21.6637  -26.7477   22.1178 H   0  0  0  0  0  0
  -19.6936  -25.6291   21.1240 H   0  0  0  0  0  0
  -19.6711  -27.3201   20.6761 H   0  0  0  0  0  0
  -17.4203  -26.6695   21.3999 H   0  0  0  0  0  0
  -18.0302  -26.0046   22.8989 H   0  0  0  0  0  0
  -19.7931  -30.7243   24.2298 H   0  0  0  0  0  0
  -17.5017  -31.6285   24.5137 H   0  0  0  0  0  0
  -15.5350  -30.2995   23.7671 H   0  0  0  0  0  0
  -15.8653  -28.0824   22.7110 H   0  0  0  0  0  0
  -24.5949  -30.7000   25.7823 H   0  0  0  0  0  0
  -24.8916  -32.2816   26.4951 H   0  0  0  0  0  0
  -25.8112  -30.8846   27.0239 H   0  0  0  0  0  0
  -26.2875  -29.6747   24.1237 H   0  0  0  0  0  0
  -27.4114  -29.7298   25.4623 H   0  0  0  0  0  0
  -27.8692  -30.4330   23.9281 H   0  0  0  0  0  0
  -27.2749  -33.3660   26.2000 H   0  0  0  0  0  0
  -28.3888  -32.6804   25.0274 H   0  0  0  0  0  0
  -28.0724  -31.8456   26.5417 H   0  0  0  0  0  0
  -28.2594  -38.0093   24.7516 H   0  0  0  0  0  0
  -28.1065  -36.2625   24.6295 H   0  0  0  0  0  0
  -27.2277  -37.1452   25.8867 H   0  0  0  0  0  0
  -20.9316  -29.8717   21.6905 H   0  0  0  0  0  0
  -26.0175  -38.2860   24.1423 H   0  0  0  0  0  0
  -27.5187  -20.3618   19.2445 H   0  0  0  0  0  0
  -26.0351  -24.3123   20.0593 H   0  0  0  0  0  0
  -30.1575  -23.3577   20.8817 H   0  0  0  0  0  0
  -22.5366  -20.0478   20.0838 H   0  0  0  0  0  0
  -23.1904  -20.0934   18.4485 H   0  0  0  0  0  0
  -22.5207  -21.5519   19.1746 H   0  0  0  0  0  0
  -25.4406  -21.4200   18.0494 H   0  0  0  0  0  0
  -24.7118  -22.8212   18.7874 H   0  0  0  0  0  0
  -31.0281  -21.1887   20.2909 H   0  0  0  0  0  0
  -30.1994  -20.2988   19.0651 H   0  0  0  0  0  0
  -29.2897  -25.5099   21.5550 H   0  0  0  0  0  0
  -27.5824  -25.6429   21.8005 H   0  0  0  0  0  0
  -25.0428  -20.0907   20.1409 H   0  0  0  0  0  0
  -24.3624  -21.5073   20.9104 H   0  0  0  0  0  0
  -29.1711  -19.6488   21.8013 H   0  0  0  0  0  0
  -30.8804  -19.4745   21.6789 H   0  0  0  0  0  0
  -30.3435  -17.9738   19.5165 H   0  0  0  0  0  0
  -28.7720  -17.8487   20.2594 H   0  0  0  0  0  0
  -30.0694  -17.0941   22.4244 H   0  0  0  0  0  0
  -31.4788  -16.9580   21.4178 H   0  0  0  0  0  0
  -29.0164  -15.2730   21.3638 H   0  0  0  0  0  0
  1 25  1  0  0  0
  1 30  2  0  0  0
  1 85  1  0  0  0
  2  3  1  0  0  0
  2 25  1  0  0  0
  2 86  1  0  0  0
  2 87  1  0  0  0
  3  4  1  0  0  0
  3 88  1  0  0  0
  3 89  1  0  0  0
  4  5  1  0  0  0
  4 90  1  0  0  0
  4 91  1  0  0  0
  5  6  1  0  0  0
  5 26  1  0  0  0
  5 92  1  0  0  0
  6 25  1  0  0  0
  6 93  1  0  0  0
  6 94  1  0  0  0
  7  8  2  0  0  0
  7 26  1  0  0  0
  7 29  1  0  0  0
  8  9  1  0  0  0
  8 22  1  0  0  0
  9 10  1  0  0  0
  9 27  2  0  0  0
 10 11  2  0  0  0
 10 15  1  0  0  0
 11 12  1  0  0  0
 11 95  1  0  0  0
 12 13  2  0  0  0
 12 96  1  0  0  0
 13 14  1  0  0  0
 13 31  1  0  0  0
 14 15  2  0  0  0
 14 97  1  0  0  0
 15 98  1  0  0  0
 16 17  2  0  0  0
 16 21  1  0  0  0
 16 31  1  0  0  0
 17 18  1  0  0  0
 17 99  1  0  0  0
 18 19  2  0  0  0
 18100  1  0  0  0
 19 20  1  0  0  0
 19 24  1  0  0  0
 20 21  2  0  0  0
 20101  1  0  0  0
 21 23  1  0  0  0
 22 28  1  0  0  0
 22 32  2  0  0  0
 26 27  1  0  0  0
 28102  1  0  0  0
 28103  1  0  0  0
 29104  1  0  0  0
 29105  1  0  0  0
 33 34  1  0  0  0
 33 66  1  0  0  0
 33 70  2  0  0  0
 34 36  1  0  0  0
 34 59  1  0  0  0
 34106  1  0  0  0
 35 44  2  0  0  0
 35 45  1  0  0  0
 35 68  1  0  0  0
 36 56  1  0  0  0
 36107  1  0  0  0
 37 39  1  0  0  0
 37 47  1  0  0  0
 37 66  1  0  0  0
 37108  1  0  0  0
 38 43  2  0  0  0
 38 46  1  0  0  0
 38 47  1  0  0  0
 39 64  1  0  0  0
 39 67  2  0  0  0
 40 52  1  0  0  0
 40 53  2  0  0  0
 40 58  1  0  0  0
 41109  1  0  0  0
 41110  1  0  0  0
 41111  1  0  0  0
 41 48  1  0  0  0
 42 43  1  0  0  0
 42 66  1  0  0  0
 42112  1  0  0  0
 42113  1  0  0  0
 43 44  1  0  0  0
 44114  1  0  0  0
 45 46  2  0  0  0
 45115  1  0  0  0
 46116  1  0  0  0
 47117  1  0  0  0
 47118  1  0  0  0
 48 56  1  0  0  0
 48 65  1  0  0  0
 48119  1  0  0  0
 49 50  1  0  0  0
 49 53  1  0  0  0
 49 64  1  0  0  0
 49120  1  0  0  0
 50 51  1  0  0  0
 50121  1  0  0  0
 50122  1  0  0  0
 51 52  1  0  0  0
 51123  1  0  0  0
 51124  1  0  0  0
 52125  1  0  0  0
 52126  1  0  0  0
 53 54  1  0  0  0
 54 55  2  0  0  0
 54127  1  0  0  0
 55 57  1  0  0  0
 55128  1  0  0  0
 56 69  2  0  0  0
 57 58  2  0  0  0
 57129  1  0  0  0
 58130  1  0  0  0
 59 60  1  0  0  0
 59 61  1  0  0  0
 59 62  1  0  0  0
 60131  1  0  0  0
 60132  1  0  0  0
 60133  1  0  0  0
 61134  1  0  0  0
 61135  1  0  0  0
 61136  1  0  0  0
 62137  1  0  0  0
 62138  1  0  0  0
 62139  1  0  0  0
 63 65  1  0  0  0
 63140  1  0  0  0
 63141  1  0  0  0
 63142  1  0  0  0
 64143  1  0  0  0
 65144  1  0  0  0
 68 80  1  0  0  0
 71 74  2  0  0  0
 71 75  1  0  0  0
 71145  1  0  0  0
 72 74  1  0  0  0
 72 76  2  0  0  0
 72146  1  0  0  0
 73 75  2  0  0  0
 73 76  1  0  0  0
 73147  1  0  0  0
 74 78  1  0  0  0
 75 79  1  0  0  0
 76 80  1  0  0  0
 77 81  1  0  0  0
 77148  1  0  0  0
 77149  1  0  0  0
 77150  1  0  0  0
 78 81  1  0  0  0
 78151  1  0  0  0
 78152  1  0  0  0
 79 82  1  0  0  0
 79153  1  0  0  0
 79154  1  0  0  0
 80155  1  0  0  0
 80156  1  0  0  0
 81157  1  0  0  0
 81158  1  0  0  0
 82 83  1  0  0  0
 82159  1  0  0  0
 82160  1  0  0  0
 83 84  1  0  0  0
 83161  1  0  0  0
 83162  1  0  0  0
 84 85  1  0  0  0
 84163  1  0  0  0
 84164  1  0  0  0
 85165  1  0  0  0
M  ISO  4   1 100  68 101  80 101  85 100
M  END
> <chiral flag>
0

> <version>
0

> <s_m_source_file>
/data/baiqing/PycharmProjects/Reinvent-master-3.2/result/LINK_invent/BTK/process_docking_weight1_custom_sum_contain_oxygen_bond_distance_aromatic_linkinvent_7_9_3/rearranged_h_0038.sdf

> <i_m_source_file_index>
19

> <r_mmod_Potential_Energy-OPLS-2005>
6.34258556365967

> <r_mmod_Stretch_Energy-OPLS-2005>
47.1989402770996

> <r_mmod_Bend_Energy-OPLS-2005>
103.398681640625

> <r_mmod_Torsional_Energy-OPLS-2005>
250.869186401367

> <r_mmod_Improper_Torsional_Energy-OPLS-2005>
3.5359354019165

> <r_mmod_Van_der_Waal_Energy-OPLS-2005>
138.603302001953

> <r_mmod_Electrostatic_Energy-OPLS-2005>
-359.367980957031

> <r_mmod_Solvation_Energy-OPLS-2005>
-198.238983154297

> <b_mmod_Minimization_Converged-OPLS-2005>
0

> <r_mmod_RMS_Derivative-OPLS-2005>
2.09019160270691

$$$$
19
                    3D
 Structure written by MMmdl.
173181  0  0  1  0            999 V2000
  -30.7098  -14.3682   20.6439 C   0  0  0  0  0  0
  -30.4256  -12.2721   19.3851 C   0  0  0  0  0  0
  -29.4856  -12.5286   18.1886 C   0  0  0  0  0  0
  -28.0062  -12.4009   18.6037 C   0  0  0  0  0  0
  -27.6719  -13.1950   19.8928 C   0  0  2  0  0  0
  -28.7095  -12.8858   20.9941 C   0  0  0  0  0  0
  -25.2615  -13.8097   20.5639 C   0  0  0  0  0  0
  -24.1853  -13.0404   20.9118 C   0  0  0  0  0  0
  -24.6381  -11.6867   20.8718 C   0  0  0  0  0  0
  -23.9039  -10.4280   21.0436 C   0  0  0  0  0  0
  -24.3612   -9.4198   21.9204 C   0  0  0  0  0  0
  -23.6276   -8.2246   22.0764 C   0  0  0  0  0  0
  -22.4263   -8.0287   21.3545 C   0  0  0  0  0  0
  -21.9908   -9.0253   20.4646 C   0  0  0  0  0  0
  -22.7236  -10.2122   20.3074 C   0  0  0  0  0  0
  -21.6843   -6.0751   22.5272 C   0  0  0  0  0  0
  -21.4041   -6.5655   23.8210 C   0  0  0  0  0  0
  -21.3642   -5.6801   24.9165 C   0  0  0  0  0  0
  -21.6031   -4.3059   24.7221 C   0  0  0  0  0  0
  -21.8825   -3.8156   23.4339 C   0  0  0  0  0  0
  -21.9203   -4.6979   22.3405 C   0  0  0  0  0  0
  -22.7885  -13.5221   21.1782 C   0  0  0  0  0  0
  -22.1678   -4.2170   21.0980 F   0  0  0  0  0  0
  -21.5602   -3.4547   25.7739 F   0  0  0  0  0  0
  -30.0463  -13.2005   20.4587 N   0  0  0  0  0  0
  -26.3069  -12.9262   20.3429 N   0  0  0  0  0  0
  -25.9307  -11.6418   20.5781 N   0  0  0  0  0  0
  -22.0547  -12.8233   22.0344 N   0  0  0  0  0  0
  -25.4320  -15.1821   20.4041 N   0  0  0  0  0  0
  -31.7850  -14.6430   20.0991 O   0  0  0  0  0  0
  -21.6629   -6.8892   21.4232 O   0  0  0  0  0  0
  -22.3576  -14.5552   20.6670 O   0  0  0  0  0  0
  -24.6097  -31.8708   23.2132 C   0  0  0  0  0  0
  -25.9008  -32.4841   23.8406 C   0  0  1  0  0  0
  -27.2301  -27.4827   20.0841 C   0  0  0  0  0  0
  -25.5871  -33.8638   24.2336 N   0  0  0  0  0  0
  -23.3944  -30.4914   21.5541 C   0  0  2  0  0  0
  -24.8402  -28.9646   20.1130 C   0  0  0  0  0  0
  -22.7388  -29.4647   22.5032 C   0  0  0  0  0  0
  -18.0263  -28.1372   22.8498 C   0  0  0  0  0  0
  -24.1478  -36.7329   23.2637 C   0  0  0  0  0  0
  -25.9176  -30.8493   21.3603 C   0  0  0  0  0  0
  -25.9955  -29.4863   20.7093 C   0  0  0  0  0  0
  -27.1958  -28.7497   20.6963 C   0  0  0  0  0  0
  -26.0654  -26.9556   19.4922 C   0  0  0  0  0  0
  -24.8682  -27.6955   19.5036 C   0  0  0  0  0  0
  -23.5987  -29.8238   20.1676 C   0  0  0  0  0  0
  -25.4098  -36.3130   24.0341 C   0  0  1  0  0  0
  -20.5844  -28.3646   23.1343 C   0  0  2  0  0  0
  -20.6743  -26.9390   22.5426 C   0  0  0  0  0  0
  -19.5731  -26.6385   21.5212 C   0  0  0  0  0  0
  -18.1911  -26.7920   22.1621 C   0  0  0  0  0  0
  -19.1511  -28.8830   23.2909 C   0  0  0  0  0  0
  -18.9440  -30.1434   23.8922 C   0  0  0  0  0  0
  -17.6441  -30.6576   24.0569 C   0  0  0  0  0  0
  -25.9021  -34.9493   23.5139 C   0  0  0  0  0  0
  -16.5334  -29.9089   23.6320 C   0  0  0  0  0  0
  -16.7256  -28.6506   23.0353 C   0  0  0  0  0  0
  -26.4462  -31.6614   25.0722 C   0  0  0  0  0  0
  -25.3739  -31.3712   26.1479 C   0  0  0  0  0  0
  -27.0287  -30.3061   24.6059 C   0  0  0  0  0  0
  -27.6031  -32.4350   25.7474 C   0  0  0  0  0  0
  -27.5578  -37.1815   24.8457 C   0  0  0  0  0  0
  -21.4123  -29.3009   22.3765 N   0  0  0  0  0  0
  -26.4300  -37.3804   23.9390 N   0  0  0  0  0  0
  -24.6575  -31.0842   22.1013 N   0  0  0  0  0  0
  -23.4190  -28.8206   23.3058 O   0  0  0  0  0  0
  -28.3922  -26.7658   20.0399 O   0  0  0  0  0  0
  -26.5601  -34.8945   22.4709 O   0  0  0  0  0  0
  -23.5302  -32.1439   23.7545 O   0  0  0  0  0  0
  -30.5642  -25.4213   23.9719 C   0  0  0  0  0  0
  -30.9075  -24.4819   24.9640 C   0  0  0  0  0  0
  -30.4449  -24.9996   22.6339 C   0  0  0  0  0  0
  -31.1514  -23.1500   24.5708 C   0  0  0  0  0  0
  -30.6706  -23.6346   22.3429 C   0  0  0  0  0  0
  -31.0147  -24.9203   26.4150 C   0  0  0  0  0  0
  -31.5627  -22.0730   25.5585 C   0  0  0  0  0  0
  -30.0749  -26.0144   21.5604 C   0  0  0  0  0  0
  -30.5556  -23.0414   20.9423 C   0  0  0  0  0  0
  -29.4493  -21.9790   20.8366 C   0  0  0  0  0  0
  -29.4651  -21.2524   19.4785 C   0  0  0  0  0  0
  -29.0955  -19.7667   19.5839 C   0  0  0  0  0  0
  -30.2050  -18.9115   20.2269 C   0  0  0  0  0  0
  -29.8775  -17.4142   20.2006 C   0  0  0  0  0  0
  -30.3405  -16.6813   21.4717 C   0  0  0  0  0  0
  -28.5923  -25.9419   21.1788 C   0  0  0  0  0  0
  -31.0373  -22.7482   23.2917 N   0  0  0  0  0  0
  -30.0393  -15.2619   21.3824 N   0  0  0  0  0  0
  -31.4646  -12.3960   19.0770 H   0  0  0  0  0  0
  -30.3370  -11.2412   19.7317 H   0  0  0  0  0  0
  -29.7043  -11.8362   17.3755 H   0  0  0  0  0  0
  -29.6644  -13.5279   17.7884 H   0  0  0  0  0  0
  -27.7894  -11.3439   18.7540 H   0  0  0  0  0  0
  -27.3589  -12.7335   17.7934 H   0  0  0  0  0  0
  -27.7424  -14.2565   19.6519 H   0  0  0  0  0  0
  -28.6720  -11.8286   21.2608 H   0  0  0  0  0  0
  -28.4648  -13.4101   21.9182 H   0  0  0  0  0  0
  -25.2775   -9.5658   22.4738 H   0  0  0  0  0  0
  -23.9987   -7.4642   22.7476 H   0  0  0  0  0  0
  -21.0833   -8.8784   19.8952 H   0  0  0  0  0  0
  -22.3723  -10.9663   19.6179 H   0  0  0  0  0  0
  -21.2091   -7.6179   23.9726 H   0  0  0  0  0  0
  -21.1424   -6.0535   25.9062 H   0  0  0  0  0  0
  -22.0623   -2.7622   23.2824 H   0  0  0  0  0  0
  -22.4208  -11.9903   22.4721 H   0  0  0  0  0  0
  -21.1182  -13.1255   22.2609 H   0  0  0  0  0  0
  -24.6639  -15.8326   20.5209 H   0  0  0  0  0  0
  -26.2931  -15.6250   20.1069 H   0  0  0  0  0  0
  -26.7088  -32.5555   23.1184 H   0  0  0  0  0  0
  -25.0011  -33.9817   25.0470 H   0  0  0  0  0  0
  -22.6814  -31.3058   21.4189 H   0  0  0  0  0  0
  -23.3748  -35.9653   23.3327 H   0  0  0  0  0  0
  -24.3582  -36.8914   22.2044 H   0  0  0  0  0  0
  -23.7234  -37.6538   23.6651 H   0  0  0  0  0  0
  -26.0251  -31.6198   20.5949 H   0  0  0  0  0  0
  -26.8073  -30.9020   21.9745 H   0  0  0  0  0  0
  -28.0935  -29.1536   21.1437 H   0  0  0  0  0  0
  -26.0876  -25.9791   19.0265 H   0  0  0  0  0  0
  -23.9791  -27.2866   19.0440 H   0  0  0  0  0  0
  -23.6951  -30.5973   19.4054 H   0  0  0  0  0  0
  -22.7249  -29.2373   19.8785 H   0  0  0  0  0  0
  -25.1285  -36.1997   25.0841 H   0  0  0  0  0  0
  -20.9932  -28.3191   24.1462 H   0  0  0  0  0  0
  -20.5647  -26.2255   23.3608 H   0  0  0  0  0  0
  -21.6620  -26.7430   22.1222 H   0  0  0  0  0  0
  -19.6888  -25.6305   21.1230 H   0  0  0  0  0  0
  -19.6669  -27.3204   20.6754 H   0  0  0  0  0  0
  -17.4182  -26.6686   21.4022 H   0  0  0  0  0  0
  -18.0294  -26.0060   22.9015 H   0  0  0  0  0  0
  -19.7917  -30.7237   24.2322 H   0  0  0  0  0  0
  -17.5001  -31.6266   24.5155 H   0  0  0  0  0  0
  -15.5343  -30.2997   23.7627 H   0  0  0  0  0  0
  -15.8662  -28.0829   22.7062 H   0  0  0  0  0  0
  -24.5878  -30.7108   25.7813 H   0  0  0  0  0  0
  -24.8990  -32.2875   26.4983 H   0  0  0  0  0  0
  -25.8089  -30.8831   27.0202 H   0  0  0  0  0  0
  -26.2807  -29.6827   24.1146 H   0  0  0  0  0  0
  -27.4105  -29.7294   25.4493 H   0  0  0  0  0  0
  -27.8635  -30.4409   23.9174 H   0  0  0  0  0  0
  -27.2621  -33.3619   26.2098 H   0  0  0  0  0  0
  -28.3796  -32.6963   25.0275 H   0  0  0  0  0  0
  -28.0755  -31.8462   26.5339 H   0  0  0  0  0  0
  -28.2609  -38.0102   24.7527 H   0  0  0  0  0  0
  -28.1080  -36.2648   24.6282 H   0  0  0  0  0  0
  -27.2325  -37.1448   25.8872 H   0  0  0  0  0  0
  -20.9289  -29.8746   21.6995 H   0  0  0  0  0  0
  -26.0201  -38.2883   24.1409 H   0  0  0  0  0  0
  -30.3942  -26.4557   24.2343 H   0  0  0  0  0  0
  -30.5730  -25.9073   26.5586 H   0  0  0  0  0  0
  -32.0589  -24.9686   26.7248 H   0  0  0  0  0  0
  -30.4859  -24.2311   27.0736 H   0  0  0  0  0  0
  -32.5055  -22.3326   26.0389 H   0  0  0  0  0  0
  -31.6966  -21.1071   25.0673 H   0  0  0  0  0  0
  -30.8074  -21.9508   26.3341 H   0  0  0  0  0  0
  -30.7028  -25.8775   20.6805 H   0  0  0  0  0  0
  -30.3072  -27.0190   21.9126 H   0  0  0  0  0  0
  -31.5207  -22.5963   20.7003 H   0  0  0  0  0  0
  -30.3875  -23.8002   20.1812 H   0  0  0  0  0  0
  -28.4691  -22.4252   21.0193 H   0  0  0  0  0  0
  -29.5866  -21.2599   21.6429 H   0  0  0  0  0  0
  -30.4485  -21.3281   19.0092 H   0  0  0  0  0  0
  -28.7798  -21.7614   18.7977 H   0  0  0  0  0  0
  -28.8768  -19.3816   18.5876 H   0  0  0  0  0  0
  -28.1746  -19.6593   20.1574 H   0  0  0  0  0  0
  -30.3520  -19.2326   21.2569 H   0  0  0  0  0  0
  -31.1625  -19.0787   19.7299 H   0  0  0  0  0  0
  -30.3381  -16.9723   19.3154 H   0  0  0  0  0  0
  -28.8029  -17.2707   20.0876 H   0  0  0  0  0  0
  -29.8048  -17.0830   22.3326 H   0  0  0  0  0  0
  -31.4051  -16.8358   21.6602 H   0  0  0  0  0  0
  -27.9730  -26.2422   22.0270 H   0  0  0  0  0  0
  -28.3038  -24.9232   20.9178 H   0  0  0  0  0  0
  -29.1718  -14.9485   21.7916 H   0  0  0  0  0  0
  1 25  1  0  0  0
  1 30  2  0  0  0
  1 88  1  0  0  0
  2  3  1  0  0  0
  2 25  1  0  0  0
  2 89  1  0  0  0
  2 90  1  0  0  0
  3  4  1  0  0  0
  3 91  1  0  0  0
  3 92  1  0  0  0
  4  5  1  0  0  0
  4 93  1  0  0  0
  4 94  1  0  0  0
  5  6  1  0  0  0
  5 26  1  0  0  0
  5 95  1  0  0  0
  6 25  1  0  0  0
  6 96  1  0  0  0
  6 97  1  0  0  0
  7  8  2  0  0  0
  7 26  1  0  0  0
  7 29  1  0  0  0
  8  9  1  0  0  0
  8 22  1  0  0  0
  9 10  1  0  0  0
  9 27  2  0  0  0
 10 11  2  0  0  0
 10 15  1  0  0  0
 11 12  1  0  0  0
 11 98  1  0  0  0
 12 13  2  0  0  0
 12 99  1  0  0  0
 13 14  1  0  0  0
 13 31  1  0  0  0
 14 15  2  0  0  0
 14100  1  0  0  0
 15101  1  0  0  0
 16 17  2  0  0  0
 16 21  1  0  0  0
 16 31  1  0  0  0
 17 18  1  0  0  0
 17102  1  0  0  0
 18 19  2  0  0  0
 18103  1  0  0  0
 19 20  1  0  0  0
 19 24  1  0  0  0
 20 21  2  0  0  0
 20104  1  0  0  0
 21 23  1  0  0  0
 22 28  1  0  0  0
 22 32  2  0  0  0
 26 27  1  0  0  0
 28105  1  0  0  0
 28106  1  0  0  0
 29107  1  0  0  0
 29108  1  0  0  0
 33 34  1  0  0  0
 33 66  1  0  0  0
 33 70  2  0  0  0
 34 36  1  0  0  0
 34 59  1  0  0  0
 34109  1  0  0  0
 35 44  2  0  0  0
 35 45  1  0  0  0
 35 68  1  0  0  0
 36 56  1  0  0  0
 36110  1  0  0  0
 37 39  1  0  0  0
 37 47  1  0  0  0
 37 66  1  0  0  0
 37111  1  0  0  0
 38 43  2  0  0  0
 38 46  1  0  0  0
 38 47  1  0  0  0
 39 64  1  0  0  0
 39 67  2  0  0  0
 40 52  1  0  0  0
 40 53  2  0  0  0
 40 58  1  0  0  0
 41112  1  0  0  0
 41113  1  0  0  0
 41114  1  0  0  0
 41 48  1  0  0  0
 42 43  1  0  0  0
 42 66  1  0  0  0
 42115  1  0  0  0
 42116  1  0  0  0
 43 44  1  0  0  0
 44117  1  0  0  0
 45 46  2  0  0  0
 45118  1  0  0  0
 46119  1  0  0  0
 47120  1  0  0  0
 47121  1  0  0  0
 48 56  1  0  0  0
 48 65  1  0  0  0
 48122  1  0  0  0
 49 50  1  0  0  0
 49 53  1  0  0  0
 49 64  1  0  0  0
 49123  1  0  0  0
 50 51  1  0  0  0
 50124  1  0  0  0
 50125  1  0  0  0
 51 52  1  0  0  0
 51126  1  0  0  0
 51127  1  0  0  0
 52128  1  0  0  0
 52129  1  0  0  0
 53 54  1  0  0  0
 54 55  2  0  0  0
 54130  1  0  0  0
 55 57  1  0  0  0
 55131  1  0  0  0
 56 69  2  0  0  0
 57 58  2  0  0  0
 57132  1  0  0  0
 58133  1  0  0  0
 59 60  1  0  0  0
 59 61  1  0  0  0
 59 62  1  0  0  0
 60134  1  0  0  0
 60135  1  0  0  0
 60136  1  0  0  0
 61137  1  0  0  0
 61138  1  0  0  0
 61139  1  0  0  0
 62140  1  0  0  0
 62141  1  0  0  0
 62142  1  0  0  0
 63 65  1  0  0  0
 63143  1  0  0  0
 63144  1  0  0  0
 63145  1  0  0  0
 64146  1  0  0  0
 65147  1  0  0  0
 68 86  1  0  0  0
 71 72  2  0  0  0
 71 73  1  0  0  0
 71148  1  0  0  0
 72 74  1  0  0  0
 72 76  1  0  0  0
 73 75  2  0  0  0
 73 78  1  0  0  0
 74 77  1  0  0  0
 74 87  2  0  0  0
 75 79  1  0  0  0
 75 87  1  0  0  0
 76149  1  0  0  0
 76150  1  0  0  0
 76151  1  0  0  0
 77152  1  0  0  0
 77153  1  0  0  0
 77154  1  0  0  0
 78 86  1  0  0  0
 78155  1  0  0  0
 78156  1  0  0  0
 79 80  1  0  0  0
 79157  1  0  0  0
 79158  1  0  0  0
 80 81  1  0  0  0
 80159  1  0  0  0
 80160  1  0  0  0
 81 82  1  0  0  0
 81161  1  0  0  0
 81162  1  0  0  0
 82 83  1  0  0  0
 82163  1  0  0  0
 82164  1  0  0  0
 83 84  1  0  0  0
 83165  1  0  0  0
 83166  1  0  0  0
 84 85  1  0  0  0
 84167  1  0  0  0
 84168  1  0  0  0
 85 88  1  0  0  0
 85169  1  0  0  0
 85170  1  0  0  0
 86171  1  0  0  0
 86172  1  0  0  0
 88173  1  0  0  0
M  ISO  4   1 100  68 101  86 101  88 100
M  END
> <chiral flag>
0

> <version>
0

> <s_m_source_file>
/data/baiqing/PycharmProjects/Reinvent-master-3.2/result/LINK_invent/BTK/process_docking_weight1_custom_sum_contain_oxygen_bond_distance_aromatic_linkinvent_7_9_3/rearranged_h_0038.sdf

> <i_m_source_file_index>
20

> <r_mmod_Potential_Energy-OPLS-2005>
-245.771682739258

> <r_mmod_Stretch_Energy-OPLS-2005>
30.0659160614014

> <r_mmod_Bend_Energy-OPLS-2005>
87.4475631713867

> <r_mmod_Torsional_Energy-OPLS-2005>
230.875457763672

> <r_mmod_Improper_Torsional_Energy-OPLS-2005>
3.02937841415405

> <r_mmod_Van_der_Waal_Energy-OPLS-2005>
157.74494934082

> <r_mmod_Electrostatic_Energy-OPLS-2005>
-544.495666503906

> <r_mmod_Solvation_Energy-OPLS-2005>
-217.431732177734

> <b_mmod_Minimization_Converged-OPLS-2005>
0

> <r_mmod_RMS_Derivative-OPLS-2005>
3.74755549430847

$$$$
20
                    3D
 Structure written by MMmdl.
159167  0  0  1  0            999 V2000
  -30.7174  -14.4358   20.6202 C   0  0  0  0  0  0
  -30.4230  -12.3041   19.4093 C   0  0  0  0  0  0
  -29.4910  -12.5131   18.1995 C   0  0  0  0  0  0
  -28.0135  -12.3690   18.6146 C   0  0  0  0  0  0
  -27.6627  -13.2031   19.8760 C   0  0  2  0  0  0
  -28.7023  -12.9631   20.9929 C   0  0  0  0  0  0
  -25.2595  -13.8155   20.5672 C   0  0  0  0  0  0
  -24.1840  -13.0442   20.9175 C   0  0  0  0  0  0
  -24.6384  -11.6905   20.8728 C   0  0  0  0  0  0
  -23.9049  -10.4293   21.0402 C   0  0  0  0  0  0
  -24.3600   -9.4213   21.9186 C   0  0  0  0  0  0
  -23.6282   -8.2246   22.0753 C   0  0  0  0  0  0
  -22.4267   -8.0276   21.3540 C   0  0  0  0  0  0
  -21.9900   -9.0250   20.4644 C   0  0  0  0  0  0
  -22.7221  -10.2133   20.3054 C   0  0  0  0  0  0
  -21.6850   -6.0736   22.5281 C   0  0  0  0  0  0
  -21.4010   -6.5639   23.8214 C   0  0  0  0  0  0
  -21.3659   -5.6792   24.9175 C   0  0  0  0  0  0
  -21.6045   -4.3054   24.7226 C   0  0  0  0  0  0
  -21.8820   -3.8147   23.4346 C   0  0  0  0  0  0
  -21.9193   -4.6965   22.3404 C   0  0  0  0  0  0
  -22.7865  -13.5251   21.1844 C   0  0  0  0  0  0
  -22.1662   -4.2150   21.0981 F   0  0  0  0  0  0
  -21.5631   -3.4540   25.7741 F   0  0  0  0  0  0
  -30.0355  -13.2728   20.4466 N   0  0  0  0  0  0
  -26.3025  -12.9314   20.3364 N   0  0  0  0  0  0
  -25.9309  -11.6475   20.5756 N   0  0  0  0  0  0
  -22.0488  -12.8243   22.0387 N   0  0  0  0  0  0
  -25.4347  -15.1867   20.4085 N   0  0  0  0  0  0
  -31.8087  -14.6616   20.0888 O   0  0  0  0  0  0
  -21.6631   -6.8875   21.4241 O   0  0  0  0  0  0
  -22.3563  -14.5563   20.6698 O   0  0  0  0  0  0
  -24.6157  -31.8678   23.2112 C   0  0  0  0  0  0
  -25.9042  -32.4830   23.8405 C   0  0  1  0  0  0
  -27.2349  -27.4473   20.0932 C   0  0  0  0  0  0
  -25.5885  -33.8625   24.2332 N   0  0  0  0  0  0
  -23.4031  -30.4921   21.5501 C   0  0  2  0  0  0
  -24.8531  -28.9601   20.1133 C   0  0  0  0  0  0
  -22.7425  -29.4649   22.4978 C   0  0  0  0  0  0
  -18.0286  -28.1373   22.8479 C   0  0  0  0  0  0
  -24.1487  -36.7305   23.2635 C   0  0  0  0  0  0
  -25.9316  -30.8371   21.3645 C   0  0  0  0  0  0
  -26.0119  -29.4721   20.7129 C   0  0  0  0  0  0
  -27.2087  -28.7193   20.7078 C   0  0  0  0  0  0
  -26.0666  -26.9462   19.4891 C   0  0  0  0  0  0
  -24.8739  -27.6934   19.5017 C   0  0  0  0  0  0
  -23.6141  -29.8247   20.1641 C   0  0  0  0  0  0
  -25.4106  -36.3113   24.0343 C   0  0  1  0  0  0
  -20.5881  -28.3648   23.1322 C   0  0  2  0  0  0
  -20.6770  -26.9376   22.5425 C   0  0  0  0  0  0
  -19.5747  -26.6370   21.5224 C   0  0  0  0  0  0
  -18.1921  -26.7922   22.1619 C   0  0  0  0  0  0
  -19.1535  -28.8827   23.2900 C   0  0  0  0  0  0
  -18.9459  -30.1433   23.8909 C   0  0  0  0  0  0
  -17.6457  -30.6573   24.0555 C   0  0  0  0  0  0
  -25.9026  -34.9483   23.5138 C   0  0  0  0  0  0
  -16.5349  -29.9069   23.6330 C   0  0  0  0  0  0
  -16.7271  -28.6500   23.0331 C   0  0  0  0  0  0
  -26.4477  -31.6601   25.0732 C   0  0  0  0  0  0
  -25.3735  -31.3699   26.1473 C   0  0  0  0  0  0
  -27.0309  -30.3055   24.6083 C   0  0  0  0  0  0
  -27.6071  -32.4303   25.7484 C   0  0  0  0  0  0
  -27.5582  -37.1799   24.8462 C   0  0  0  0  0  0
  -21.4155  -29.3021   22.3724 N   0  0  0  0  0  0
  -26.4293  -37.3785   23.9411 N   0  0  0  0  0  0
  -24.6676  -31.0788   22.1011 N   0  0  0  0  0  0
  -23.4202  -28.8175   23.3011 O   0  0  0  0  0  0
  -28.3661  -26.6673   20.0748 O   0  0  0  0  0  0
  -26.5594  -34.8943   22.4702 O   0  0  0  0  0  0
  -23.5338  -32.1421   23.7507 O   0  0  0  0  0  0
  -28.6946  -20.6222   22.4844 C   0  0  0  0  0  0
  -28.7411  -19.9171   21.2500 C   0  0  0  0  0  0
  -28.6720  -20.9200   20.3101 C   0  0  0  0  0  0
  -28.6525  -20.8315   18.8186 C   0  0  0  0  0  0
  -28.8033  -18.4037   21.1030 C   0  0  0  0  0  0
  -30.2333  -17.8623   20.8681 C   0  0  0  0  0  0
  -29.2615  -24.5905   21.1154 C   0  0  0  0  0  0
  -28.3551  -23.4962   20.4836 C   0  0  0  0  0  0
  -30.6525  -16.6672   21.7641 C   0  0  0  0  0  0
  -28.5909  -25.9723   21.3029 C   0  0  0  0  0  0
  -28.5846  -21.9305   22.3272 N   0  0  0  0  0  0
  -28.5829  -22.1338   20.9904 N   0  0  0  0  0  0
  -30.0980  -15.3662   21.3673 N   0  0  0  0  0  0
  -31.4663  -12.4093   19.1060 H   0  0  0  0  0  0
  -30.3294  -11.2878   19.7948 H   0  0  0  0  0  0
  -29.7289  -11.7970   17.4122 H   0  0  0  0  0  0
  -29.6575  -13.5038   17.7736 H   0  0  0  0  0  0
  -27.8262  -11.3118   18.8075 H   0  0  0  0  0  0
  -27.3608  -12.6453   17.7862 H   0  0  0  0  0  0
  -27.7146  -14.2539   19.5898 H   0  0  0  0  0  0
  -28.6776  -11.9202   21.3120 H   0  0  0  0  0  0
  -28.4562  -13.5402   21.8844 H   0  0  0  0  0  0
  -25.2743   -9.5699   22.4760 H   0  0  0  0  0  0
  -23.9998   -7.4640   22.7470 H   0  0  0  0  0  0
  -21.0834   -8.8760   19.8947 H   0  0  0  0  0  0
  -22.3674  -10.9669   19.6160 H   0  0  0  0  0  0
  -21.1993   -7.6145   23.9719 H   0  0  0  0  0  0
  -21.1482   -6.0519   25.9078 H   0  0  0  0  0  0
  -22.0598   -2.7607   23.2847 H   0  0  0  0  0  0
  -22.4074  -11.9895   22.4780 H   0  0  0  0  0  0
  -21.1105  -13.1276   22.2571 H   0  0  0  0  0  0
  -24.6733  -15.8477   20.5163 H   0  0  0  0  0  0
  -26.2930  -15.6190   20.0908 H   0  0  0  0  0  0
  -26.7122  -32.5581   23.1175 H   0  0  0  0  0  0
  -25.0073  -33.9776   25.0506 H   0  0  0  0  0  0
  -22.6929  -31.3101   21.4120 H   0  0  0  0  0  0
  -23.3755  -35.9625   23.3305 H   0  0  0  0  0  0
  -24.3583  -36.8912   22.2046 H   0  0  0  0  0  0
  -23.7251  -37.6516   23.6641 H   0  0  0  0  0  0
  -26.0441  -31.6018   20.5950 H   0  0  0  0  0  0
  -26.8199  -30.8933   21.9814 H   0  0  0  0  0  0
  -28.1063  -29.1042   21.1728 H   0  0  0  0  0  0
  -26.0793  -25.9728   19.0208 H   0  0  0  0  0  0
  -23.9826  -27.2909   19.0410 H   0  0  0  0  0  0
  -23.7219  -30.6001   19.4056 H   0  0  0  0  0  0
  -22.7401  -29.2435   19.8659 H   0  0  0  0  0  0
  -25.1279  -36.1974   25.0834 H   0  0  0  0  0  0
  -20.9977  -28.3207   24.1442 H   0  0  0  0  0  0
  -20.5694  -26.2233   23.3602 H   0  0  0  0  0  0
  -21.6631  -26.7416   22.1190 H   0  0  0  0  0  0
  -19.6897  -25.6298   21.1208 H   0  0  0  0  0  0
  -19.6695  -27.3219   20.6791 H   0  0  0  0  0  0
  -17.4193  -26.6697   21.4014 H   0  0  0  0  0  0
  -18.0289  -26.0076   22.9023 H   0  0  0  0  0  0
  -19.7938  -30.7250   24.2264 H   0  0  0  0  0  0
  -17.5012  -31.6253   24.5151 H   0  0  0  0  0  0
  -15.5342  -30.2953   23.7657 H   0  0  0  0  0  0
  -15.8684  -28.0819   22.7009 H   0  0  0  0  0  0
  -24.5921  -30.7039   25.7797 H   0  0  0  0  0  0
  -24.8906  -32.2848   26.4915 H   0  0  0  0  0  0
  -25.8076  -30.8862   27.0237 H   0  0  0  0  0  0
  -26.2842  -29.6826   24.1142 H   0  0  0  0  0  0
  -27.4123  -29.7289   25.4522 H   0  0  0  0  0  0
  -27.8653  -30.4403   23.9199 H   0  0  0  0  0  0
  -27.2708  -33.3598   26.2089 H   0  0  0  0  0  0
  -28.3852  -32.6865   25.0282 H   0  0  0  0  0  0
  -28.0762  -31.8412   26.5374 H   0  0  0  0  0  0
  -28.2580  -38.0111   24.7535 H   0  0  0  0  0  0
  -28.1095  -36.2656   24.6237 H   0  0  0  0  0  0
  -27.2302  -37.1391   25.8860 H   0  0  0  0  0  0
  -20.9314  -29.8753   21.6956 H   0  0  0  0  0  0
  -26.0189  -38.2853   24.1453 H   0  0  0  0  0  0
  -28.7083  -20.2161   23.4863 H   0  0  0  0  0  0
  -28.5839  -19.7959   18.4868 H   0  0  0  0  0  0
  -29.5595  -21.2597   18.3927 H   0  0  0  0  0  0
  -27.7974  -21.3632   18.4024 H   0  0  0  0  0  0
  -28.1476  -18.0542   20.3041 H   0  0  0  0  0  0
  -28.3960  -17.9418   22.0033 H   0  0  0  0  0  0
  -30.9372  -18.6672   21.0792 H   0  0  0  0  0  0
  -30.3829  -17.6291   19.8123 H   0  0  0  0  0  0
  -30.1833  -24.6906   20.5429 H   0  0  0  0  0  0
  -29.5780  -24.2737   22.1084 H   0  0  0  0  0  0
  -28.4729  -23.5070   19.3997 H   0  0  0  0  0  0
  -27.3076  -23.7352   20.6714 H   0  0  0  0  0  0
  -30.3652  -16.8663   22.7973 H   0  0  0  0  0  0
  -31.7418  -16.6038   21.7806 H   0  0  0  0  0  0
  -29.2355  -26.6004   21.9190 H   0  0  0  0  0  0
  -27.6671  -25.8419   21.8719 H   0  0  0  0  0  0
  -29.2055  -15.1025   21.7587 H   0  0  0  0  0  0
  1 25  1  0  0  0
  1 30  2  0  0  0
  1 83  1  0  0  0
  2  3  1  0  0  0
  2 25  1  0  0  0
  2 84  1  0  0  0
  2 85  1  0  0  0
  3  4  1  0  0  0
  3 86  1  0  0  0
  3 87  1  0  0  0
  4  5  1  0  0  0
  4 88  1  0  0  0
  4 89  1  0  0  0
  5  6  1  0  0  0
  5 26  1  0  0  0
  5 90  1  0  0  0
  6 25  1  0  0  0
  6 91  1  0  0  0
  6 92  1  0  0  0
  7  8  2  0  0  0
  7 26  1  0  0  0
  7 29  1  0  0  0
  8  9  1  0  0  0
  8 22  1  0  0  0
  9 10  1  0  0  0
  9 27  2  0  0  0
 10 11  2  0  0  0
 10 15  1  0  0  0
 11 12  1  0  0  0
 11 93  1  0  0  0
 12 13  2  0  0  0
 12 94  1  0  0  0
 13 14  1  0  0  0
 13 31  1  0  0  0
 14 15  2  0  0  0
 14 95  1  0  0  0
 15 96  1  0  0  0
 16 17  2  0  0  0
 16 21  1  0  0  0
 16 31  1  0  0  0
 17 18  1  0  0  0
 17 97  1  0  0  0
 18 19  2  0  0  0
 18 98  1  0  0  0
 19 20  1  0  0  0
 19 24  1  0  0  0
 20 21  2  0  0  0
 20 99  1  0  0  0
 21 23  1  0  0  0
 22 28  1  0  0  0
 22 32  2  0  0  0
 26 27  1  0  0  0
 28100  1  0  0  0
 28101  1  0  0  0
 29102  1  0  0  0
 29103  1  0  0  0
 33 34  1  0  0  0
 33 66  1  0  0  0
 33 70  2  0  0  0
 34 36  1  0  0  0
 34 59  1  0  0  0
 34104  1  0  0  0
 35 44  2  0  0  0
 35 45  1  0  0  0
 35 68  1  0  0  0
 36 56  1  0  0  0
 36105  1  0  0  0
 37 39  1  0  0  0
 37 47  1  0  0  0
 37 66  1  0  0  0
 37106  1  0  0  0
 38 43  2  0  0  0
 38 46  1  0  0  0
 38 47  1  0  0  0
 39 64  1  0  0  0
 39 67  2  0  0  0
 40 52  1  0  0  0
 40 53  2  0  0  0
 40 58  1  0  0  0
 41107  1  0  0  0
 41108  1  0  0  0
 41109  1  0  0  0
 41 48  1  0  0  0
 42 43  1  0  0  0
 42 66  1  0  0  0
 42110  1  0  0  0
 42111  1  0  0  0
 43 44  1  0  0  0
 44112  1  0  0  0
 45 46  2  0  0  0
 45113  1  0  0  0
 46114  1  0  0  0
 47115  1  0  0  0
 47116  1  0  0  0
 48 56  1  0  0  0
 48 65  1  0  0  0
 48117  1  0  0  0
 49 50  1  0  0  0
 49 53  1  0  0  0
 49 64  1  0  0  0
 49118  1  0  0  0
 50 51  1  0  0  0
 50119  1  0  0  0
 50120  1  0  0  0
 51 52  1  0  0  0
 51121  1  0  0  0
 51122  1  0  0  0
 52123  1  0  0  0
 52124  1  0  0  0
 53 54  1  0  0  0
 54 55  2  0  0  0
 54125  1  0  0  0
 55 57  1  0  0  0
 55126  1  0  0  0
 56 69  2  0  0  0
 57 58  2  0  0  0
 57127  1  0  0  0
 58128  1  0  0  0
 59 60  1  0  0  0
 59 61  1  0  0  0
 59 62  1  0  0  0
 60129  1  0  0  0
 60130  1  0  0  0
 60131  1  0  0  0
 61132  1  0  0  0
 61133  1  0  0  0
 61134  1  0  0  0
 62135  1  0  0  0
 62136  1  0  0  0
 62137  1  0  0  0
 63 65  1  0  0  0
 63138  1  0  0  0
 63139  1  0  0  0
 63140  1  0  0  0
 64141  1  0  0  0
 65142  1  0  0  0
 68 80  1  0  0  0
 71 72  1  0  0  0
 71 81  2  0  0  0
 71143  1  0  0  0
 72 73  2  0  0  0
 72 75  1  0  0  0
 73 74  1  0  0  0
 73 82  1  0  0  0
 74144  1  0  0  0
 74145  1  0  0  0
 74146  1  0  0  0
 75 76  1  0  0  0
 75147  1  0  0  0
 75148  1  0  0  0
 76 79  1  0  0  0
 76149  1  0  0  0
 76150  1  0  0  0
 77 78  1  0  0  0
 77 80  1  0  0  0
 77151  1  0  0  0
 77152  1  0  0  0
 78 82  1  0  0  0
 78153  1  0  0  0
 78154  1  0  0  0
 79 83  1  0  0  0
 79155  1  0  0  0
 79156  1  0  0  0
 80157  1  0  0  0
 80158  1  0  0  0
 81 82  1  0  0  0
 83159  1  0  0  0
M  ISO  4   1 100  68 101  80 101  83 100
M  END
> <chiral flag>
0

> <version>
0

> <s_m_source_file>
/data/baiqing/PycharmProjects/Reinvent-master-3.2/result/LINK_invent/BTK/process_docking_weight1_custom_sum_contain_oxygen_bond_distance_aromatic_linkinvent_7_9_3/rearranged_h_0038.sdf

> <i_m_source_file_index>
21

> <r_mmod_Potential_Energy-OPLS-2005>
-101.123550415039

> <r_mmod_Stretch_Energy-OPLS-2005>
34.4721031188965

> <r_mmod_Bend_Energy-OPLS-2005>
93.4157104492188

> <r_mmod_Torsional_Energy-OPLS-2005>
250.651580810547

> <r_mmod_Improper_Torsional_Energy-OPLS-2005>
2.52611660957336

> <r_mmod_Van_der_Waal_Energy-OPLS-2005>
123.291229248047

> <r_mmod_Electrostatic_Energy-OPLS-2005>
-395.893524169922

> <r_mmod_Solvation_Energy-OPLS-2005>
-219.205001831055

> <b_mmod_Minimization_Converged-OPLS-2005>
0

> <r_mmod_RMS_Derivative-OPLS-2005>
1.79456841945648

$$$$
21
                    3D
 Structure written by MMmdl.
166174  0  0  1  0            999 V2000
  -30.7614  -14.3698   20.6690 C   0  0  0  0  0  0
  -30.4137  -12.2811   19.3955 C   0  0  0  0  0  0
  -29.4838  -12.5210   18.1922 C   0  0  0  0  0  0
  -28.0078  -12.3797   18.6103 C   0  0  0  0  0  0
  -27.6675  -13.2035   19.8807 C   0  0  2  0  0  0
  -28.7091  -12.9548   20.9953 C   0  0  0  0  0  0
  -25.2614  -13.8161   20.5686 C   0  0  0  0  0  0
  -24.1853  -13.0441   20.9166 C   0  0  0  0  0  0
  -24.6400  -11.6905   20.8728 C   0  0  0  0  0  0
  -23.9061  -10.4293   21.0400 C   0  0  0  0  0  0
  -24.3613   -9.4210   21.9179 C   0  0  0  0  0  0
  -23.6288   -8.2246   22.0753 C   0  0  0  0  0  0
  -22.4271   -8.0283   21.3544 C   0  0  0  0  0  0
  -21.9905   -9.0256   20.4646 C   0  0  0  0  0  0
  -22.7233  -10.2135   20.3051 C   0  0  0  0  0  0
  -21.6851   -6.0736   22.5279 C   0  0  0  0  0  0
  -21.4014   -6.5640   23.8213 C   0  0  0  0  0  0
  -21.3660   -5.6793   24.9175 C   0  0  0  0  0  0
  -21.6044   -4.3056   24.7227 C   0  0  0  0  0  0
  -21.8818   -3.8147   23.4347 C   0  0  0  0  0  0
  -21.9193   -4.6963   22.3403 C   0  0  0  0  0  0
  -22.7875  -13.5242   21.1832 C   0  0  0  0  0  0
  -22.1660   -4.2149   21.0980 F   0  0  0  0  0  0
  -21.5630   -3.4538   25.7739 F   0  0  0  0  0  0
  -30.0463  -13.2368   20.4493 N   0  0  0  0  0  0
  -26.3058  -12.9328   20.3401 N   0  0  0  0  0  0
  -25.9328  -11.6486   20.5769 N   0  0  0  0  0  0
  -22.0511  -12.8239   22.0391 N   0  0  0  0  0  0
  -25.4351  -15.1877   20.4099 N   0  0  0  0  0  0
  -31.8103  -14.6095   20.0613 O   0  0  0  0  0  0
  -21.6636   -6.8878   21.4241 O   0  0  0  0  0  0
  -22.3561  -14.5551   20.6684 O   0  0  0  0  0  0
  -24.6112  -31.8703   23.2130 C   0  0  0  0  0  0
  -25.9021  -32.4833   23.8410 C   0  0  1  0  0  0
  -27.2330  -27.4705   20.0874 C   0  0  0  0  0  0
  -25.5885  -33.8631   24.2338 N   0  0  0  0  0  0
  -23.3966  -30.4948   21.5533 C   0  0  2  0  0  0
  -24.8423  -28.9664   20.1136 C   0  0  0  0  0  0
  -22.7392  -29.4667   22.5010 C   0  0  0  0  0  0
  -18.0267  -28.1367   22.8494 C   0  0  0  0  0  0
  -24.1486  -36.7324   23.2638 C   0  0  0  0  0  0
  -25.9218  -30.8478   21.3599 C   0  0  0  0  0  0
  -26.0010  -29.4863   20.7045 C   0  0  0  0  0  0
  -27.2019  -28.7467   20.6852 C   0  0  0  0  0  0
  -26.0609  -26.9579   19.4889 C   0  0  0  0  0  0
  -24.8656  -27.7003   19.5029 C   0  0  0  0  0  0
  -23.6020  -29.8280   20.1668 C   0  0  0  0  0  0
  -25.4105  -36.3121   24.0338 C   0  0  1  0  0  0
  -20.5856  -28.3651   23.1332 C   0  0  2  0  0  0
  -20.6759  -26.9390   22.5421 C   0  0  0  0  0  0
  -19.5742  -26.6381   21.5211 C   0  0  0  0  0  0
  -18.1918  -26.7916   22.1620 C   0  0  0  0  0  0
  -19.1516  -28.8822   23.2913 C   0  0  0  0  0  0
  -18.9448  -30.1430   23.8922 C   0  0  0  0  0  0
  -17.6454  -30.6581   24.0560 C   0  0  0  0  0  0
  -25.9027  -34.9483   23.5136 C   0  0  0  0  0  0
  -16.5343  -29.9083   23.6320 C   0  0  0  0  0  0
  -16.7258  -28.6495   23.0348 C   0  0  0  0  0  0
  -26.4466  -31.6595   25.0719 C   0  0  0  0  0  0
  -25.3742  -31.3695   26.1477 C   0  0  0  0  0  0
  -27.0281  -30.3037   24.6063 C   0  0  0  0  0  0
  -27.6049  -32.4307   25.7481 C   0  0  0  0  0  0
  -27.5584  -37.1815   24.8463 C   0  0  0  0  0  0
  -21.4124  -29.3025   22.3745 N   0  0  0  0  0  0
  -26.4296  -37.3801   23.9408 N   0  0  0  0  0  0
  -24.6613  -31.0839   22.1010 N   0  0  0  0  0  0
  -23.4182  -28.8211   23.3038 O   0  0  0  0  0  0
  -28.4000  -26.7453   20.1066 O   0  0  0  0  0  0
  -26.5593  -34.8930   22.4701 O   0  0  0  0  0  0
  -23.5315  -32.1444   23.7545 O   0  0  0  0  0  0
  -30.8175  -23.6936   22.7767 C   0  0  0  0  0  0
  -30.0697  -24.6601   23.5027 C   0  0  0  0  0  0
  -31.1045  -22.7195   23.6915 C   0  0  0  0  0  0
  -30.6013  -22.4869   26.1943 C   0  0  0  0  0  0
  -29.3904  -25.8966   22.9809 C   0  0  0  0  0  0
  -31.8101  -21.4140   23.5020 C   0  0  0  0  0  0
  -30.2470  -15.4103   21.6806 C   0  0  0  0  0  0
  -28.0983  -25.5430   22.2240 C   0  0  0  0  0  0
  -30.8361  -20.2445   23.2788 C   0  0  0  0  0  0
  -31.1906  -16.6226   21.8529 C   0  0  0  0  0  0
  -31.5351  -18.9596   22.8125 C   0  0  0  0  0  0
  -30.5557  -17.7897   22.6227 C   0  0  0  0  0  0
  -28.2947  -25.4463   20.6965 C   0  0  0  0  0  0
  -29.9254  -24.3171   24.7741 N   0  0  0  0  0  0
  -30.5665  -23.1348   24.8967 N   0  0  0  0  0  0
  -31.4583  -12.3680   19.0919 H   0  0  0  0  0  0
  -30.2998  -11.2616   19.7671 H   0  0  0  0  0  0
  -29.7145  -11.8174   17.3911 H   0  0  0  0  0  0
  -29.6581  -13.5181   17.7852 H   0  0  0  0  0  0
  -27.8131  -11.3220   18.7911 H   0  0  0  0  0  0
  -27.3544  -12.6716   17.7875 H   0  0  0  0  0  0
  -27.7241  -14.2566   19.6046 H   0  0  0  0  0  0
  -28.6684  -11.9154   21.3248 H   0  0  0  0  0  0
  -28.4686  -13.5472   21.8770 H   0  0  0  0  0  0
  -25.2758   -9.5687   22.4751 H   0  0  0  0  0  0
  -23.9998   -7.4639   22.7473 H   0  0  0  0  0  0
  -21.0836   -8.8773   19.8952 H   0  0  0  0  0  0
  -22.3691  -10.9672   19.6158 H   0  0  0  0  0  0
  -21.2004   -7.6148   23.9717 H   0  0  0  0  0  0
  -21.1483   -6.0523   25.9080 H   0  0  0  0  0  0
  -22.0598   -2.7609   23.2847 H   0  0  0  0  0  0
  -22.4119  -11.9895   22.4776 H   0  0  0  0  0  0
  -21.1131  -13.1273   22.2595 H   0  0  0  0  0  0
  -24.6741  -15.8488   20.5221 H   0  0  0  0  0  0
  -26.2989  -15.6250   20.1129 H   0  0  0  0  0  0
  -26.7093  -32.5557   23.1179 H   0  0  0  0  0  0
  -25.0028  -33.9797   25.0478 H   0  0  0  0  0  0
  -22.6830  -31.3101   21.4175 H   0  0  0  0  0  0
  -23.3740  -35.9665   23.3312 H   0  0  0  0  0  0
  -24.3585  -36.8927   22.2051 H   0  0  0  0  0  0
  -23.7247  -37.6536   23.6644 H   0  0  0  0  0  0
  -26.0297  -31.6179   20.5948 H   0  0  0  0  0  0
  -26.8109  -30.8986   21.9764 H   0  0  0  0  0  0
  -28.0979  -29.1423   21.1430 H   0  0  0  0  0  0
  -26.0651  -25.9929   19.0030 H   0  0  0  0  0  0
  -23.9755  -27.2956   19.0408 H   0  0  0  0  0  0
  -23.7057  -30.6039   19.4075 H   0  0  0  0  0  0
  -22.7268  -29.2451   19.8742 H   0  0  0  0  0  0
  -25.1281  -36.1994   25.0830 H   0  0  0  0  0  0
  -20.9947  -28.3211   24.1453 H   0  0  0  0  0  0
  -20.5655  -26.2255   23.3603 H   0  0  0  0  0  0
  -21.6635  -26.7437   22.1219 H   0  0  0  0  0  0
  -19.6905  -25.6298   21.1226 H   0  0  0  0  0  0
  -19.6686  -27.3203   20.6751 H   0  0  0  0  0  0
  -17.4190  -26.6670   21.4018 H   0  0  0  0  0  0
  -18.0318  -26.0047   22.9006 H   0  0  0  0  0  0
  -19.7925  -30.7232   24.2313 H   0  0  0  0  0  0
  -17.5011  -31.6266   24.5154 H   0  0  0  0  0  0
  -15.5344  -30.2996   23.7627 H   0  0  0  0  0  0
  -15.8657  -28.0821   22.7059 H   0  0  0  0  0  0
  -24.5913  -30.7042   25.7819 H   0  0  0  0  0  0
  -24.8936  -32.2847   26.4941 H   0  0  0  0  0  0
  -25.8107  -30.8857   27.0222 H   0  0  0  0  0  0
  -26.2809  -29.6818   24.1113 H   0  0  0  0  0  0
  -27.4055  -29.7253   25.4505 H   0  0  0  0  0  0
  -27.8648  -30.4357   23.9198 H   0  0  0  0  0  0
  -27.2668  -33.3584   26.2113 H   0  0  0  0  0  0
  -28.3834  -32.6903   25.0293 H   0  0  0  0  0  0
  -28.0743  -31.8392   26.5353 H   0  0  0  0  0  0
  -28.2609  -38.0106   24.7508 H   0  0  0  0  0  0
  -28.1073  -36.2640   24.6287 H   0  0  0  0  0  0
  -27.2306  -37.1469   25.8867 H   0  0  0  0  0  0
  -20.9275  -29.8751   21.6980 H   0  0  0  0  0  0
  -26.0189  -38.2881   24.1403 H   0  0  0  0  0  0
  -31.0715  -23.6950   21.7258 H   0  0  0  0  0  0
  -30.6154  -21.4038   26.0802 H   0  0  0  0  0  0
  -29.7225  -22.7593   26.7803 H   0  0  0  0  0  0
  -31.4973  -22.7954   26.7335 H   0  0  0  0  0  0
  -30.0656  -26.4699   22.3442 H   0  0  0  0  0  0
  -29.1426  -26.5582   23.8122 H   0  0  0  0  0  0
  -32.4545  -21.2076   24.3573 H   0  0  0  0  0  0
  -32.4768  -21.4997   22.6433 H   0  0  0  0  0  0
  -29.2710  -15.7554   21.3375 H   0  0  0  0  0  0
  -30.0991  -14.9300   22.6482 H   0  0  0  0  0  0
  -27.3346  -26.2869   22.4500 H   0  0  0  0  0  0
  -27.6946  -24.6048   22.6076 H   0  0  0  0  0  0
  -30.1066  -20.5352   22.5212 H   0  0  0  0  0  0
  -30.2679  -20.0543   24.1895 H   0  0  0  0  0  0
  -31.4996  -16.9939   20.8741 H   0  0  0  0  0  0
  -32.1026  -16.2999   22.3578 H   0  0  0  0  0  0
  -32.3095  -18.6749   23.5266 H   0  0  0  0  0  0
  -32.0476  -19.1637   21.8710 H   0  0  0  0  0  0
  -30.1973  -17.4497   23.5954 H   0  0  0  0  0  0
  -29.6778  -18.1346   22.0743 H   0  0  0  0  0  0
  -27.4863  -24.8664   20.2522 H   0  0  0  0  0  0
  -29.2044  -24.8890   20.4721 H   0  0  0  0  0  0
  1 25  1  0  0  0
  1 30  2  0  0  0
  1 77  1  0  0  0
  2  3  1  0  0  0
  2 25  1  0  0  0
  2 86  1  0  0  0
  2 87  1  0  0  0
  3  4  1  0  0  0
  3 88  1  0  0  0
  3 89  1  0  0  0
  4  5  1  0  0  0
  4 90  1  0  0  0
  4 91  1  0  0  0
  5  6  1  0  0  0
  5 26  1  0  0  0
  5 92  1  0  0  0
  6 25  1  0  0  0
  6 93  1  0  0  0
  6 94  1  0  0  0
  7  8  2  0  0  0
  7 26  1  0  0  0
  7 29  1  0  0  0
  8  9  1  0  0  0
  8 22  1  0  0  0
  9 10  1  0  0  0
  9 27  2  0  0  0
 10 11  2  0  0  0
 10 15  1  0  0  0
 11 12  1  0  0  0
 11 95  1  0  0  0
 12 13  2  0  0  0
 12 96  1  0  0  0
 13 14  1  0  0  0
 13 31  1  0  0  0
 14 15  2  0  0  0
 14 97  1  0  0  0
 15 98  1  0  0  0
 16 17  2  0  0  0
 16 21  1  0  0  0
 16 31  1  0  0  0
 17 18  1  0  0  0
 17 99  1  0  0  0
 18 19  2  0  0  0
 18100  1  0  0  0
 19 20  1  0  0  0
 19 24  1  0  0  0
 20 21  2  0  0  0
 20101  1  0  0  0
 21 23  1  0  0  0
 22 28  1  0  0  0
 22 32  2  0  0  0
 26 27  1  0  0  0
 28102  1  0  0  0
 28103  1  0  0  0
 29104  1  0  0  0
 29105  1  0  0  0
 33 34  1  0  0  0
 33 66  1  0  0  0
 33 70  2  0  0  0
 34 36  1  0  0  0
 34 59  1  0  0  0
 34106  1  0  0  0
 35 44  2  0  0  0
 35 45  1  0  0  0
 35 68  1  0  0  0
 36 56  1  0  0  0
 36107  1  0  0  0
 37 39  1  0  0  0
 37 47  1  0  0  0
 37 66  1  0  0  0
 37108  1  0  0  0
 38 43  2  0  0  0
 38 46  1  0  0  0
 38 47  1  0  0  0
 39 64  1  0  0  0
 39 67  2  0  0  0
 40 52  1  0  0  0
 40 53  2  0  0  0
 40 58  1  0  0  0
 41109  1  0  0  0
 41110  1  0  0  0
 41111  1  0  0  0
 41 48  1  0  0  0
 42 43  1  0  0  0
 42 66  1  0  0  0
 42112  1  0  0  0
 42113  1  0  0  0
 43 44  1  0  0  0
 44114  1  0  0  0
 45 46  2  0  0  0
 45115  1  0  0  0
 46116  1  0  0  0
 47117  1  0  0  0
 47118  1  0  0  0
 48 56  1  0  0  0
 48 65  1  0  0  0
 48119  1  0  0  0
 49 50  1  0  0  0
 49 53  1  0  0  0
 49 64  1  0  0  0
 49120  1  0  0  0
 50 51  1  0  0  0
 50121  1  0  0  0
 50122  1  0  0  0
 51 52  1  0  0  0
 51123  1  0  0  0
 51124  1  0  0  0
 52125  1  0  0  0
 52126  1  0  0  0
 53 54  1  0  0  0
 54 55  2  0  0  0
 54127  1  0  0  0
 55 57  1  0  0  0
 55128  1  0  0  0
 56 69  2  0  0  0
 57 58  2  0  0  0
 57129  1  0  0  0
 58130  1  0  0  0
 59 60  1  0  0  0
 59 61  1  0  0  0
 59 62  1  0  0  0
 60131  1  0  0  0
 60132  1  0  0  0
 60133  1  0  0  0
 61134  1  0  0  0
 61135  1  0  0  0
 61136  1  0  0  0
 62137  1  0  0  0
 62138  1  0  0  0
 62139  1  0  0  0
 63 65  1  0  0  0
 63140  1  0  0  0
 63141  1  0  0  0
 63142  1  0  0  0
 64143  1  0  0  0
 65144  1  0  0  0
 68 83  1  0  0  0
 71 72  1  0  0  0
 71 73  2  0  0  0
 71145  1  0  0  0
 72 75  1  0  0  0
 72 84  2  0  0  0
 73 76  1  0  0  0
 73 85  1  0  0  0
 74 85  1  0  0  0
 74146  1  0  0  0
 74147  1  0  0  0
 74148  1  0  0  0
 75 78  1  0  0  0
 75149  1  0  0  0
 75150  1  0  0  0
 76 79  1  0  0  0
 76151  1  0  0  0
 76152  1  0  0  0
 77 80  1  0  0  0
 77153  1  0  0  0
 77154  1  0  0  0
 78 83  1  0  0  0
 78155  1  0  0  0
 78156  1  0  0  0
 79 81  1  0  0  0
 79157  1  0  0  0
 79158  1  0  0  0
 80 82  1  0  0  0
 80159  1  0  0  0
 80160  1  0  0  0
 81 82  1  0  0  0
 81161  1  0  0  0
 81162  1  0  0  0
 82163  1  0  0  0
 82164  1  0  0  0
 83165  1  0  0  0
 83166  1  0  0  0
 84 85  1  0  0  0
M  ISO  4   1 100  68 101  77 100  83 101
M  END
> <chiral flag>
0

> <version>
0

> <s_m_source_file>
/data/baiqing/PycharmProjects/Reinvent-master-3.2/result/LINK_invent/BTK/process_docking_weight1_custom_sum_contain_oxygen_bond_distance_aromatic_linkinvent_7_9_3/rearranged_h_0038.sdf

> <i_m_source_file_index>
22

> <r_mmod_Potential_Energy-OPLS-2005>
-129.060256958008

> <r_mmod_Stretch_Energy-OPLS-2005>
30.2769927978516

> <r_mmod_Bend_Energy-OPLS-2005>
84.2300033569336

> <r_mmod_Torsional_Energy-OPLS-2005>
189.619857788086

> <r_mmod_Improper_Torsional_Energy-OPLS-2005>
1.8707869052887

> <r_mmod_Van_der_Waal_Energy-OPLS-2005>
127.767402648926

> <r_mmod_Electrostatic_Energy-OPLS-2005>
-368.869689941406

> <r_mmod_Solvation_Energy-OPLS-2005>
-201.63557434082

> <b_mmod_Minimization_Converged-OPLS-2005>
0

> <r_mmod_RMS_Derivative-OPLS-2005>
0.547431409358978

$$$$
22
                    3D
 Structure written by MMmdl.
165173  0  0  1  0            999 V2000
  -30.6892  -14.4405   20.5783 C   0  0  0  0  0  0
  -30.4254  -12.2860   19.4195 C   0  0  0  0  0  0
  -29.4954  -12.5042   18.2070 C   0  0  0  0  0  0
  -28.0144  -12.3701   18.6159 C   0  0  0  0  0  0
  -27.6651  -13.1982   19.8813 C   0  0  2  0  0  0
  -28.7042  -12.9487   20.9996 C   0  0  0  0  0  0
  -25.2598  -13.8140   20.5667 C   0  0  0  0  0  0
  -24.1836  -13.0430   20.9162 C   0  0  0  0  0  0
  -24.6378  -11.6893   20.8721 C   0  0  0  0  0  0
  -23.9039  -10.4285   21.0393 C   0  0  0  0  0  0
  -24.3597   -9.4207   21.9174 C   0  0  0  0  0  0
  -23.6278   -8.2238   22.0748 C   0  0  0  0  0  0
  -22.4264   -8.0272   21.3537 C   0  0  0  0  0  0
  -21.9893   -9.0242   20.4641 C   0  0  0  0  0  0
  -22.7210  -10.2123   20.3046 C   0  0  0  0  0  0
  -21.6854   -6.0725   22.5274 C   0  0  0  0  0  0
  -21.4014   -6.5632   23.8207 C   0  0  0  0  0  0
  -21.3657   -5.6788   24.9171 C   0  0  0  0  0  0
  -21.6046   -4.3049   24.7226 C   0  0  0  0  0  0
  -21.8821   -3.8139   23.4349 C   0  0  0  0  0  0
  -21.9191   -4.6953   22.3401 C   0  0  0  0  0  0
  -22.7862  -13.5239   21.1832 C   0  0  0  0  0  0
  -22.1661   -4.2135   21.0979 F   0  0  0  0  0  0
  -21.5630   -3.4536   25.7741 F   0  0  0  0  0  0
  -30.0409  -13.2527   20.4581 N   0  0  0  0  0  0
  -26.3033  -12.9295   20.3379 N   0  0  0  0  0  0
  -25.9302  -11.6462   20.5760 N   0  0  0  0  0  0
  -22.0506  -12.8234   22.0393 N   0  0  0  0  0  0
  -25.4345  -15.1857   20.4077 N   0  0  0  0  0  0
  -31.8021  -14.6582   20.0901 O   0  0  0  0  0  0
  -21.6636   -6.8864   21.4236 O   0  0  0  0  0  0
  -22.3547  -14.5542   20.6676 O   0  0  0  0  0  0
  -24.6107  -31.8691   23.2134 C   0  0  0  0  0  0
  -25.9010  -32.4832   23.8415 C   0  0  1  0  0  0
  -27.2566  -27.4678   20.1066 C   0  0  0  0  0  0
  -25.5868  -33.8629   24.2348 N   0  0  0  0  0  0
  -23.3982  -30.4913   21.5504 C   0  0  2  0  0  0
  -24.8511  -28.9591   20.1194 C   0  0  0  0  0  0
  -22.7394  -29.4656   22.5000 C   0  0  0  0  0  0
  -18.0269  -28.1391   22.8502 C   0  0  0  0  0  0
  -24.1482  -36.7327   23.2635 C   0  0  0  0  0  0
  -25.9214  -30.8467   21.3612 C   0  0  0  0  0  0
  -26.0032  -29.4795   20.7203 C   0  0  0  0  0  0
  -27.2057  -28.7418   20.7217 C   0  0  0  0  0  0
  -26.0887  -26.9610   19.4998 C   0  0  0  0  0  0
  -24.8851  -27.6932   19.5087 C   0  0  0  0  0  0
  -23.6091  -29.8197   20.1654 C   0  0  0  0  0  0
  -25.4098  -36.3119   24.0343 C   0  0  1  0  0  0
  -20.5858  -28.3653   23.1338 C   0  0  2  0  0  0
  -20.6764  -26.9394   22.5427 C   0  0  0  0  0  0
  -19.5741  -26.6394   21.5225 C   0  0  0  0  0  0
  -18.1914  -26.7941   22.1628 C   0  0  0  0  0  0
  -19.1521  -28.8841   23.2916 C   0  0  0  0  0  0
  -18.9449  -30.1456   23.8911 C   0  0  0  0  0  0
  -17.6453  -30.6594   24.0577 C   0  0  0  0  0  0
  -25.9019  -34.9479   23.5147 C   0  0  0  0  0  0
  -16.5343  -29.9103   23.6332 C   0  0  0  0  0  0
  -16.7258  -28.6524   23.0336 C   0  0  0  0  0  0
  -26.4466  -31.6607   25.0723 C   0  0  0  0  0  0
  -25.3751  -31.3685   26.1481 C   0  0  0  0  0  0
  -27.0301  -30.3066   24.6062 C   0  0  0  0  0  0
  -27.6046  -32.4320   25.7480 C   0  0  0  0  0  0
  -27.5579  -37.1818   24.8463 C   0  0  0  0  0  0
  -21.4127  -29.3024   22.3746 N   0  0  0  0  0  0
  -26.4290  -37.3795   23.9410 N   0  0  0  0  0  0
  -24.6611  -31.0830   22.1008 N   0  0  0  0  0  0
  -23.4174  -28.8205   23.3038 O   0  0  0  0  0  0
  -28.3883  -26.6833   20.0183 O   0  0  0  0  0  0
  -26.5577  -34.8928   22.4705 O   0  0  0  0  0  0
  -23.5310  -32.1416   23.7557 O   0  0  0  0  0  0
  -29.1450  -25.0388   24.1243 C   0  0  0  0  0  0
  -29.6628  -25.0377   22.8572 C   0  0  0  0  0  0
  -29.2014  -26.2773   22.3055 C   0  0  0  0  0  0
  -27.7173  -26.6757   25.4527 C   0  0  0  0  0  0
  -30.5630  -24.0025   22.2137 C   0  0  0  0  0  0
  -29.4710  -26.8654   20.9348 C   0  0  0  0  0  0
  -30.2469  -22.5453   22.6212 C   0  0  0  0  0  0
  -31.3834  -21.5737   22.2476 C   0  0  0  0  0  0
  -31.1503  -20.1093   22.6770 C   0  0  0  0  0  0
  -30.5440  -19.2250   21.5736 C   0  0  0  0  0  0
  -30.4654  -17.7328   21.9598 C   0  0  0  0  0  0
  -30.0798  -16.8528   20.7583 C   0  0  0  0  0  0
  -28.4765  -26.9684   23.1778 N   0  0  0  0  0  0
  -28.4350  -26.2061   24.2870 N   0  0  0  0  0  0
  -29.9419  -15.4320   21.0903 N   0  0  0  0  0  0
  -31.4701  -12.3895   19.1206 H   0  0  0  0  0  0
  -30.3263  -11.2690   19.8019 H   0  0  0  0  0  0
  -29.7311  -11.7873   17.4191 H   0  0  0  0  0  0
  -29.6706  -13.4939   17.7817 H   0  0  0  0  0  0
  -27.8164  -11.3132   18.7988 H   0  0  0  0  0  0
  -27.3678  -12.6595   17.7867 H   0  0  0  0  0  0
  -27.7184  -14.2497   19.5982 H   0  0  0  0  0  0
  -28.6722  -11.9051   21.3168 H   0  0  0  0  0  0
  -28.4689  -13.5274   21.8940 H   0  0  0  0  0  0
  -25.2747   -9.5686   22.4738 H   0  0  0  0  0  0
  -23.9991   -7.4634   22.7466 H   0  0  0  0  0  0
  -21.0824   -8.8745   19.8951 H   0  0  0  0  0  0
  -22.3662  -10.9651   19.6145 H   0  0  0  0  0  0
  -21.2006   -7.6140   23.9702 H   0  0  0  0  0  0
  -21.1480   -6.0522   25.9071 H   0  0  0  0  0  0
  -22.0602   -2.7601   23.2853 H   0  0  0  0  0  0
  -22.4127  -11.9903   22.4789 H   0  0  0  0  0  0
  -21.1115  -13.1244   22.2586 H   0  0  0  0  0  0
  -24.6715  -15.8452   20.5163 H   0  0  0  0  0  0
  -26.2919  -15.6214   20.0913 H   0  0  0  0  0  0
  -26.7085  -32.5574   23.1196 H   0  0  0  0  0  0
  -25.0037  -33.9792   25.0504 H   0  0  0  0  0  0
  -22.6856  -31.3067   21.4103 H   0  0  0  0  0  0
  -23.3729  -35.9674   23.3312 H   0  0  0  0  0  0
  -24.3580  -36.8922   22.2045 H   0  0  0  0  0  0
  -23.7254  -37.6547   23.6637 H   0  0  0  0  0  0
  -26.0236  -31.6068   20.5856 H   0  0  0  0  0  0
  -26.8131  -30.9109   21.9726 H   0  0  0  0  0  0
  -28.0766  -29.1700   21.1941 H   0  0  0  0  0  0
  -26.1144  -25.9927   19.0196 H   0  0  0  0  0  0
  -24.0007  -27.2853   19.0387 H   0  0  0  0  0  0
  -23.7121  -30.5916   19.4023 H   0  0  0  0  0  0
  -22.7370  -29.2323   19.8723 H   0  0  0  0  0  0
  -25.1279  -36.1987   25.0836 H   0  0  0  0  0  0
  -20.9956  -28.3217   24.1457 H   0  0  0  0  0  0
  -20.5678  -26.2255   23.3605 H   0  0  0  0  0  0
  -21.6633  -26.7453   22.1207 H   0  0  0  0  0  0
  -19.6888  -25.6308   21.1239 H   0  0  0  0  0  0
  -19.6692  -27.3222   20.6771 H   0  0  0  0  0  0
  -17.4193  -26.6703   21.4019 H   0  0  0  0  0  0
  -18.0301  -26.0087   22.9027 H   0  0  0  0  0  0
  -19.7919  -30.7287   24.2272 H   0  0  0  0  0  0
  -17.4999  -31.6268   24.5195 H   0  0  0  0  0  0
  -15.5343  -30.3011   23.7652 H   0  0  0  0  0  0
  -15.8658  -28.0871   22.7013 H   0  0  0  0  0  0
  -24.5929  -30.7024   25.7832 H   0  0  0  0  0  0
  -24.8936  -32.2826   26.4957 H   0  0  0  0  0  0
  -25.8127  -30.8848   27.0221 H   0  0  0  0  0  0
  -26.2837  -29.6788   24.1176 H   0  0  0  0  0  0
  -27.4162  -29.7335   25.4498 H   0  0  0  0  0  0
  -27.8624  -30.4392   23.9144 H   0  0  0  0  0  0
  -27.2666  -33.3603   26.2097 H   0  0  0  0  0  0
  -28.3834  -32.6901   25.0293 H   0  0  0  0  0  0
  -28.0733  -31.8415   26.5363 H   0  0  0  0  0  0
  -28.2612  -38.0101   24.7502 H   0  0  0  0  0  0
  -28.1061  -36.2638   24.6299 H   0  0  0  0  0  0
  -27.2300  -37.1483   25.8866 H   0  0  0  0  0  0
  -20.9282  -29.8745   21.6976 H   0  0  0  0  0  0
  -26.0183  -38.2876   24.1401 H   0  0  0  0  0  0
  -29.2326  -24.3198   24.9276 H   0  0  0  0  0  0
  -27.4884  -25.8387   26.1134 H   0  0  0  0  0  0
  -26.7822  -27.1500   25.1531 H   0  0  0  0  0  0
  -28.3278  -27.3992   25.9940 H   0  0  0  0  0  0
  -31.5990  -24.2221   22.4754 H   0  0  0  0  0  0
  -30.5221  -24.0725   21.1262 H   0  0  0  0  0  0
  -30.3314  -26.3600   20.4971 H   0  0  0  0  0  0
  -29.7818  -27.9073   21.0010 H   0  0  0  0  0  0
  -29.3046  -22.2290   22.1717 H   0  0  0  0  0  0
  -30.1101  -22.4864   23.7008 H   0  0  0  0  0  0
  -32.2928  -21.9229   22.7391 H   0  0  0  0  0  0
  -31.5923  -21.6271   21.1780 H   0  0  0  0  0  0
  -30.5405  -20.0673   23.5809 H   0  0  0  0  0  0
  -32.1155  -19.6830   22.9538 H   0  0  0  0  0  0
  -31.1536  -19.3230   20.6739 H   0  0  0  0  0  0
  -29.5516  -19.5930   21.3077 H   0  0  0  0  0  0
  -29.7448  -17.6020   22.7686 H   0  0  0  0  0  0
  -31.4309  -17.4023   22.3458 H   0  0  0  0  0  0
  -30.8023  -16.9954   19.9524 H   0  0  0  0  0  0
  -29.1219  -17.1873   20.3567 H   0  0  0  0  0  0
  -29.0579  -15.1467   21.4853 H   0  0  0  0  0  0
  1 25  1  0  0  0
  1 30  2  0  0  0
  1 85  1  0  0  0
  2  3  1  0  0  0
  2 25  1  0  0  0
  2 86  1  0  0  0
  2 87  1  0  0  0
  3  4  1  0  0  0
  3 88  1  0  0  0
  3 89  1  0  0  0
  4  5  1  0  0  0
  4 90  1  0  0  0
  4 91  1  0  0  0
  5  6  1  0  0  0
  5 26  1  0  0  0
  5 92  1  0  0  0
  6 25  1  0  0  0
  6 93  1  0  0  0
  6 94  1  0  0  0
  7  8  2  0  0  0
  7 26  1  0  0  0
  7 29  1  0  0  0
  8  9  1  0  0  0
  8 22  1  0  0  0
  9 10  1  0  0  0
  9 27  2  0  0  0
 10 11  2  0  0  0
 10 15  1  0  0  0
 11 12  1  0  0  0
 11 95  1  0  0  0
 12 13  2  0  0  0
 12 96  1  0  0  0
 13 14  1  0  0  0
 13 31  1  0  0  0
 14 15  2  0  0  0
 14 97  1  0  0  0
 15 98  1  0  0  0
 16 17  2  0  0  0
 16 21  1  0  0  0
 16 31  1  0  0  0
 17 18  1  0  0  0
 17 99  1  0  0  0
 18 19  2  0  0  0
 18100  1  0  0  0
 19 20  1  0  0  0
 19 24  1  0  0  0
 20 21  2  0  0  0
 20101  1  0  0  0
 21 23  1  0  0  0
 22 28  1  0  0  0
 22 32  2  0  0  0
 26 27  1  0  0  0
 28102  1  0  0  0
 28103  1  0  0  0
 29104  1  0  0  0
 29105  1  0  0  0
 33 34  1  0  0  0
 33 66  1  0  0  0
 33 70  2  0  0  0
 34 36  1  0  0  0
 34 59  1  0  0  0
 34106  1  0  0  0
 35 44  2  0  0  0
 35 45  1  0  0  0
 35 68  1  0  0  0
 36 56  1  0  0  0
 36107  1  0  0  0
 37 39  1  0  0  0
 37 47  1  0  0  0
 37 66  1  0  0  0
 37108  1  0  0  0
 38 43  2  0  0  0
 38 46  1  0  0  0
 38 47  1  0  0  0
 39 64  1  0  0  0
 39 67  2  0  0  0
 40 52  1  0  0  0
 40 53  2  0  0  0
 40 58  1  0  0  0
 41109  1  0  0  0
 41110  1  0  0  0
 41111  1  0  0  0
 41 48  1  0  0  0
 42 43  1  0  0  0
 42 66  1  0  0  0
 42112  1  0  0  0
 42113  1  0  0  0
 43 44  1  0  0  0
 44114  1  0  0  0
 45 46  2  0  0  0
 45115  1  0  0  0
 46116  1  0  0  0
 47117  1  0  0  0
 47118  1  0  0  0
 48 56  1  0  0  0
 48 65  1  0  0  0
 48119  1  0  0  0
 49 50  1  0  0  0
 49 53  1  0  0  0
 49 64  1  0  0  0
 49120  1  0  0  0
 50 51  1  0  0  0
 50121  1  0  0  0
 50122  1  0  0  0
 51 52  1  0  0  0
 51123  1  0  0  0
 51124  1  0  0  0
 52125  1  0  0  0
 52126  1  0  0  0
 53 54  1  0  0  0
 54 55  2  0  0  0
 54127  1  0  0  0
 55 57  1  0  0  0
 55128  1  0  0  0
 56 69  2  0  0  0
 57 58  2  0  0  0
 57129  1  0  0  0
 58130  1  0  0  0
 59 60  1  0  0  0
 59 61  1  0  0  0
 59 62  1  0  0  0
 60131  1  0  0  0
 60132  1  0  0  0
 60133  1  0  0  0
 61134  1  0  0  0
 61135  1  0  0  0
 61136  1  0  0  0
 62137  1  0  0  0
 62138  1  0  0  0
 62139  1  0  0  0
 63 65  1  0  0  0
 63140  1  0  0  0
 63141  1  0  0  0
 63142  1  0  0  0
 64143  1  0  0  0
 65144  1  0  0  0
 68 76  1  0  0  0
 71 72  2  0  0  0
 71 84  1  0  0  0
 71145  1  0  0  0
 72 73  1  0  0  0
 72 75  1  0  0  0
 73 76  1  0  0  0
 73 83  2  0  0  0
 74 84  1  0  0  0
 74146  1  0  0  0
 74147  1  0  0  0
 74148  1  0  0  0
 75 77  1  0  0  0
 75149  1  0  0  0
 75150  1  0  0  0
 76151  1  0  0  0
 76152  1  0  0  0
 77 78  1  0  0  0
 77153  1  0  0  0
 77154  1  0  0  0
 78 79  1  0  0  0
 78155  1  0  0  0
 78156  1  0  0  0
 79 80  1  0  0  0
 79157  1  0  0  0
 79158  1  0  0  0
 80 81  1  0  0  0
 80159  1  0  0  0
 80160  1  0  0  0
 81 82  1  0  0  0
 81161  1  0  0  0
 81162  1  0  0  0
 82 85  1  0  0  0
 82163  1  0  0  0
 82164  1  0  0  0
 83 84  1  0  0  0
 85165  1  0  0  0
M  ISO  4   1 100  68 101  76 101  85 100
M  END
> <chiral flag>
0

> <version>
0

> <s_m_source_file>
/data/baiqing/PycharmProjects/Reinvent-master-3.2/result/LINK_invent/BTK/process_docking_weight1_custom_sum_contain_oxygen_bond_distance_aromatic_linkinvent_7_9_3/rearranged_h_0038.sdf

> <i_m_source_file_index>
23

> <r_mmod_Potential_Energy-OPLS-2005>
-84.8388519287109

> <r_mmod_Stretch_Energy-OPLS-2005>
32.4258499145508

> <r_mmod_Bend_Energy-OPLS-2005>
99.0530471801758

> <r_mmod_Torsional_Energy-OPLS-2005>
208.175750732422

> <r_mmod_Improper_Torsional_Energy-OPLS-2005>
5.77372694015503

> <r_mmod_Van_der_Waal_Energy-OPLS-2005>
120.561988830566

> <r_mmod_Electrostatic_Energy-OPLS-2005>
-340.280151367188

> <r_mmod_Solvation_Energy-OPLS-2005>
-218.982681274414

> <b_mmod_Minimization_Converged-OPLS-2005>
0

> <r_mmod_RMS_Derivative-OPLS-2005>
1.18940114974976

$$$$
23
                    3D
 Structure written by MMmdl.
170178  0  0  1  0            999 V2000
  -30.7034  -14.4407   20.6268 C   0  0  0  0  0  0
  -30.4177  -12.3080   19.3941 C   0  0  0  0  0  0
  -29.4785  -12.5251   18.1896 C   0  0  0  0  0  0
  -28.0005  -12.3938   18.6054 C   0  0  0  0  0  0
  -27.6665  -13.2051   19.8860 C   0  0  2  0  0  0
  -28.7141  -12.9402   20.9904 C   0  0  0  0  0  0
  -25.2613  -13.8184   20.5722 C   0  0  0  0  0  0
  -24.1849  -13.0435   20.9198 C   0  0  0  0  0  0
  -24.6414  -11.6908   20.8789 C   0  0  0  0  0  0
  -23.9102  -10.4283   21.0434 C   0  0  0  0  0  0
  -24.3646   -9.4208   21.9221 C   0  0  0  0  0  0
  -23.6298   -8.2252   22.0786 C   0  0  0  0  0  0
  -22.4284   -8.0296   21.3566 C   0  0  0  0  0  0
  -21.9961   -9.0263   20.4652 C   0  0  0  0  0  0
  -22.7292  -10.2133   20.3082 C   0  0  0  0  0  0
  -21.6841   -6.0772   22.5274 C   0  0  0  0  0  0
  -21.4016   -6.5659   23.8207 C   0  0  0  0  0  0
  -21.3662   -5.6813   24.9163 C   0  0  0  0  0  0
  -21.6037   -4.3075   24.7210 C   0  0  0  0  0  0
  -21.8839   -3.8181   23.4331 C   0  0  0  0  0  0
  -21.9194   -4.7002   22.3388 C   0  0  0  0  0  0
  -22.7853  -13.5213   21.1825 C   0  0  0  0  0  0
  -22.1667   -4.2183   21.0967 F   0  0  0  0  0  0
  -21.5617   -3.4565   25.7740 F   0  0  0  0  0  0
  -30.0381  -13.2678   20.4421 N   0  0  0  0  0  0
  -26.3059  -12.9344   20.3466 N   0  0  0  0  0  0
  -25.9346  -11.6501   20.5844 N   0  0  0  0  0  0
  -22.0491  -12.8132   22.0343 N   0  0  0  0  0  0
  -25.4305  -15.1896   20.4114 N   0  0  0  0  0  0
  -31.7856  -14.6662   20.0785 O   0  0  0  0  0  0
  -21.6632   -6.8910   21.4240 O   0  0  0  0  0  0
  -22.3525  -14.5532   20.6721 O   0  0  0  0  0  0
  -24.6166  -31.8683   23.2091 C   0  0  0  0  0  0
  -25.9051  -32.4821   23.8417 C   0  0  1  0  0  0
  -27.2404  -27.4290   20.0940 C   0  0  0  0  0  0
  -25.5916  -33.8625   24.2338 N   0  0  0  0  0  0
  -23.4072  -30.4880   21.5520 C   0  0  2  0  0  0
  -24.8597  -28.9567   20.1122 C   0  0  0  0  0  0
  -22.7436  -29.4638   22.5011 C   0  0  0  0  0  0
  -18.0275  -28.1369   22.8504 C   0  0  0  0  0  0
  -24.1477  -36.7283   23.2643 C   0  0  0  0  0  0
  -25.9401  -30.8278   21.3691 C   0  0  0  0  0  0
  -26.0212  -29.4640   20.7103 C   0  0  0  0  0  0
  -27.2183  -28.7067   20.7013 C   0  0  0  0  0  0
  -26.0697  -26.9441   19.4758 C   0  0  0  0  0  0
  -24.8792  -27.6959   19.4907 C   0  0  0  0  0  0
  -23.6172  -29.8210   20.1669 C   0  0  0  0  0  0
  -25.4105  -36.3102   24.0334 C   0  0  1  0  0  0
  -20.5867  -28.3667   23.1323 C   0  0  2  0  0  0
  -20.6764  -26.9405   22.5401 C   0  0  0  0  0  0
  -19.5732  -26.6376   21.5213 C   0  0  0  0  0  0
  -18.1913  -26.7924   22.1619 C   0  0  0  0  0  0
  -19.1526  -28.8833   23.2902 C   0  0  0  0  0  0
  -18.9451  -30.1452   23.8889 C   0  0  0  0  0  0
  -17.6449  -30.6575   24.0562 C   0  0  0  0  0  0
  -25.9053  -34.9475   23.5133 C   0  0  0  0  0  0
  -16.5355  -29.9067   23.6333 C   0  0  0  0  0  0
  -16.7269  -28.6492   23.0364 C   0  0  0  0  0  0
  -26.4444  -31.6593   25.0756 C   0  0  0  0  0  0
  -25.3670  -31.3579   26.1428 C   0  0  0  0  0  0
  -27.0378  -30.3088   24.6118 C   0  0  0  0  0  0
  -27.5963  -32.4325   25.7598 C   0  0  0  0  0  0
  -27.5565  -37.1826   24.8471 C   0  0  0  0  0  0
  -21.4157  -29.3019   22.3720 N   0  0  0  0  0  0
  -26.4275  -37.3794   23.9409 N   0  0  0  0  0  0
  -24.6725  -31.0763   22.1007 N   0  0  0  0  0  0
  -23.4197  -28.8185   23.3066 O   0  0  0  0  0  0
  -28.3486  -26.6093   20.1388 O   0  0  0  0  0  0
  -26.5607  -34.8924   22.4686 O   0  0  0  0  0  0
  -23.5349  -32.1428   23.7482 O   0  0  0  0  0  0
  -29.8547  -21.7042   20.8089 C   0  0  0  0  0  0
  -29.5722  -22.5058   19.6757 C   0  0  0  0  0  0
  -29.6292  -22.3287   22.0576 C   0  0  0  0  0  0
  -28.9313  -24.2667   21.0124 C   0  0  0  0  0  0
  -31.0463  -22.5129   17.5975 C   0  0  0  0  0  0
  -31.4387  -21.4102   25.4244 C   0  0  0  0  0  0
  -30.4204  -20.2719   20.6876 C   0  0  0  0  0  0
  -29.7465  -22.0193   18.2439 C   0  0  0  0  0  0
  -29.8617  -21.6559   23.4074 C   0  0  0  0  0  0
  -28.2196  -25.6198   21.1873 C   0  0  0  0  0  0
  -30.0851  -15.5478   21.5179 C   0  0  0  0  0  0
  -31.1886  -22.0768   24.0652 C   0  0  0  0  0  0
  -29.3619  -19.1599   20.4672 C   0  0  0  0  0  0
  -30.5956  -17.0023   21.2977 C   0  0  0  0  0  0
  -29.9439  -17.7646   20.1125 C   0  0  0  0  0  0
  -29.1167  -23.7734   19.7899 N   0  0  0  0  0  0
  -29.1742  -23.5945   22.1356 N   0  0  0  0  0  0
  -31.4577  -12.4084   19.0855 H   0  0  0  0  0  0
  -30.3204  -11.2891   19.7708 H   0  0  0  0  0  0
  -29.7018  -11.8144   17.3939 H   0  0  0  0  0  0
  -29.6496  -13.5185   17.7703 H   0  0  0  0  0  0
  -27.7838  -11.3361   18.7584 H   0  0  0  0  0  0
  -27.3546  -12.7129   17.7874 H   0  0  0  0  0  0
  -27.7235  -14.2629   19.6263 H   0  0  0  0  0  0
  -28.6894  -11.8884   21.2794 H   0  0  0  0  0  0
  -28.4854  -13.4890   21.9027 H   0  0  0  0  0  0
  -25.2778   -9.5655   22.4820 H   0  0  0  0  0  0
  -24.0003   -7.4648   22.7500 H   0  0  0  0  0  0
  -21.0933   -8.8789   19.8908 H   0  0  0  0  0  0
  -22.3793  -10.9691   19.6199 H   0  0  0  0  0  0
  -21.2002   -7.6169   23.9729 H   0  0  0  0  0  0
  -21.1457   -6.0526   25.9065 H   0  0  0  0  0  0
  -22.0616   -2.7644   23.2817 H   0  0  0  0  0  0
  -22.4121  -11.9776   22.4688 H   0  0  0  0  0  0
  -21.1119  -13.1163   22.2597 H   0  0  0  0  0  0
  -24.6603  -15.8399   20.5220 H   0  0  0  0  0  0
  -26.2880  -15.6404   20.1162 H   0  0  0  0  0  0
  -26.7166  -32.5550   23.1237 H   0  0  0  0  0  0
  -25.0087  -33.9829   25.0496 H   0  0  0  0  0  0
  -22.6942  -31.3028   21.4118 H   0  0  0  0  0  0
  -23.3781  -35.9581   23.3296 H   0  0  0  0  0  0
  -24.3570  -36.8920   22.2061 H   0  0  0  0  0  0
  -23.7198  -37.6454   23.6702 H   0  0  0  0  0  0
  -26.0622  -31.5957   20.6038 H   0  0  0  0  0  0
  -26.8227  -30.8783   21.9955 H   0  0  0  0  0  0
  -28.1105  -29.0864   21.1810 H   0  0  0  0  0  0
  -26.0754  -25.9713   19.0032 H   0  0  0  0  0  0
  -23.9885  -27.2976   19.0251 H   0  0  0  0  0  0
  -23.7219  -30.5957   19.4066 H   0  0  0  0  0  0
  -22.7421  -29.2379   19.8744 H   0  0  0  0  0  0
  -25.1252  -36.1980   25.0820 H   0  0  0  0  0  0
  -20.9948  -28.3229   24.1454 H   0  0  0  0  0  0
  -20.5716  -26.2254   23.3565 H   0  0  0  0  0  0
  -21.6635  -26.7468   22.1186 H   0  0  0  0  0  0
  -19.6902  -25.6292   21.1233 H   0  0  0  0  0  0
  -19.6655  -27.3183   20.6736 H   0  0  0  0  0  0
  -17.4179  -26.6710   21.4018 H   0  0  0  0  0  0
  -18.0278  -26.0051   22.8980 H   0  0  0  0  0  0
  -19.7913  -30.7275   24.2261 H   0  0  0  0  0  0
  -17.4997  -31.6272   24.5144 H   0  0  0  0  0  0
  -15.5344  -30.2974   23.7643 H   0  0  0  0  0  0
  -15.8661  -28.0791   22.7094 H   0  0  0  0  0  0
  -24.5913  -30.6908   25.7654 H   0  0  0  0  0  0
  -24.8779  -32.2679   26.4906 H   0  0  0  0  0  0
  -25.7985  -30.8681   27.0170 H   0  0  0  0  0  0
  -26.3005  -29.6860   24.1052 H   0  0  0  0  0  0
  -27.4078  -29.7287   25.4583 H   0  0  0  0  0  0
  -27.8831  -30.4495   23.9380 H   0  0  0  0  0  0
  -27.2525  -33.3600   26.2197 H   0  0  0  0  0  0
  -28.3795  -32.6920   25.0470 H   0  0  0  0  0  0
  -28.0612  -31.8436   26.5519 H   0  0  0  0  0  0
  -28.2529  -38.0169   24.7593 H   0  0  0  0  0  0
  -28.1100  -36.2701   24.6225 H   0  0  0  0  0  0
  -27.2281  -37.1386   25.8865 H   0  0  0  0  0  0
  -20.9325  -29.8748   21.6928 H   0  0  0  0  0  0
  -26.0149  -38.2871   24.1403 H   0  0  0  0  0  0
  -31.0771  -22.2217   16.5487 H   0  0  0  0  0  0
  -31.9198  -22.0898   18.0960 H   0  0  0  0  0  0
  -31.1225  -23.5998   17.6427 H   0  0  0  0  0  0
  -32.3919  -21.7340   25.8446 H   0  0  0  0  0  0
  -31.4695  -20.3229   25.3389 H   0  0  0  0  0  0
  -30.6565  -21.6692   26.1384 H   0  0  0  0  0  0
  -31.0226  -20.0273   21.5621 H   0  0  0  0  0  0
  -31.1346  -20.2562   19.8631 H   0  0  0  0  0  0
  -28.8976  -22.3742   17.6588 H   0  0  0  0  0  0
  -29.6971  -20.9323   18.1894 H   0  0  0  0  0  0
  -29.8053  -20.5714   23.3176 H   0  0  0  0  0  0
  -29.0360  -21.9298   24.0646 H   0  0  0  0  0  0
  -28.5670  -26.0769   22.1147 H   0  0  0  0  0  0
  -27.1710  -25.3638   21.3545 H   0  0  0  0  0  0
  -29.0021  -15.5629   21.4186 H   0  0  0  0  0  0
  -30.2922  -15.2571   22.5478 H   0  0  0  0  0  0
  -32.0112  -21.8448   23.3885 H   0  0  0  0  0  0
  -31.1959  -23.1601   24.1999 H   0  0  0  0  0  0
  -28.7069  -19.4551   19.6460 H   0  0  0  0  0  0
  -28.7091  -19.0797   21.3380 H   0  0  0  0  0  0
  -31.6806  -17.0060   21.1816 H   0  0  0  0  0  0
  -30.4140  -17.5620   22.2175 H   0  0  0  0  0  0
  -30.6679  -17.8650   19.2999 H   0  0  0  0  0  0
  -29.1411  -17.1550   19.6921 H   0  0  0  0  0  0
  1 25  1  0  0  0
  1 30  2  0  0  0
  1 81  1  0  0  0
  2  3  1  0  0  0
  2 25  1  0  0  0
  2 88  1  0  0  0
  2 89  1  0  0  0
  3  4  1  0  0  0
  3 90  1  0  0  0
  3 91  1  0  0  0
  4  5  1  0  0  0
  4 92  1  0  0  0
  4 93  1  0  0  0
  5  6  1  0  0  0
  5 26  1  0  0  0
  5 94  1  0  0  0
  6 25  1  0  0  0
  6 95  1  0  0  0
  6 96  1  0  0  0
  7  8  2  0  0  0
  7 26  1  0  0  0
  7 29  1  0  0  0
  8  9  1  0  0  0
  8 22  1  0  0  0
  9 10  1  0  0  0
  9 27  2  0  0  0
 10 11  2  0  0  0
 10 15  1  0  0  0
 11 12  1  0  0  0
 11 97  1  0  0  0
 12 13  2  0  0  0
 12 98  1  0  0  0
 13 14  1  0  0  0
 13 31  1  0  0  0
 14 15  2  0  0  0
 14 99  1  0  0  0
 15100  1  0  0  0
 16 17  2  0  0  0
 16 21  1  0  0  0
 16 31  1  0  0  0
 17 18  1  0  0  0
 17101  1  0  0  0
 18 19  2  0  0  0
 18102  1  0  0  0
 19 20  1  0  0  0
 19 24  1  0  0  0
 20 21  2  0  0  0
 20103  1  0  0  0
 21 23  1  0  0  0
 22 28  1  0  0  0
 22 32  2  0  0  0
 26 27  1  0  0  0
 28104  1  0  0  0
 28105  1  0  0  0
 29106  1  0  0  0
 29107  1  0  0  0
 33 34  1  0  0  0
 33 66  1  0  0  0
 33 70  2  0  0  0
 34 36  1  0  0  0
 34 59  1  0  0  0
 34108  1  0  0  0
 35 44  2  0  0  0
 35 45  1  0  0  0
 35 68  1  0  0  0
 36 56  1  0  0  0
 36109  1  0  0  0
 37 39  1  0  0  0
 37 47  1  0  0  0
 37 66  1  0  0  0
 37110  1  0  0  0
 38 43  2  0  0  0
 38 46  1  0  0  0
 38 47  1  0  0  0
 39 64  1  0  0  0
 39 67  2  0  0  0
 40 52  1  0  0  0
 40 53  2  0  0  0
 40 58  1  0  0  0
 41111  1  0  0  0
 41112  1  0  0  0
 41113  1  0  0  0
 41 48  1  0  0  0
 42 43  1  0  0  0
 42 66  1  0  0  0
 42114  1  0  0  0
 42115  1  0  0  0
 43 44  1  0  0  0
 44116  1  0  0  0
 45 46  2  0  0  0
 45117  1  0  0  0
 46118  1  0  0  0
 47119  1  0  0  0
 47120  1  0  0  0
 48 56  1  0  0  0
 48 65  1  0  0  0
 48121  1  0  0  0
 49 50  1  0  0  0
 49 53  1  0  0  0
 49 64  1  0  0  0
 49122  1  0  0  0
 50 51  1  0  0  0
 50123  1  0  0  0
 50124  1  0  0  0
 51 52  1  0  0  0
 51125  1  0  0  0
 51126  1  0  0  0
 52127  1  0  0  0
 52128  1  0  0  0
 53 54  1  0  0  0
 54 55  2  0  0  0
 54129  1  0  0  0
 55 57  1  0  0  0
 55130  1  0  0  0
 56 69  2  0  0  0
 57 58  2  0  0  0
 57131  1  0  0  0
 58132  1  0  0  0
 59 60  1  0  0  0
 59 61  1  0  0  0
 59 62  1  0  0  0
 60133  1  0  0  0
 60134  1  0  0  0
 60135  1  0  0  0
 61136  1  0  0  0
 61137  1  0  0  0
 61138  1  0  0  0
 62139  1  0  0  0
 62140  1  0  0  0
 62141  1  0  0  0
 63 65  1  0  0  0
 63142  1  0  0  0
 63143  1  0  0  0
 63144  1  0  0  0
 64145  1  0  0  0
 65146  1  0  0  0
 68 80  1  0  0  0
 71 72  2  0  0  0
 71 73  1  0  0  0
 71 77  1  0  0  0
 72 78  1  0  0  0
 72 86  1  0  0  0
 73 79  1  0  0  0
 73 87  2  0  0  0
 74 80  1  0  0  0
 74 86  2  0  0  0
 74 87  1  0  0  0
 75 78  1  0  0  0
 75147  1  0  0  0
 75148  1  0  0  0
 75149  1  0  0  0
 76 82  1  0  0  0
 76150  1  0  0  0
 76151  1  0  0  0
 76152  1  0  0  0
 77 83  1  0  0  0
 77153  1  0  0  0
 77154  1  0  0  0
 78155  1  0  0  0
 78156  1  0  0  0
 79 82  1  0  0  0
 79157  1  0  0  0
 79158  1  0  0  0
 80159  1  0  0  0
 80160  1  0  0  0
 81 84  1  0  0  0
 81161  1  0  0  0
 81162  1  0  0  0
 82163  1  0  0  0
 82164  1  0  0  0
 83 85  1  0  0  0
 83165  1  0  0  0
 83166  1  0  0  0
 84 85  1  0  0  0
 84167  1  0  0  0
 84168  1  0  0  0
 85169  1  0  0  0
 85170  1  0  0  0
M  ISO  4   1 100  68 101  80 101  81 100
M  END
> <chiral flag>
0

> <version>
0

> <s_m_source_file>
/data/baiqing/PycharmProjects/Reinvent-master-3.2/result/LINK_invent/BTK/process_docking_weight1_custom_sum_contain_oxygen_bond_distance_aromatic_linkinvent_7_9_3/rearranged_h_0038.sdf

> <i_m_source_file_index>
24

> <r_mmod_Potential_Energy-OPLS-2005>
-354.166778564453

> <r_mmod_Stretch_Energy-OPLS-2005>
40.283390045166

> <r_mmod_Bend_Energy-OPLS-2005>
106.028450012207

> <r_mmod_Torsional_Energy-OPLS-2005>
192.404434204102

> <r_mmod_Improper_Torsional_Energy-OPLS-2005>
2.67098736763

> <r_mmod_Van_der_Waal_Energy-OPLS-2005>
149.581283569336

> <r_mmod_Electrostatic_Energy-OPLS-2005>
-651.6396484375

> <r_mmod_Solvation_Energy-OPLS-2005>
-206.216888427734

> <b_mmod_Minimization_Converged-OPLS-2005>
0

> <r_mmod_RMS_Derivative-OPLS-2005>
4.06713533401489

$$$$
24
                    3D
 Structure written by MMmdl.
182190  0  0  1  0            999 V2000
  -30.6986  -14.4754   20.4955 C   0  0  0  0  0  0
  -30.4188  -12.2858   19.4513 C   0  0  0  0  0  0
  -29.5103  -12.5015   18.2226 C   0  0  0  0  0  0
  -28.0241  -12.3790   18.6165 C   0  0  0  0  0  0
  -27.6622  -13.2161   19.8745 C   0  0  2  0  0  0
  -28.7027  -13.0258   21.0070 C   0  0  0  0  0  0
  -25.2560  -13.8178   20.5665 C   0  0  0  0  0  0
  -24.1848  -13.0454   20.9180 C   0  0  0  0  0  0
  -24.6411  -11.6908   20.8750 C   0  0  0  0  0  0
  -23.9063  -10.4289   21.0399 C   0  0  0  0  0  0
  -24.3607   -9.4210   21.9198 C   0  0  0  0  0  0
  -23.6265   -8.2252   22.0779 C   0  0  0  0  0  0
  -22.4249   -8.0293   21.3560 C   0  0  0  0  0  0
  -21.9898   -9.0270   20.4659 C   0  0  0  0  0  0
  -22.7226  -10.2140   20.3054 C   0  0  0  0  0  0
  -21.6853   -6.0727   22.5264 C   0  0  0  0  0  0
  -21.4007   -6.5626   23.8207 C   0  0  0  0  0  0
  -21.3673   -5.6778   24.9171 C   0  0  0  0  0  0
  -21.6068   -4.3048   24.7203 C   0  0  0  0  0  0
  -21.8808   -3.8137   23.4322 C   0  0  0  0  0  0
  -21.9169   -4.6951   22.3389 C   0  0  0  0  0  0
  -22.7862  -13.5259   21.1802 C   0  0  0  0  0  0
  -22.1654   -4.2161   21.0949 F   0  0  0  0  0  0
  -21.5643   -3.4520   25.7714 F   0  0  0  0  0  0
  -30.0388  -13.2895   20.4527 N   0  0  0  0  0  0
  -26.3024  -12.9364   20.3327 N   0  0  0  0  0  0
  -25.9343  -11.6521   20.5768 N   0  0  0  0  0  0
  -22.0472  -12.8289   22.0344 N   0  0  0  0  0  0
  -25.4259  -15.1902   20.3994 N   0  0  0  0  0  0
  -31.8676  -14.6107   20.1212 O   0  0  0  0  0  0
  -21.6633   -6.8876   21.4236 O   0  0  0  0  0  0
  -22.3564  -14.5576   20.6625 O   0  0  0  0  0  0
  -24.6124  -31.8664   23.2108 C   0  0  0  0  0  0
  -25.9021  -32.4825   23.8422 C   0  0  1  0  0  0
  -27.2498  -27.4640   20.0714 C   0  0  0  0  0  0
  -25.5837  -33.8625   24.2321 N   0  0  0  0  0  0
  -23.3988  -30.4902   21.5505 C   0  0  2  0  0  0
  -24.8438  -28.9496   20.1279 C   0  0  0  0  0  0
  -22.7362  -29.4695   22.5020 C   0  0  0  0  0  0
  -18.0261  -28.1353   22.8517 C   0  0  0  0  0  0
  -24.1476  -36.7357   23.2650 C   0  0  0  0  0  0
  -25.9271  -30.8380   21.3680 C   0  0  0  0  0  0
  -26.0085  -29.4769   20.7045 C   0  0  0  0  0  0
  -27.2156  -28.7447   20.6649 C   0  0  0  0  0  0
  -26.0591  -26.9274   19.5349 C   0  0  0  0  0  0
  -24.8592  -27.6635   19.5563 C   0  0  0  0  0  0
  -23.5999  -29.8047   20.1737 C   0  0  0  0  0  0
  -25.4102  -36.3118   24.0311 C   0  0  1  0  0  0
  -20.5833  -28.3653   23.1302 C   0  0  2  0  0  0
  -20.6740  -26.9401   22.5388 C   0  0  0  0  0  0
  -19.5729  -26.6346   21.5194 C   0  0  0  0  0  0
  -18.1892  -26.7920   22.1595 C   0  0  0  0  0  0
  -19.1517  -28.8812   23.2891 C   0  0  0  0  0  0
  -18.9454  -30.1410   23.8909 C   0  0  0  0  0  0
  -17.6474  -30.6587   24.0558 C   0  0  0  0  0  0
  -25.9003  -34.9475   23.5124 C   0  0  0  0  0  0
  -16.5344  -29.9094   23.6362 C   0  0  0  0  0  0
  -16.7250  -28.6475   23.0439 C   0  0  0  0  0  0
  -26.4473  -31.6668   25.0802 C   0  0  0  0  0  0
  -25.3718  -31.3728   26.1525 C   0  0  0  0  0  0
  -27.0430  -30.3133   24.6272 C   0  0  0  0  0  0
  -27.6015  -32.4473   25.7536 C   0  0  0  0  0  0
  -27.5603  -37.1812   24.8458 C   0  0  0  0  0  0
  -21.4093  -29.3059   22.3733 N   0  0  0  0  0  0
  -26.4326  -37.3796   23.9374 N   0  0  0  0  0  0
  -24.6656  -31.0762   22.1016 N   0  0  0  0  0  0
  -23.4140  -28.8291   23.3100 O   0  0  0  0  0  0
  -28.4500  -26.7893   20.0067 O   0  0  0  0  0  0
  -26.5616  -34.8935   22.4713 O   0  0  0  0  0  0
  -23.5308  -32.1466   23.7432 O   0  0  0  0  0  0
  -28.4331  -24.8879   17.7654 C   0  0  0  0  0  0
  -28.2254  -23.9955   16.6888 C   0  0  0  0  0  0
  -28.1860  -24.4639   19.0881 C   0  0  0  0  0  0
  -27.7259  -22.7022   16.9893 C   0  0  0  0  0  0
  -27.7715  -23.1254   19.2774 C   0  0  0  0  0  0
  -27.6872  -25.5900   14.7787 C   0  0  0  0  0  0
  -30.5955  -21.2234   23.0023 C   0  0  0  0  0  0
  -28.5936  -24.4594   15.2818 C   0  0  0  0  0  0
  -28.4378  -25.3908   20.2829 C   0  0  0  0  0  0
  -27.4475  -21.6064   15.9632 C   0  0  0  0  0  0
  -27.7166  -22.4643   20.6453 C   0  0  0  0  0  0
  -29.1651  -21.5598   22.5635 C   0  0  0  0  0  0
  -28.5297  -20.4977   16.0200 C   0  0  0  0  0  0
  -29.1149  -22.0089   21.0980 C   0  0  0  0  0  0
  -28.0035  -19.0665   16.2588 C   0  0  0  0  0  0
  -28.8489  -18.2799   17.2886 C   0  0  0  0  0  0
  -28.2773  -18.3502   18.7267 C   0  0  0  0  0  0
  -29.2208  -17.9134   19.8785 C   0  0  0  0  0  0
  -30.0217  -16.6206   19.5976 C   0  0  0  0  0  0
  -27.5135  -22.2939   18.2525 N   0  0  0  0  0  0
  -29.9047  -15.5549   20.6027 N   0  0  0  0  0  0
  -31.4680  -12.3627   19.1607 H   0  0  0  0  0  0
  -30.2938  -11.2806   19.8572 H   0  0  0  0  0  0
  -29.7587  -11.7833   17.4398 H   0  0  0  0  0  0
  -29.6996  -13.4900   17.7959 H   0  0  0  0  0  0
  -27.8104  -11.3238   18.7979 H   0  0  0  0  0  0
  -27.3949  -12.6793   17.7775 H   0  0  0  0  0  0
  -27.6910  -14.2625   19.5677 H   0  0  0  0  0  0
  -28.6638  -12.0095   21.4029 H   0  0  0  0  0  0
  -28.4878  -13.6874   21.8494 H   0  0  0  0  0  0
  -25.2742   -9.5710   22.4780 H   0  0  0  0  0  0
  -23.9991   -7.4649   22.7513 H   0  0  0  0  0  0
  -21.0845   -8.8758   19.8968 H   0  0  0  0  0  0
  -22.3668  -10.9679   19.6169 H   0  0  0  0  0  0
  -21.2009   -7.6141   23.9718 H   0  0  0  0  0  0
  -21.1535   -6.0510   25.9086 H   0  0  0  0  0  0
  -22.0580   -2.7597   23.2795 H   0  0  0  0  0  0
  -22.4003  -11.9933   22.4768 H   0  0  0  0  0  0
  -21.1109  -13.1401   22.2511 H   0  0  0  0  0  0
  -24.6560  -15.8412   20.5085 H   0  0  0  0  0  0
  -26.2597  -15.6217   20.0260 H   0  0  0  0  0  0
  -26.7088  -32.5534   23.1177 H   0  0  0  0  0  0
  -24.9932  -33.9786   25.0418 H   0  0  0  0  0  0
  -22.6853  -31.3047   21.4042 H   0  0  0  0  0  0
  -23.3756  -35.9689   23.3315 H   0  0  0  0  0  0
  -24.3560  -36.9019   22.2081 H   0  0  0  0  0  0
  -23.7237  -37.6521   23.6743 H   0  0  0  0  0  0
  -26.0484  -31.6092   20.6065 H   0  0  0  0  0  0
  -26.8059  -30.8769   21.9975 H   0  0  0  0  0  0
  -28.1203  -29.1599   21.0883 H   0  0  0  0  0  0
  -26.0482  -25.9434   19.0904 H   0  0  0  0  0  0
  -23.9567  -27.2348   19.1455 H   0  0  0  0  0  0
  -23.6869  -30.5659   19.3978 H   0  0  0  0  0  0
  -22.7305  -29.1992   19.9114 H   0  0  0  0  0  0
  -25.1313  -36.1992   25.0822 H   0  0  0  0  0  0
  -20.9923  -28.3254   24.1428 H   0  0  0  0  0  0
  -20.5597  -26.2297   23.3574 H   0  0  0  0  0  0
  -21.6615  -26.7425   22.1230 H   0  0  0  0  0  0
  -19.6875  -25.6247   21.1275 H   0  0  0  0  0  0
  -19.6689  -27.3112   20.6686 H   0  0  0  0  0  0
  -17.4178  -26.6701   21.3982 H   0  0  0  0  0  0
  -18.0255  -26.0010   22.8922 H   0  0  0  0  0  0
  -19.7930  -30.7184   24.2315 H   0  0  0  0  0  0
  -17.5059  -31.6314   24.5104 H   0  0  0  0  0  0
  -15.5346  -30.3032   23.7659 H   0  0  0  0  0  0
  -15.8624  -28.0761   22.7262 H   0  0  0  0  0  0
  -24.5897  -30.7097   25.7848 H   0  0  0  0  0  0
  -24.8881  -32.2838   26.5052 H   0  0  0  0  0  0
  -25.8044  -30.8850   27.0263 H   0  0  0  0  0  0
  -26.3050  -29.6695   24.1460 H   0  0  0  0  0  0
  -27.4366  -29.7589   25.4796 H   0  0  0  0  0  0
  -27.8792  -30.4539   23.9413 H   0  0  0  0  0  0
  -27.2662  -33.3811   26.2068 H   0  0  0  0  0  0
  -28.3808  -32.6960   25.0339 H   0  0  0  0  0  0
  -28.0717  -31.8651   26.5457 H   0  0  0  0  0  0
  -28.2601  -38.0143   24.7560 H   0  0  0  0  0  0
  -28.1123  -36.2650   24.6257 H   0  0  0  0  0  0
  -27.2287  -37.1442   25.8856 H   0  0  0  0  0  0
  -20.9211  -29.8823   21.7015 H   0  0  0  0  0  0
  -26.0215  -38.2882   24.1376 H   0  0  0  0  0  0
  -28.8143  -25.8846   17.5803 H   0  0  0  0  0  0
  -27.9894  -25.9030   13.7799 H   0  0  0  0  0  0
  -27.7458  -26.4711   15.4179 H   0  0  0  0  0  0
  -26.6454  -25.2769   14.7246 H   0  0  0  0  0  0
  -30.6309  -20.9483   24.0574 H   0  0  0  0  0  0
  -31.2628  -22.0744   22.8621 H   0  0  0  0  0  0
  -30.9935  -20.3872   22.4258 H   0  0  0  0  0  0
  -28.6071  -23.6445   14.5613 H   0  0  0  0  0  0
  -29.6235  -24.8187   15.3106 H   0  0  0  0  0  0
  -29.4064  -25.1326   20.7073 H   0  0  0  0  0  0
  -27.7019  -25.2093   21.0630 H   0  0  0  0  0  0
  -27.3404  -21.9955   14.9528 H   0  0  0  0  0  0
  -26.4611  -21.1942   16.1825 H   0  0  0  0  0  0
  -27.0644  -21.5905   20.5935 H   0  0  0  0  0  0
  -27.2563  -23.1284   21.3741 H   0  0  0  0  0  0
  -28.7721  -22.3472   23.2114 H   0  0  0  0  0  0
  -28.5240  -20.6884   22.7067 H   0  0  0  0  0  0
  -29.2262  -20.7399   16.8221 H   0  0  0  0  0  0
  -29.1336  -20.5321   15.1135 H   0  0  0  0  0  0
  -29.8255  -22.8253   20.9618 H   0  0  0  0  0  0
  -29.4569  -21.2042   20.4447 H   0  0  0  0  0  0
  -27.9995  -18.5366   15.3050 H   0  0  0  0  0  0
  -26.9621  -19.0721   16.5824 H   0  0  0  0  0  0
  -29.8880  -18.6130   17.2699 H   0  0  0  0  0  0
  -28.8724  -17.2378   16.9645 H   0  0  0  0  0  0
  -27.3724  -17.7436   18.7615 H   0  0  0  0  0  0
  -27.9498  -19.3708   18.9325 H   0  0  0  0  0  0
  -28.6390  -17.8219   20.7984 H   0  0  0  0  0  0
  -29.9312  -18.7209   20.0758 H   0  0  0  0  0  0
  -31.0662  -16.8869   19.4165 H   0  0  0  0  0  0
  -29.6679  -16.1615   18.6762 H   0  0  0  0  0  0
  -28.9860  -15.4025   20.9929 H   0  0  0  0  0  0
  1 25  1  0  0  0
  1 30  2  0  0  0
  1 91  1  0  0  0
  2  3  1  0  0  0
  2 25  1  0  0  0
  2 92  1  0  0  0
  2 93  1  0  0  0
  3  4  1  0  0  0
  3 94  1  0  0  0
  3 95  1  0  0  0
  4  5  1  0  0  0
  4 96  1  0  0  0
  4 97  1  0  0  0
  5  6  1  0  0  0
  5 26  1  0  0  0
  5 98  1  0  0  0
  6 25  1  0  0  0
  6 99  1  0  0  0
  6100  1  0  0  0
  7  8  2  0  0  0
  7 26  1  0  0  0
  7 29  1  0  0  0
  8  9  1  0  0  0
  8 22  1  0  0  0
  9 10  1  0  0  0
  9 27  2  0  0  0
 10 11  2  0  0  0
 10 15  1  0  0  0
 11 12  1  0  0  0
 11101  1  0  0  0
 12 13  2  0  0  0
 12102  1  0  0  0
 13 14  1  0  0  0
 13 31  1  0  0  0
 14 15  2  0  0  0
 14103  1  0  0  0
 15104  1  0  0  0
 16 17  2  0  0  0
 16 21  1  0  0  0
 16 31  1  0  0  0
 17 18  1  0  0  0
 17105  1  0  0  0
 18 19  2  0  0  0
 18106  1  0  0  0
 19 20  1  0  0  0
 19 24  1  0  0  0
 20 21  2  0  0  0
 20107  1  0  0  0
 21 23  1  0  0  0
 22 28  1  0  0  0
 22 32  2  0  0  0
 26 27  1  0  0  0
 28108  1  0  0  0
 28109  1  0  0  0
 29110  1  0  0  0
 29111  1  0  0  0
 33 34  1  0  0  0
 33 66  1  0  0  0
 33 70  2  0  0  0
 34 36  1  0  0  0
 34 59  1  0  0  0
 34112  1  0  0  0
 35 44  2  0  0  0
 35 45  1  0  0  0
 35 68  1  0  0  0
 36 56  1  0  0  0
 36113  1  0  0  0
 37 39  1  0  0  0
 37 47  1  0  0  0
 37 66  1  0  0  0
 37114  1  0  0  0
 38 43  2  0  0  0
 38 46  1  0  0  0
 38 47  1  0  0  0
 39 64  1  0  0  0
 39 67  2  0  0  0
 40 52  1  0  0  0
 40 53  2  0  0  0
 40 58  1  0  0  0
 41115  1  0  0  0
 41116  1  0  0  0
 41117  1  0  0  0
 41 48  1  0  0  0
 42 43  1  0  0  0
 42 66  1  0  0  0
 42118  1  0  0  0
 42119  1  0  0  0
 43 44  1  0  0  0
 44120  1  0  0  0
 45 46  2  0  0  0
 45121  1  0  0  0
 46122  1  0  0  0
 47123  1  0  0  0
 47124  1  0  0  0
 48 56  1  0  0  0
 48 65  1  0  0  0
 48125  1  0  0  0
 49 50  1  0  0  0
 49 53  1  0  0  0
 49 64  1  0  0  0
 49126  1  0  0  0
 50 51  1  0  0  0
 50127  1  0  0  0
 50128  1  0  0  0
 51 52  1  0  0  0
 51129  1  0  0  0
 51130  1  0  0  0
 52131  1  0  0  0
 52132  1  0  0  0
 53 54  1  0  0  0
 54 55  2  0  0  0
 54133  1  0  0  0
 55 57  1  0  0  0
 55134  1  0  0  0
 56 69  2  0  0  0
 57 58  2  0  0  0
 57135  1  0  0  0
 58136  1  0  0  0
 59 60  1  0  0  0
 59 61  1  0  0  0
 59 62  1  0  0  0
 60137  1  0  0  0
 60138  1  0  0  0
 60139  1  0  0  0
 61140  1  0  0  0
 61141  1  0  0  0
 61142  1  0  0  0
 62143  1  0  0  0
 62144  1  0  0  0
 62145  1  0  0  0
 63 65  1  0  0  0
 63146  1  0  0  0
 63147  1  0  0  0
 63148  1  0  0  0
 64149  1  0  0  0
 65150  1  0  0  0
 68 79  1  0  0  0
 71 72  2  0  0  0
 71 73  1  0  0  0
 71151  1  0  0  0
 72 74  1  0  0  0
 72 78  1  0  0  0
 73 75  2  0  0  0
 73 79  1  0  0  0
 74 80  1  0  0  0
 74 90  2  0  0  0
 75 81  1  0  0  0
 75 90  1  0  0  0
 76 78  1  0  0  0
 76152  1  0  0  0
 76153  1  0  0  0
 76154  1  0  0  0
 77 82  1  0  0  0
 77155  1  0  0  0
 77156  1  0  0  0
 77157  1  0  0  0
 78158  1  0  0  0
 78159  1  0  0  0
 79160  1  0  0  0
 79161  1  0  0  0
 80 83  1  0  0  0
 80162  1  0  0  0
 80163  1  0  0  0
 81 84  1  0  0  0
 81164  1  0  0  0
 81165  1  0  0  0
 82 84  1  0  0  0
 82166  1  0  0  0
 82167  1  0  0  0
 83 85  1  0  0  0
 83168  1  0  0  0
 83169  1  0  0  0
 84170  1  0  0  0
 84171  1  0  0  0
 85 86  1  0  0  0
 85172  1  0  0  0
 85173  1  0  0  0
 86 87  1  0  0  0
 86174  1  0  0  0
 86175  1  0  0  0
 87 88  1  0  0  0
 87176  1  0  0  0
 87177  1  0  0  0
 88 89  1  0  0  0
 88178  1  0  0  0
 88179  1  0  0  0
 89 91  1  0  0  0
 89180  1  0  0  0
 89181  1  0  0  0
 91182  1  0  0  0
M  ISO  4   1 100  68 101  79 101  91 100
M  END
> <chiral flag>
0

> <version>
0

> <s_m_source_file>
/data/baiqing/PycharmProjects/Reinvent-master-3.2/result/LINK_invent/BTK/process_docking_weight1_custom_sum_contain_oxygen_bond_distance_aromatic_linkinvent_7_9_3/rearranged_h_0038.sdf

> <i_m_source_file_index>
25

> <r_mmod_Potential_Energy-OPLS-2005>
-89.1513748168945

> <r_mmod_Stretch_Energy-OPLS-2005>
36.7297554016113

> <r_mmod_Bend_Energy-OPLS-2005>
108.877258300781

> <r_mmod_Torsional_Energy-OPLS-2005>
284.058410644531

> <r_mmod_Improper_Torsional_Energy-OPLS-2005>
13.662896156311

> <r_mmod_Van_der_Waal_Energy-OPLS-2005>
150.561325073242

> <r_mmod_Electrostatic_Energy-OPLS-2005>
-494.795379638672

> <r_mmod_Solvation_Energy-OPLS-2005>
-204.08561706543

> <b_mmod_Minimization_Converged-OPLS-2005>
0

> <r_mmod_RMS_Derivative-OPLS-2005>
5.70128917694092

$$$$
25
                    3D
 Structure written by MMmdl.
163171  0  0  1  0            999 V2000
  -30.7266  -14.4194   20.6125 C   0  0  0  0  0  0
  -30.4173  -12.2882   19.4110 C   0  0  0  0  0  0
  -29.4906  -12.5171   18.2002 C   0  0  0  0  0  0
  -28.0105  -12.3857   18.6110 C   0  0  0  0  0  0
  -27.6668  -13.2063   19.8839 C   0  0  2  0  0  0
  -28.7080  -12.9480   20.9956 C   0  0  0  0  0  0
  -25.2608  -13.8164   20.5691 C   0  0  0  0  0  0
  -24.1850  -13.0443   20.9165 C   0  0  0  0  0  0
  -24.6397  -11.6907   20.8722 C   0  0  0  0  0  0
  -23.9061  -10.4294   21.0397 C   0  0  0  0  0  0
  -24.3617   -9.4213   21.9178 C   0  0  0  0  0  0
  -23.6294   -8.2247   22.0750 C   0  0  0  0  0  0
  -22.4274   -8.0280   21.3542 C   0  0  0  0  0  0
  -21.9908   -9.0253   20.4643 C   0  0  0  0  0  0
  -22.7234  -10.2134   20.3049 C   0  0  0  0  0  0
  -21.6851   -6.0736   22.5278 C   0  0  0  0  0  0
  -21.4015   -6.5641   23.8213 C   0  0  0  0  0  0
  -21.3661   -5.6795   24.9176 C   0  0  0  0  0  0
  -21.6047   -4.3057   24.7226 C   0  0  0  0  0  0
  -21.8823   -3.8147   23.4348 C   0  0  0  0  0  0
  -21.9197   -4.6963   22.3403 C   0  0  0  0  0  0
  -22.7873  -13.5240   21.1837 C   0  0  0  0  0  0
  -22.1667   -4.2147   21.0982 F   0  0  0  0  0  0
  -21.5626   -3.4544   25.7741 F   0  0  0  0  0  0
  -30.0388  -13.2565   20.4522 N   0  0  0  0  0  0
  -26.3055  -12.9337   20.3410 N   0  0  0  0  0  0
  -25.9325  -11.6494   20.5762 N   0  0  0  0  0  0
  -22.0518  -12.8227   22.0393 N   0  0  0  0  0  0
  -25.4346  -15.1883   20.4114 N   0  0  0  0  0  0
  -31.8282  -14.5957   20.0824 O   0  0  0  0  0  0
  -21.6639   -6.8878   21.4240 O   0  0  0  0  0  0
  -22.3560  -14.5552   20.6696 O   0  0  0  0  0  0
  -24.6094  -31.8708   23.2129 C   0  0  0  0  0  0
  -25.9003  -32.4841   23.8413 C   0  0  1  0  0  0
  -27.2472  -27.4721   20.0976 C   0  0  0  0  0  0
  -25.5870  -33.8638   24.2344 N   0  0  0  0  0  0
  -23.3964  -30.4929   21.5517 C   0  0  2  0  0  0
  -24.8473  -28.9622   20.1168 C   0  0  0  0  0  0
  -22.7384  -29.4664   22.5009 C   0  0  0  0  0  0
  -18.0265  -28.1374   22.8497 C   0  0  0  0  0  0
  -24.1485  -36.7331   23.2640 C   0  0  0  0  0  0
  -25.9195  -30.8485   21.3606 C   0  0  0  0  0  0
  -26.0010  -29.4823   20.7167 C   0  0  0  0  0  0
  -27.2020  -28.7441   20.7151 C   0  0  0  0  0  0
  -26.0819  -26.9649   19.4887 C   0  0  0  0  0  0
  -24.8794  -27.6978   19.5023 C   0  0  0  0  0  0
  -23.6049  -29.8220   20.1664 C   0  0  0  0  0  0
  -25.4102  -36.3124   24.0344 C   0  0  1  0  0  0
  -20.5852  -28.3652   23.1334 C   0  0  2  0  0  0
  -20.6754  -26.9393   22.5422 C   0  0  0  0  0  0
  -19.5735  -26.6384   21.5213 C   0  0  0  0  0  0
  -18.1914  -26.7921   22.1624 C   0  0  0  0  0  0
  -19.1514  -28.8830   23.2913 C   0  0  0  0  0  0
  -18.9444  -30.1439   23.8919 C   0  0  0  0  0  0
  -17.6448  -30.6583   24.0568 C   0  0  0  0  0  0
  -25.9022  -34.9487   23.5141 C   0  0  0  0  0  0
  -16.5339  -29.9089   23.6322 C   0  0  0  0  0  0
  -16.7256  -28.6505   23.0344 C   0  0  0  0  0  0
  -26.4453  -31.6604   25.0722 C   0  0  0  0  0  0
  -25.3738  -31.3697   26.1484 C   0  0  0  0  0  0
  -27.0278  -30.3055   24.6058 C   0  0  0  0  0  0
  -27.6036  -32.4316   25.7480 C   0  0  0  0  0  0
  -27.5581  -37.1818   24.8463 C   0  0  0  0  0  0
  -21.4118  -29.3022   22.3745 N   0  0  0  0  0  0
  -26.4293  -37.3801   23.9408 N   0  0  0  0  0  0
  -24.6596  -31.0843   22.1012 N   0  0  0  0  0  0
  -23.4174  -28.8211   23.3040 O   0  0  0  0  0  0
  -28.3727  -26.6834   20.0424 O   0  0  0  0  0  0
  -26.5592  -34.8931   22.4707 O   0  0  0  0  0  0
  -23.5297  -32.1439   23.7550 O   0  0  0  0  0  0
  -32.0815  -23.4780   21.3379 C   0  0  0  0  0  0
  -31.5540  -25.8219   21.7669 C   0  0  0  0  0  0
  -29.9294  -24.3920   20.6449 C   0  0  0  0  0  0
  -32.4476  -24.7359   21.8600 C   0  0  0  0  0  0
  -30.8219  -23.3000   20.7272 C   0  0  0  0  0  0
  -30.2961  -25.6598   21.1514 C   0  0  0  0  0  0
  -33.7991  -24.9295   22.5176 C   0  0  0  0  0  0
  -30.4550  -21.9580   20.1095 C   0  0  0  0  0  0
  -29.3425  -26.8433   21.0721 C   0  0  0  0  0  0
  -30.1369  -15.6190   21.3864 C   0  0  0  0  0  0
  -30.3614  -20.7925   21.1147 C   0  0  0  0  0  0
  -30.1147  -16.9065   20.5253 C   0  0  0  0  0  0
  -30.1372  -19.4478   20.3977 C   0  0  0  0  0  0
  -30.0945  -18.2217   21.3289 C   0  0  0  0  0  0
  -31.4617  -12.3770   19.1074 H   0  0  0  0  0  0
  -30.3093  -11.2703   19.7889 H   0  0  0  0  0  0
  -29.7229  -11.8049   17.4074 H   0  0  0  0  0  0
  -29.6694  -13.5091   17.7823 H   0  0  0  0  0  0
  -27.8072  -11.3285   18.7862 H   0  0  0  0  0  0
  -27.3635  -12.6863   17.7859 H   0  0  0  0  0  0
  -27.7240  -14.2606   19.6130 H   0  0  0  0  0  0
  -28.6780  -11.8986   21.2917 H   0  0  0  0  0  0
  -28.4697  -13.4936   21.9064 H   0  0  0  0  0  0
  -25.2768   -9.5690   22.4746 H   0  0  0  0  0  0
  -24.0008   -7.4640   22.7467 H   0  0  0  0  0  0
  -21.0840   -8.8772   19.8947 H   0  0  0  0  0  0
  -22.3696  -10.9673   19.6154 H   0  0  0  0  0  0
  -21.2003   -7.6146   23.9716 H   0  0  0  0  0  0
  -21.1479   -6.0523   25.9081 H   0  0  0  0  0  0
  -22.0599   -2.7605   23.2848 H   0  0  0  0  0  0
  -22.4141  -11.9887   22.4778 H   0  0  0  0  0  0
  -21.1133  -13.1241   22.2601 H   0  0  0  0  0  0
  -24.6732  -15.8491   20.5235 H   0  0  0  0  0  0
  -26.2999  -15.6264   20.1202 H   0  0  0  0  0  0
  -26.7083  -32.5579   23.1194 H   0  0  0  0  0  0
  -25.0009  -33.9805   25.0480 H   0  0  0  0  0  0
  -22.6831  -31.3078   21.4124 H   0  0  0  0  0  0
  -23.3735  -35.9676   23.3314 H   0  0  0  0  0  0
  -24.3582  -36.8932   22.2051 H   0  0  0  0  0  0
  -23.7247  -37.6548   23.6643 H   0  0  0  0  0  0
  -26.0211  -31.6110   20.5871 H   0  0  0  0  0  0
  -26.8109  -30.9108   21.9725 H   0  0  0  0  0  0
  -28.0830  -29.1653   21.1782 H   0  0  0  0  0  0
  -26.1064  -25.9949   19.0120 H   0  0  0  0  0  0
  -23.9939  -27.2892   19.0351 H   0  0  0  0  0  0
  -23.7066  -30.5951   19.4038 H   0  0  0  0  0  0
  -22.7318  -29.2355   19.8745 H   0  0  0  0  0  0
  -25.1275  -36.2000   25.0837 H   0  0  0  0  0  0
  -20.9943  -28.3211   24.1454 H   0  0  0  0  0  0
  -20.5655  -26.2257   23.3601 H   0  0  0  0  0  0
  -21.6628  -26.7440   22.1216 H   0  0  0  0  0  0
  -19.6899  -25.6300   21.1229 H   0  0  0  0  0  0
  -19.6680  -27.3207   20.6754 H   0  0  0  0  0  0
  -17.4185  -26.6673   21.4025 H   0  0  0  0  0  0
  -18.0317  -26.0058   22.9014 H   0  0  0  0  0  0
  -19.7922  -30.7248   24.2298 H   0  0  0  0  0  0
  -17.5006  -31.6265   24.5164 H   0  0  0  0  0  0
  -15.5342  -30.3000   23.7633 H   0  0  0  0  0  0
  -15.8653  -28.0835   22.7042 H   0  0  0  0  0  0
  -24.5891  -30.7068   25.7825 H   0  0  0  0  0  0
  -24.8954  -32.2853   26.4976 H   0  0  0  0  0  0
  -25.8106  -30.8833   27.0214 H   0  0  0  0  0  0
  -26.2809  -29.6833   24.1113 H   0  0  0  0  0  0
  -27.4066  -29.7271   25.4494 H   0  0  0  0  0  0
  -27.8634  -30.4393   23.9183 H   0  0  0  0  0  0
  -27.2653  -33.3588   26.2116 H   0  0  0  0  0  0
  -28.3814  -32.6920   25.0289 H   0  0  0  0  0  0
  -28.0739  -31.8405   26.5349 H   0  0  0  0  0  0
  -28.2607  -38.0108   24.7502 H   0  0  0  0  0  0
  -28.1067  -36.2640   24.6293 H   0  0  0  0  0  0
  -27.2303  -37.1477   25.8868 H   0  0  0  0  0  0
  -20.9270  -29.8747   21.6975 H   0  0  0  0  0  0
  -26.0190  -38.2887   24.1397 H   0  0  0  0  0  0
  -32.7724  -22.6478   21.3957 H   0  0  0  0  0  0
  -31.8348  -26.7875   22.1657 H   0  0  0  0  0  0
  -28.9636  -24.2616   20.1758 H   0  0  0  0  0  0
  -34.4517  -24.0717   22.3538 H   0  0  0  0  0  0
  -33.6803  -25.0644   23.5928 H   0  0  0  0  0  0
  -34.2979  -25.8127   22.1169 H   0  0  0  0  0  0
  -31.2089  -21.7298   19.3541 H   0  0  0  0  0  0
  -29.5112  -22.0503   19.5699 H   0  0  0  0  0  0
  -29.9171  -27.7528   20.8900 H   0  0  0  0  0  0
  -28.8576  -26.9444   22.0446 H   0  0  0  0  0  0
  -29.1378  -15.4489   21.7767 H   0  0  0  0  0  0
  -30.7769  -15.7694   22.2562 H   0  0  0  0  0  0
  -29.5576  -20.9801   21.8276 H   0  0  0  0  0  0
  -31.2832  -20.7333   21.6949 H   0  0  0  0  0  0
  -29.2481  -16.8709   19.8634 H   0  0  0  0  0  0
  -30.9839  -16.9369   19.8668 H   0  0  0  0  0  0
  -30.9395  -19.3099   19.6711 H   0  0  0  0  0  0
  -29.2135  -19.4921   19.8185 H   0  0  0  0  0  0
  -30.9558  -18.2446   21.9984 H   0  0  0  0  0  0
  -29.2077  -18.2642   21.9631 H   0  0  0  0  0  0
  1 25  1  0  0  0
  1 30  2  0  0  0
  1 80  1  0  0  0
  2  3  1  0  0  0
  2 25  1  0  0  0
  2 85  1  0  0  0
  2 86  1  0  0  0
  3  4  1  0  0  0
  3 87  1  0  0  0
  3 88  1  0  0  0
  4  5  1  0  0  0
  4 89  1  0  0  0
  4 90  1  0  0  0
  5  6  1  0  0  0
  5 26  1  0  0  0
  5 91  1  0  0  0
  6 25  1  0  0  0
  6 92  1  0  0  0
  6 93  1  0  0  0
  7  8  2  0  0  0
  7 26  1  0  0  0
  7 29  1  0  0  0
  8  9  1  0  0  0
  8 22  1  0  0  0
  9 10  1  0  0  0
  9 27  2  0  0  0
 10 11  2  0  0  0
 10 15  1  0  0  0
 11 12  1  0  0  0
 11 94  1  0  0  0
 12 13  2  0  0  0
 12 95  1  0  0  0
 13 14  1  0  0  0
 13 31  1  0  0  0
 14 15  2  0  0  0
 14 96  1  0  0  0
 15 97  1  0  0  0
 16 17  2  0  0  0
 16 21  1  0  0  0
 16 31  1  0  0  0
 17 18  1  0  0  0
 17 98  1  0  0  0
 18 19  2  0  0  0
 18 99  1  0  0  0
 19 20  1  0  0  0
 19 24  1  0  0  0
 20 21  2  0  0  0
 20100  1  0  0  0
 21 23  1  0  0  0
 22 28  1  0  0  0
 22 32  2  0  0  0
 26 27  1  0  0  0
 28101  1  0  0  0
 28102  1  0  0  0
 29103  1  0  0  0
 29104  1  0  0  0
 33 34  1  0  0  0
 33 66  1  0  0  0
 33 70  2  0  0  0
 34 36  1  0  0  0
 34 59  1  0  0  0
 34105  1  0  0  0
 35 44  2  0  0  0
 35 45  1  0  0  0
 35 68  1  0  0  0
 36 56  1  0  0  0
 36106  1  0  0  0
 37 39  1  0  0  0
 37 47  1  0  0  0
 37 66  1  0  0  0
 37107  1  0  0  0
 38 43  2  0  0  0
 38 46  1  0  0  0
 38 47  1  0  0  0
 39 64  1  0  0  0
 39 67  2  0  0  0
 40 52  1  0  0  0
 40 53  2  0  0  0
 40 58  1  0  0  0
 41108  1  0  0  0
 41109  1  0  0  0
 41110  1  0  0  0
 41 48  1  0  0  0
 42 43  1  0  0  0
 42 66  1  0  0  0
 42111  1  0  0  0
 42112  1  0  0  0
 43 44  1  0  0  0
 44113  1  0  0  0
 45 46  2  0  0  0
 45114  1  0  0  0
 46115  1  0  0  0
 47116  1  0  0  0
 47117  1  0  0  0
 48 56  1  0  0  0
 48 65  1  0  0  0
 48118  1  0  0  0
 49 50  1  0  0  0
 49 53  1  0  0  0
 49 64  1  0  0  0
 49119  1  0  0  0
 50 51  1  0  0  0
 50120  1  0  0  0
 50121  1  0  0  0
 51 52  1  0  0  0
 51122  1  0  0  0
 51123  1  0  0  0
 52124  1  0  0  0
 52125  1  0  0  0
 53 54  1  0  0  0
 54 55  2  0  0  0
 54126  1  0  0  0
 55 57  1  0  0  0
 55127  1  0  0  0
 56 69  2  0  0  0
 57 58  2  0  0  0
 57128  1  0  0  0
 58129  1  0  0  0
 59 60  1  0  0  0
 59 61  1  0  0  0
 59 62  1  0  0  0
 60130  1  0  0  0
 60131  1  0  0  0
 60132  1  0  0  0
 61133  1  0  0  0
 61134  1  0  0  0
 61135  1  0  0  0
 62136  1  0  0  0
 62137  1  0  0  0
 62138  1  0  0  0
 63 65  1  0  0  0
 63139  1  0  0  0
 63140  1  0  0  0
 63141  1  0  0  0
 64142  1  0  0  0
 65143  1  0  0  0
 68 79  1  0  0  0
 71 74  2  0  0  0
 71 75  1  0  0  0
 71144  1  0  0  0
 72 74  1  0  0  0
 72 76  2  0  0  0
 72145  1  0  0  0
 73 75  2  0  0  0
 73 76  1  0  0  0
 73146  1  0  0  0
 74 77  1  0  0  0
 75 78  1  0  0  0
 76 79  1  0  0  0
 77147  1  0  0  0
 77148  1  0  0  0
 77149  1  0  0  0
 78 81  1  0  0  0
 78150  1  0  0  0
 78151  1  0  0  0
 79152  1  0  0  0
 79153  1  0  0  0
 80 82  1  0  0  0
 80154  1  0  0  0
 80155  1  0  0  0
 81 83  1  0  0  0
 81156  1  0  0  0
 81157  1  0  0  0
 82 84  1  0  0  0
 82158  1  0  0  0
 82159  1  0  0  0
 83 84  1  0  0  0
 83160  1  0  0  0
 83161  1  0  0  0
 84162  1  0  0  0
 84163  1  0  0  0
M  ISO  4   1 100  68 101  79 101  80 100
M  END
> <chiral flag>
0

> <version>
0

> <s_m_source_file>
/data/baiqing/PycharmProjects/Reinvent-master-3.2/result/LINK_invent/BTK/process_docking_weight1_custom_sum_contain_oxygen_bond_distance_aromatic_linkinvent_7_9_3/rearranged_h_0038.sdf

> <i_m_source_file_index>
26

> <r_mmod_Potential_Energy-OPLS-2005>
-22.2589206695557

> <r_mmod_Stretch_Energy-OPLS-2005>
32.6801490783691

> <r_mmod_Bend_Energy-OPLS-2005>
93.4407196044922

> <r_mmod_Torsional_Energy-OPLS-2005>
177.423950195312

> <r_mmod_Improper_Torsional_Energy-OPLS-2005>
2.24307799339294

> <r_mmod_Van_der_Waal_Energy-OPLS-2005>
152.42399597168

> <r_mmod_Electrostatic_Energy-OPLS-2005>
-303.998931884766

> <r_mmod_Solvation_Energy-OPLS-2005>
-184.443130493164

> <b_mmod_Minimization_Converged-OPLS-2005>
0

> <r_mmod_RMS_Derivative-OPLS-2005>
0.688436090946198

$$$$
26
                    3D
 Structure written by MMmdl.
168176  0  0  1  0            999 V2000
  -30.7713  -14.5129   20.5350 C   0  0  0  0  0  0
  -30.4140  -12.3401   19.4183 C   0  0  0  0  0  0
  -29.4846  -12.4959   18.2003 C   0  0  0  0  0  0
  -28.0084  -12.3826   18.6094 C   0  0  0  0  0  0
  -27.6596  -13.2288   19.8602 C   0  0  2  0  0  0
  -28.7139  -13.0930   20.9823 C   0  0  0  0  0  0
  -25.2675  -13.8279   20.5692 C   0  0  0  0  0  0
  -24.1902  -13.0518   20.9166 C   0  0  0  0  0  0
  -24.6415  -11.6994   20.8631 C   0  0  0  0  0  0
  -23.9027  -10.4342   21.0264 C   0  0  0  0  0  0
  -24.3595   -9.4305   21.9094 C   0  0  0  0  0  0
  -23.6339   -8.2302   22.0683 C   0  0  0  0  0  0
  -22.4354   -8.0261   21.3471 C   0  0  0  0  0  0
  -21.9903   -9.0220   20.4593 C   0  0  0  0  0  0
  -22.7154  -10.2145   20.2990 C   0  0  0  0  0  0
  -21.6907   -6.0722   22.5237 C   0  0  0  0  0  0
  -21.4044   -6.5627   23.8173 C   0  0  0  0  0  0
  -21.3683   -5.6764   24.9123 C   0  0  0  0  0  0
  -21.6064   -4.3021   24.7175 C   0  0  0  0  0  0
  -21.8847   -3.8127   23.4276 C   0  0  0  0  0  0
  -21.9261   -4.6950   22.3349 C   0  0  0  0  0  0
  -22.7924  -13.5316   21.1785 C   0  0  0  0  0  0
  -22.1713   -4.2126   21.0909 F   0  0  0  0  0  0
  -21.5618   -3.4494   25.7675 F   0  0  0  0  0  0
  -30.0418  -13.3676   20.4051 N   0  0  0  0  0  0
  -26.3042  -12.9403   20.3293 N   0  0  0  0  0  0
  -25.9378  -11.6564   20.5787 N   0  0  0  0  0  0
  -22.0553  -12.8319   22.0336 N   0  0  0  0  0  0
  -25.4467  -15.1960   20.4143 N   0  0  0  0  0  0
  -31.9271  -14.6084   20.1076 O   0  0  0  0  0  0
  -21.6702   -6.8851   21.4202 O   0  0  0  0  0  0
  -22.3580  -14.5548   20.6562 O   0  0  0  0  0  0
  -24.6033  -31.8708   23.2134 C   0  0  0  0  0  0
  -25.9015  -32.4836   23.8361 C   0  0  1  0  0  0
  -27.2783  -27.5264   20.1167 C   0  0  0  0  0  0
  -25.5873  -33.8592   24.2303 N   0  0  0  0  0  0
  -23.3908  -30.4909   21.5527 C   0  0  2  0  0  0
  -24.8504  -28.9616   20.1243 C   0  0  0  0  0  0
  -22.7384  -29.4629   22.5032 C   0  0  0  0  0  0
  -18.0278  -28.1384   22.8507 C   0  0  0  0  0  0
  -24.1493  -36.7326   23.2643 C   0  0  0  0  0  0
  -25.8994  -30.8787   21.3399 C   0  0  0  0  0  0
  -25.9925  -29.5074   20.7132 C   0  0  0  0  0  0
  -27.2048  -28.7985   20.7075 C   0  0  0  0  0  0
  -26.1142  -26.9631   19.5362 C   0  0  0  0  0  0
  -24.8998  -27.6836   19.5318 C   0  0  0  0  0  0
  -23.6019  -29.8175   20.1663 C   0  0  0  0  0  0
  -25.4102  -36.3101   24.0349 C   0  0  1  0  0  0
  -20.5860  -28.3608   23.1386 C   0  0  2  0  0  0
  -20.6762  -26.9354   22.5463 C   0  0  0  0  0  0
  -19.5751  -26.6384   21.5236 C   0  0  0  0  0  0
  -18.1910  -26.7955   22.1613 C   0  0  0  0  0  0
  -19.1506  -28.8818   23.2944 C   0  0  0  0  0  0
  -18.9452  -30.1440   23.8940 C   0  0  0  0  0  0
  -17.6435  -30.6585   24.0572 C   0  0  0  0  0  0
  -25.9012  -34.9488   23.5138 C   0  0  0  0  0  0
  -16.5333  -29.9106   23.6326 C   0  0  0  0  0  0
  -16.7238  -28.6540   23.0313 C   0  0  0  0  0  0
  -26.4482  -31.6585   25.0624 C   0  0  0  0  0  0
  -25.3818  -31.3685   26.1435 C   0  0  0  0  0  0
  -27.0247  -30.3054   24.5837 C   0  0  0  0  0  0
  -27.6057  -32.4341   25.7415 C   0  0  0  0  0  0
  -27.5593  -37.1815   24.8459 C   0  0  0  0  0  0
  -21.4136  -29.2978   22.3822 N   0  0  0  0  0  0
  -26.4281  -37.3785   23.9413 N   0  0  0  0  0  0
  -24.6513  -31.0920   22.0973 N   0  0  0  0  0  0
  -23.4225  -28.8162   23.3025 O   0  0  0  0  0  0
  -28.5150  -26.9429   20.0437 O   0  0  0  0  0  0
  -26.5558  -34.8943   22.4704 O   0  0  0  0  0  0
  -23.5289  -32.1413   23.7620 O   0  0  0  0  0  0
  -30.5046  -23.8049   23.3568 C   0  0  0  0  0  0
  -29.4671  -22.9323   21.3418 C   0  0  0  0  0  0
  -29.8167  -24.0392   22.1472 C   0  0  0  0  0  0
  -30.7323  -22.4931   23.8263 C   0  0  0  0  0  0
  -29.6738  -21.6172   21.8064 C   0  0  0  0  0  0
  -30.2432  -21.3900   23.0818 C   0  0  0  0  0  0
  -30.2640  -19.9730   23.6684 C   0  0  0  0  0  0
  -30.6072  -22.6969   26.3681 C   0  0  0  0  0  0
  -29.4346  -25.4713   21.7614 C   0  0  0  0  0  0
  -31.4632  -22.2957   25.1542 C   0  0  0  0  0  0
  -29.1539  -20.4310   21.0058 C   0  0  0  0  0  0
  -30.2848  -19.5041   20.4771 C   0  0  0  0  0  0
  -29.8539  -18.0046   20.3274 C   0  0  0  0  0  0
  -30.7109  -16.9728   21.1251 C   0  0  0  0  0  0
  -28.6646  -25.5924   20.4259 C   0  0  0  0  0  0
  -30.1421  -15.6122   20.9934 N   0  0  0  0  0  0
  -31.4510  -12.4328   19.0964 H   0  0  0  0  0  0
  -30.3139  -11.3414   19.8487 H   0  0  0  0  0  0
  -29.7211  -11.7490   17.4385 H   0  0  0  0  0  0
  -29.6546  -13.4685   17.7405 H   0  0  0  0  0  0
  -27.7879  -11.3266   18.7854 H   0  0  0  0  0  0
  -27.3720  -12.6860   17.7754 H   0  0  0  0  0  0
  -27.6803  -14.2707   19.5414 H   0  0  0  0  0  0
  -28.6998  -12.0891   21.4099 H   0  0  0  0  0  0
  -28.4929  -13.7763   21.8043 H   0  0  0  0  0  0
  -25.2726   -9.5884   22.4655 H   0  0  0  0  0  0
  -24.0098   -7.4746   22.7418 H   0  0  0  0  0  0
  -21.0834   -8.8697   19.8940 H   0  0  0  0  0  0
  -22.3528  -10.9659   19.6108 H   0  0  0  0  0  0
  -21.1986   -7.6133   23.9669 H   0  0  0  0  0  0
  -21.1497   -6.0458   25.9026 H   0  0  0  0  0  0
  -22.0623   -2.7597   23.2765 H   0  0  0  0  0  0
  -22.4225  -12.0083   22.4815 H   0  0  0  0  0  0
  -21.1120  -13.1246   22.2383 H   0  0  0  0  0  0
  -24.6807  -15.8585   20.4963 H   0  0  0  0  0  0
  -26.3141  -15.6256   20.1092 H   0  0  0  0  0  0
  -26.7057  -32.5620   23.1114 H   0  0  0  0  0  0
  -24.9989  -33.9747   25.0433 H   0  0  0  0  0  0
  -22.6737  -31.3047   21.4138 H   0  0  0  0  0  0
  -23.3731  -35.9693   23.3304 H   0  0  0  0  0  0
  -24.3547  -36.8932   22.2054 H   0  0  0  0  0  0
  -23.7325  -37.6565   23.6633 H   0  0  0  0  0  0
  -25.9658  -31.6325   20.5558 H   0  0  0  0  0  0
  -26.8066  -30.9626   21.9281 H   0  0  0  0  0  0
  -28.0897  -29.2467   21.1395 H   0  0  0  0  0  0
  -26.1672  -25.9980   19.0571 H   0  0  0  0  0  0
  -24.0233  -27.2599   19.0603 H   0  0  0  0  0  0
  -23.7157  -30.5938   19.4051 H   0  0  0  0  0  0
  -22.7313  -29.2345   19.8665 H   0  0  0  0  0  0
  -25.1325  -36.1892   25.0837 H   0  0  0  0  0  0
  -20.9893  -28.3122   24.1524 H   0  0  0  0  0  0
  -20.5637  -26.2183   23.3613 H   0  0  0  0  0  0
  -21.6625  -26.7400   22.1252 H   0  0  0  0  0  0
  -19.6874  -25.6308   21.1234 H   0  0  0  0  0  0
  -19.6746  -27.3251   20.6809 H   0  0  0  0  0  0
  -17.4212  -26.6736   21.3964 H   0  0  0  0  0  0
  -18.0242  -26.0101   22.9000 H   0  0  0  0  0  0
  -19.7893  -30.7250   24.2311 H   0  0  0  0  0  0
  -17.4984  -31.6260   24.5195 H   0  0  0  0  0  0
  -15.5324  -30.2998   23.7643 H   0  0  0  0  0  0
  -15.8653  -28.0883   22.6941 H   0  0  0  0  0  0
  -24.5936  -30.7064   25.7789 H   0  0  0  0  0  0
  -24.9081  -32.2855   26.4950 H   0  0  0  0  0  0
  -25.8257  -30.8797   27.0114 H   0  0  0  0  0  0
  -26.2624  -29.6831   24.1092 H   0  0  0  0  0  0
  -27.4285  -29.7246   25.4126 H   0  0  0  0  0  0
  -27.8353  -30.4387   23.8676 H   0  0  0  0  0  0
  -27.2572  -33.3578   26.2057 H   0  0  0  0  0  0
  -28.3835  -32.7030   25.0252 H   0  0  0  0  0  0
  -28.0747  -31.8437   26.5309 H   0  0  0  0  0  0
  -28.2612  -38.0102   24.7458 H   0  0  0  0  0  0
  -28.1087  -36.2641   24.6314 H   0  0  0  0  0  0
  -27.2293  -37.1494   25.8852 H   0  0  0  0  0  0
  -20.9261  -29.8717   21.7088 H   0  0  0  0  0  0
  -26.0175  -38.2849   24.1428 H   0  0  0  0  0  0
  -30.8083  -24.6514   23.9607 H   0  0  0  0  0  0
  -28.9598  -23.0731   20.3956 H   0  0  0  0  0  0
  -29.9071  -19.9854   24.6957 H   0  0  0  0  0  0
  -31.2657  -19.5516   23.6129 H   0  0  0  0  0  0
  -29.6125  -19.2450   23.1890 H   0  0  0  0  0  0
  -31.1346  -22.5104   27.3053 H   0  0  0  0  0  0
  -29.6670  -22.1463   26.4028 H   0  0  0  0  0  0
  -30.3626  -23.7590   26.3330 H   0  0  0  0  0  0
  -30.3390  -26.0788   21.7265 H   0  0  0  0  0  0
  -28.8180  -25.8901   22.5596 H   0  0  0  0  0  0
  -32.3914  -22.8745   25.1573 H   0  0  0  0  0  0
  -31.7840  -21.2595   25.2440 H   0  0  0  0  0  0
  -28.4563  -20.7325   20.2236 H   0  0  0  0  0  0
  -28.5101  -19.9009   21.7028 H   0  0  0  0  0  0
  -31.1482  -19.5475   21.1461 H   0  0  0  0  0  0
  -30.6620  -19.9231   19.5376 H   0  0  0  0  0  0
  -29.8488  -17.7332   19.2625 H   0  0  0  0  0  0
  -28.8173  -17.8739   20.6590 H   0  0  0  0  0  0
  -30.6901  -17.2350   22.1879 H   0  0  0  0  0  0
  -31.7707  -17.0162   20.8438 H   0  0  0  0  0  0
  -27.7106  -25.0694   20.4866 H   0  0  0  0  0  0
  -29.2554  -25.1401   19.6321 H   0  0  0  0  0  0
  -29.1617  -15.5179   21.2135 H   0  0  0  0  0  0
  1 25  1  0  0  0
  1 30  2  0  0  0
  1 86  1  0  0  0
  2  3  1  0  0  0
  2 25  1  0  0  0
  2 87  1  0  0  0
  2 88  1  0  0  0
  3  4  1  0  0  0
  3 89  1  0  0  0
  3 90  1  0  0  0
  4  5  1  0  0  0
  4 91  1  0  0  0
  4 92  1  0  0  0
  5  6  1  0  0  0
  5 26  1  0  0  0
  5 93  1  0  0  0
  6 25  1  0  0  0
  6 94  1  0  0  0
  6 95  1  0  0  0
  7  8  2  0  0  0
  7 26  1  0  0  0
  7 29  1  0  0  0
  8  9  1  0  0  0
  8 22  1  0  0  0
  9 10  1  0  0  0
  9 27  2  0  0  0
 10 11  2  0  0  0
 10 15  1  0  0  0
 11 12  1  0  0  0
 11 96  1  0  0  0
 12 13  2  0  0  0
 12 97  1  0  0  0
 13 14  1  0  0  0
 13 31  1  0  0  0
 14 15  2  0  0  0
 14 98  1  0  0  0
 15 99  1  0  0  0
 16 17  2  0  0  0
 16 21  1  0  0  0
 16 31  1  0  0  0
 17 18  1  0  0  0
 17100  1  0  0  0
 18 19  2  0  0  0
 18101  1  0  0  0
 19 20  1  0  0  0
 19 24  1  0  0  0
 20 21  2  0  0  0
 20102  1  0  0  0
 21 23  1  0  0  0
 22 28  1  0  0  0
 22 32  2  0  0  0
 26 27  1  0  0  0
 28103  1  0  0  0
 28104  1  0  0  0
 29105  1  0  0  0
 29106  1  0  0  0
 33 34  1  0  0  0
 33 66  1  0  0  0
 33 70  2  0  0  0
 34 36  1  0  0  0
 34 59  1  0  0  0
 34107  1  0  0  0
 35 44  2  0  0  0
 35 45  1  0  0  0
 35 68  1  0  0  0
 36 56  1  0  0  0
 36108  1  0  0  0
 37 39  1  0  0  0
 37 47  1  0  0  0
 37 66  1  0  0  0
 37109  1  0  0  0
 38 43  2  0  0  0
 38 46  1  0  0  0
 38 47  1  0  0  0
 39 64  1  0  0  0
 39 67  2  0  0  0
 40 52  1  0  0  0
 40 53  2  0  0  0
 40 58  1  0  0  0
 41110  1  0  0  0
 41111  1  0  0  0
 41112  1  0  0  0
 41 48  1  0  0  0
 42 43  1  0  0  0
 42 66  1  0  0  0
 42113  1  0  0  0
 42114  1  0  0  0
 43 44  1  0  0  0
 44115  1  0  0  0
 45 46  2  0  0  0
 45116  1  0  0  0
 46117  1  0  0  0
 47118  1  0  0  0
 47119  1  0  0  0
 48 56  1  0  0  0
 48 65  1  0  0  0
 48120  1  0  0  0
 49 50  1  0  0  0
 49 53  1  0  0  0
 49 64  1  0  0  0
 49121  1  0  0  0
 50 51  1  0  0  0
 50122  1  0  0  0
 50123  1  0  0  0
 51 52  1  0  0  0
 51124  1  0  0  0
 51125  1  0  0  0
 52126  1  0  0  0
 52127  1  0  0  0
 53 54  1  0  0  0
 54 55  2  0  0  0
 54128  1  0  0  0
 55 57  1  0  0  0
 55129  1  0  0  0
 56 69  2  0  0  0
 57 58  2  0  0  0
 57130  1  0  0  0
 58131  1  0  0  0
 59 60  1  0  0  0
 59 61  1  0  0  0
 59 62  1  0  0  0
 60132  1  0  0  0
 60133  1  0  0  0
 60134  1  0  0  0
 61135  1  0  0  0
 61136  1  0  0  0
 61137  1  0  0  0
 62138  1  0  0  0
 62139  1  0  0  0
 62140  1  0  0  0
 63 65  1  0  0  0
 63141  1  0  0  0
 63142  1  0  0  0
 63143  1  0  0  0
 64144  1  0  0  0
 65145  1  0  0  0
 68 85  1  0  0  0
 71 73  2  0  0  0
 71 74  1  0  0  0
 71146  1  0  0  0
 72 73  1  0  0  0
 72 75  2  0  0  0
 72147  1  0  0  0
 73 79  1  0  0  0
 74 76  2  0  0  0
 74 80  1  0  0  0
 75 76  1  0  0  0
 75 81  1  0  0  0
 76 77  1  0  0  0
 77148  1  0  0  0
 77149  1  0  0  0
 77150  1  0  0  0
 78 80  1  0  0  0
 78151  1  0  0  0
 78152  1  0  0  0
 78153  1  0  0  0
 79 85  1  0  0  0
 79154  1  0  0  0
 79155  1  0  0  0
 80156  1  0  0  0
 80157  1  0  0  0
 81 82  1  0  0  0
 81158  1  0  0  0
 81159  1  0  0  0
 82 83  1  0  0  0
 82160  1  0  0  0
 82161  1  0  0  0
 83 84  1  0  0  0
 83162  1  0  0  0
 83163  1  0  0  0
 84 86  1  0  0  0
 84164  1  0  0  0
 84165  1  0  0  0
 85166  1  0  0  0
 85167  1  0  0  0
 86168  1  0  0  0
M  ISO  4   1 100  68 101  85 101  86 100
M  END
> <chiral flag>
0

> <version>
0

> <s_m_source_file>
/data/baiqing/PycharmProjects/Reinvent-master-3.2/result/LINK_invent/BTK/process_docking_weight1_custom_sum_contain_oxygen_bond_distance_aromatic_linkinvent_7_9_3/rearranged_h_0038.sdf

> <i_m_source_file_index>
27

> <r_mmod_Potential_Energy-OPLS-2005>
-17.7943096160889

> <r_mmod_Stretch_Energy-OPLS-2005>
39.4376792907715

> <r_mmod_Bend_Energy-OPLS-2005>
107.313529968262

> <r_mmod_Torsional_Energy-OPLS-2005>
232.008117675781

> <r_mmod_Improper_Torsional_Energy-OPLS-2005>
4.41490411758423

> <r_mmod_Van_der_Waal_Energy-OPLS-2005>
168.962173461914

> <r_mmod_Electrostatic_Energy-OPLS-2005>
-389.576385498047

> <r_mmod_Solvation_Energy-OPLS-2005>
-204.543167114258

> <b_mmod_Minimization_Converged-OPLS-2005>
0

> <r_mmod_RMS_Derivative-OPLS-2005>
11.9730215072632

$$$$
27
                    3D
 Structure written by MMmdl.
164172  0  0  1  0            999 V2000
  -30.6783  -14.4353   20.5765 C   0  0  0  0  0  0
  -30.4363  -12.2771   19.4232 C   0  0  0  0  0  0
  -29.5086  -12.5013   18.2081 C   0  0  0  0  0  0
  -28.0241  -12.3805   18.6098 C   0  0  0  0  0  0
  -27.6770  -13.1941   19.8854 C   0  0  2  0  0  0
  -28.7134  -12.9223   21.0021 C   0  0  0  0  0  0
  -25.2680  -13.8135   20.5634 C   0  0  0  0  0  0
  -24.1906  -13.0437   20.9142 C   0  0  0  0  0  0
  -24.6429  -11.6891   20.8736 C   0  0  0  0  0  0
  -23.9095  -10.4273   21.0420 C   0  0  0  0  0  0
  -24.3620   -9.4170   21.9198 C   0  0  0  0  0  0
  -23.6268   -8.2222   22.0764 C   0  0  0  0  0  0
  -22.4252   -8.0276   21.3539 C   0  0  0  0  0  0
  -21.9890   -9.0270   20.4651 C   0  0  0  0  0  0
  -22.7259  -10.2116   20.3078 C   0  0  0  0  0  0
  -21.6841   -6.0732   22.5269 C   0  0  0  0  0  0
  -21.4005   -6.5628   23.8198 C   0  0  0  0  0  0
  -21.3661   -5.6762   24.9162 C   0  0  0  0  0  0
  -21.6053   -4.3040   24.7201 C   0  0  0  0  0  0
  -21.8824   -3.8132   23.4321 C   0  0  0  0  0  0
  -21.9180   -4.6970   22.3385 C   0  0  0  0  0  0
  -22.7927  -13.5287   21.1785 C   0  0  0  0  0  0
  -22.1661   -4.2163   21.0964 F   0  0  0  0  0  0
  -21.5632   -3.4509   25.7709 F   0  0  0  0  0  0
  -30.0547  -13.2308   20.4740 N   0  0  0  0  0  0
  -26.3114  -12.9274   20.3367 N   0  0  0  0  0  0
  -25.9353  -11.6450   20.5736 N   0  0  0  0  0  0
  -22.0513  -12.8323   22.0325 N   0  0  0  0  0  0
  -25.4451  -15.1837   20.3994 N   0  0  0  0  0  0
  -31.7588  -14.6964   20.0403 O   0  0  0  0  0  0
  -21.6621   -6.8877   21.4225 O   0  0  0  0  0  0
  -22.3631  -14.5595   20.6616 O   0  0  0  0  0  0
  -24.6115  -31.8722   23.2138 C   0  0  0  0  0  0
  -25.9022  -32.4848   23.8431 C   0  0  1  0  0  0
  -27.2384  -27.4664   20.0837 C   0  0  0  0  0  0
  -25.5891  -33.8648   24.2360 N   0  0  0  0  0  0
  -23.3968  -30.4964   21.5550 C   0  0  2  0  0  0
  -24.8394  -28.9622   20.1208 C   0  0  0  0  0  0
  -22.7396  -29.4683   22.5025 C   0  0  0  0  0  0
  -18.0271  -28.1361   22.8495 C   0  0  0  0  0  0
  -24.1480  -36.7336   23.2645 C   0  0  0  0  0  0
  -25.9246  -30.8414   21.3677 C   0  0  0  0  0  0
  -25.9977  -29.4790   20.7131 C   0  0  0  0  0  0
  -27.1958  -28.7360   20.6971 C   0  0  0  0  0  0
  -26.0558  -26.9486   19.5021 C   0  0  0  0  0  0
  -24.8608  -27.6915   19.5202 C   0  0  0  0  0  0
  -23.6018  -29.8284   20.1698 C   0  0  0  0  0  0
  -25.4098  -36.3141   24.0349 C   0  0  1  0  0  0
  -20.5859  -28.3646   23.1321 C   0  0  2  0  0  0
  -20.6755  -26.9380   22.5424 C   0  0  0  0  0  0
  -19.5736  -26.6369   21.5214 C   0  0  0  0  0  0
  -18.1909  -26.7914   22.1611 C   0  0  0  0  0  0
  -19.1516  -28.8814   23.2910 C   0  0  0  0  0  0
  -18.9463  -30.1422   23.8916 C   0  0  0  0  0  0
  -17.6465  -30.6569   24.0565 C   0  0  0  0  0  0
  -25.9021  -34.9495   23.5155 C   0  0  0  0  0  0
  -16.5355  -29.9075   23.6327 C   0  0  0  0  0  0
  -16.7259  -28.6487   23.0357 C   0  0  0  0  0  0
  -26.4464  -31.6627   25.0755 C   0  0  0  0  0  0
  -25.3748  -31.3772   26.1531 C   0  0  0  0  0  0
  -27.0276  -30.3051   24.6157 C   0  0  0  0  0  0
  -27.6066  -32.4339   25.7485 C   0  0  0  0  0  0
  -27.5586  -37.1820   24.8471 C   0  0  0  0  0  0
  -21.4128  -29.3027   22.3743 N   0  0  0  0  0  0
  -26.4305  -37.3806   23.9405 N   0  0  0  0  0  0
  -24.6618  -31.0845   22.1031 N   0  0  0  0  0  0
  -23.4175  -28.8234   23.3071 O   0  0  0  0  0  0
  -28.4423  -26.7989   20.0815 O   0  0  0  0  0  0
  -26.5589  -34.8939   22.4718 O   0  0  0  0  0  0
  -23.5313  -32.1485   23.7539 O   0  0  0  0  0  0
  -30.4780  -21.2376   17.6008 C   0  0  0  0  0  0
  -30.0872  -23.6089   17.3728 C   0  0  0  0  0  0
  -30.2382  -22.3494   16.7715 C   0  0  0  0  0  0
  -30.5337  -21.4226   18.9951 C   0  0  0  0  0  0
  -30.1462  -23.7065   18.7726 C   0  0  0  0  0  0
  -28.6767  -22.4317   14.8049 C   0  0  0  0  0  0
  -30.1208  -22.2090   15.2686 C   0  0  0  0  0  0
  -30.8825  -20.2683   19.9281 C   0  0  0  0  0  0
  -29.9757  -25.0561   19.4454 C   0  0  0  0  0  0
  -29.9414  -19.0498   19.8196 C   0  0  0  0  0  0
  -30.4172  -17.8387   20.6570 C   0  0  0  0  0  0
  -29.5224  -16.6084   20.4301 C   0  0  0  0  0  0
  -28.5200  -25.5371   19.4267 C   0  0  0  0  0  0
  -30.3428  -22.6311   19.5724 N   0  0  0  0  0  0
  -29.9230  -15.3896   21.1404 N   0  0  0  0  0  0
  -31.4835  -12.3755   19.1300 H   0  0  0  0  0  0
  -30.3340  -11.2590   19.8002 H   0  0  0  0  0  0
  -29.7396  -11.7788   17.4242 H   0  0  0  0  0  0
  -29.6933  -13.4860   17.7774 H   0  0  0  0  0  0
  -27.8051  -11.3249   18.7725 H   0  0  0  0  0  0
  -27.3924  -12.6953   17.7790 H   0  0  0  0  0  0
  -27.7380  -14.2491   19.6165 H   0  0  0  0  0  0
  -28.6776  -11.8711   21.2908 H   0  0  0  0  0  0
  -28.4727  -13.4770   21.9104 H   0  0  0  0  0  0
  -25.2776   -9.5610   22.4784 H   0  0  0  0  0  0
  -23.9949   -7.4598   22.7486 H   0  0  0  0  0  0
  -21.0810   -8.8822   19.8954 H   0  0  0  0  0  0
  -22.3755  -10.9673   19.6192 H   0  0  0  0  0  0
  -21.1995   -7.6135   23.9711 H   0  0  0  0  0  0
  -21.1507   -6.0496   25.9058 H   0  0  0  0  0  0
  -22.0612   -2.7610   23.2821 H   0  0  0  0  0  0
  -22.4067  -11.9980   22.4765 H   0  0  0  0  0  0
  -21.1170  -13.1441   22.2532 H   0  0  0  0  0  0
  -24.6835  -15.8459   20.5015 H   0  0  0  0  0  0
  -26.2903  -15.6006   20.0269 H   0  0  0  0  0  0
  -26.7099  -32.5560   23.1206 H   0  0  0  0  0  0
  -25.0049  -33.9819   25.0508 H   0  0  0  0  0  0
  -22.6849  -31.3131   21.4193 H   0  0  0  0  0  0
  -23.3722  -35.9694   23.3362 H   0  0  0  0  0  0
  -24.3581  -36.8887   22.2054 H   0  0  0  0  0  0
  -23.7250  -37.6568   23.6612 H   0  0  0  0  0  0
  -26.0515  -31.6091   20.6029 H   0  0  0  0  0  0
  -26.8075  -30.8840   21.9942 H   0  0  0  0  0  0
  -28.0914  -29.1366   21.1524 H   0  0  0  0  0  0
  -26.0298  -25.9766   19.0313 H   0  0  0  0  0  0
  -23.9674  -27.2761   19.0741 H   0  0  0  0  0  0
  -23.7130  -30.6053   19.4133 H   0  0  0  0  0  0
  -22.7233  -29.2524   19.8729 H   0  0  0  0  0  0
  -25.1264  -36.2048   25.0844 H   0  0  0  0  0  0
  -20.9955  -28.3211   24.1438 H   0  0  0  0  0  0
  -20.5627  -26.2263   23.3622 H   0  0  0  0  0  0
  -21.6632  -26.7410   22.1241 H   0  0  0  0  0  0
  -19.6903  -25.6281   21.1229 H   0  0  0  0  0  0
  -19.6669  -27.3189   20.6753 H   0  0  0  0  0  0
  -17.4191  -26.6688   21.3999 H   0  0  0  0  0  0
  -18.0285  -26.0031   22.8979 H   0  0  0  0  0  0
  -19.7942  -30.7230   24.2287 H   0  0  0  0  0  0
  -17.5027  -31.6248   24.5173 H   0  0  0  0  0  0
  -15.5354  -30.2993   23.7622 H   0  0  0  0  0  0
  -15.8660  -28.0803   22.7080 H   0  0  0  0  0  0
  -24.5895  -30.7129   25.7914 H   0  0  0  0  0  0
  -24.8965  -32.2943   26.4979 H   0  0  0  0  0  0
  -25.8112  -30.8965   27.0296 H   0  0  0  0  0  0
  -26.2818  -29.6822   24.1205 H   0  0  0  0  0  0
  -27.4017  -29.7298   25.4641 H   0  0  0  0  0  0
  -27.8679  -30.4348   23.9331 H   0  0  0  0  0  0
  -27.2700  -33.3610   26.2145 H   0  0  0  0  0  0
  -28.3808  -32.6955   25.0256 H   0  0  0  0  0  0
  -28.0819  -31.8428   26.5329 H   0  0  0  0  0  0
  -28.2655  -38.0064   24.7451 H   0  0  0  0  0  0
  -28.1023  -36.2601   24.6354 H   0  0  0  0  0  0
  -27.2321  -37.1557   25.8882 H   0  0  0  0  0  0
  -20.9287  -29.8762   21.6977 H   0  0  0  0  0  0
  -26.0218  -38.2910   24.1344 H   0  0  0  0  0  0
  -30.6322  -20.2566   17.1703 H   0  0  0  0  0  0
  -29.9162  -24.4903   16.7679 H   0  0  0  0  0  0
  -28.5787  -22.2908   13.7290 H   0  0  0  0  0  0
  -28.3418  -23.4430   15.0406 H   0  0  0  0  0  0
  -27.9985  -21.7362   15.3005 H   0  0  0  0  0  0
  -30.4699  -21.2243   14.9537 H   0  0  0  0  0  0
  -30.7838  -22.9350   14.7965 H   0  0  0  0  0  0
  -30.8874  -20.6247   20.9601 H   0  0  0  0  0  0
  -31.9081  -19.9691   19.7047 H   0  0  0  0  0  0
  -30.6067  -25.7809   18.9310 H   0  0  0  0  0  0
  -30.3385  -25.0082   20.4719 H   0  0  0  0  0  0
  -29.8696  -18.7418   18.7754 H   0  0  0  0  0  0
  -28.9312  -19.3449   20.1128 H   0  0  0  0  0  0
  -30.4271  -18.1010   21.7149 H   0  0  0  0  0  0
  -31.4467  -17.5957   20.3917 H   0  0  0  0  0  0
  -29.4575  -16.3955   19.3606 H   0  0  0  0  0  0
  -28.5049  -16.8392   20.7517 H   0  0  0  0  0  0
  -27.8783  -24.8093   19.9256 H   0  0  0  0  0  0
  -28.1896  -25.6350   18.3919 H   0  0  0  0  0  0
  -29.2070  -15.0193   21.7490 H   0  0  0  0  0  0
  1 25  1  0  0  0
  1 30  2  0  0  0
  1 85  1  0  0  0
  2  3  1  0  0  0
  2 25  1  0  0  0
  2 86  1  0  0  0
  2 87  1  0  0  0
  3  4  1  0  0  0
  3 88  1  0  0  0
  3 89  1  0  0  0
  4  5  1  0  0  0
  4 90  1  0  0  0
  4 91  1  0  0  0
  5  6  1  0  0  0
  5 26  1  0  0  0
  5 92  1  0  0  0
  6 25  1  0  0  0
  6 93  1  0  0  0
  6 94  1  0  0  0
  7  8  2  0  0  0
  7 26  1  0  0  0
  7 29  1  0  0  0
  8  9  1  0  0  0
  8 22  1  0  0  0
  9 10  1  0  0  0
  9 27  2  0  0  0
 10 11  2  0  0  0
 10 15  1  0  0  0
 11 12  1  0  0  0
 11 95  1  0  0  0
 12 13  2  0  0  0
 12 96  1  0  0  0
 13 14  1  0  0  0
 13 31  1  0  0  0
 14 15  2  0  0  0
 14 97  1  0  0  0
 15 98  1  0  0  0
 16 17  2  0  0  0
 16 21  1  0  0  0
 16 31  1  0  0  0
 17 18  1  0  0  0
 17 99  1  0  0  0
 18 19  2  0  0  0
 18100  1  0  0  0
 19 20  1  0  0  0
 19 24  1  0  0  0
 20 21  2  0  0  0
 20101  1  0  0  0
 21 23  1  0  0  0
 22 28  1  0  0  0
 22 32  2  0  0  0
 26 27  1  0  0  0
 28102  1  0  0  0
 28103  1  0  0  0
 29104  1  0  0  0
 29105  1  0  0  0
 33 34  1  0  0  0
 33 66  1  0  0  0
 33 70  2  0  0  0
 34 36  1  0  0  0
 34 59  1  0  0  0
 34106  1  0  0  0
 35 44  2  0  0  0
 35 45  1  0  0  0
 35 68  1  0  0  0
 36 56  1  0  0  0
 36107  1  0  0  0
 37 39  1  0  0  0
 37 47  1  0  0  0
 37 66  1  0  0  0
 37108  1  0  0  0
 38 43  2  0  0  0
 38 46  1  0  0  0
 38 47  1  0  0  0
 39 64  1  0  0  0
 39 67  2  0  0  0
 40 52  1  0  0  0
 40 53  2  0  0  0
 40 58  1  0  0  0
 41109  1  0  0  0
 41110  1  0  0  0
 41111  1  0  0  0
 41 48  1  0  0  0
 42 43  1  0  0  0
 42 66  1  0  0  0
 42112  1  0  0  0
 42113  1  0  0  0
 43 44  1  0  0  0
 44114  1  0  0  0
 45 46  2  0  0  0
 45115  1  0  0  0
 46116  1  0  0  0
 47117  1  0  0  0
 47118  1  0  0  0
 48 56  1  0  0  0
 48 65  1  0  0  0
 48119  1  0  0  0
 49 50  1  0  0  0
 49 53  1  0  0  0
 49 64  1  0  0  0
 49120  1  0  0  0
 50 51  1  0  0  0
 50121  1  0  0  0
 50122  1  0  0  0
 51 52  1  0  0  0
 51123  1  0  0  0
 51124  1  0  0  0
 52125  1  0  0  0
 52126  1  0  0  0
 53 54  1  0  0  0
 54 55  2  0  0  0
 54127  1  0  0  0
 55 57  1  0  0  0
 55128  1  0  0  0
 56 69  2  0  0  0
 57 58  2  0  0  0
 57129  1  0  0  0
 58130  1  0  0  0
 59 60  1  0  0  0
 59 61  1  0  0  0
 59 62  1  0  0  0
 60131  1  0  0  0
 60132  1  0  0  0
 60133  1  0  0  0
 61134  1  0  0  0
 61135  1  0  0  0
 61136  1  0  0  0
 62137  1  0  0  0
 62138  1  0  0  0
 62139  1  0  0  0
 63 65  1  0  0  0
 63140  1  0  0  0
 63141  1  0  0  0
 63142  1  0  0  0
 64143  1  0  0  0
 65144  1  0  0  0
 68 83  1  0  0  0
 71 73  2  0  0  0
 71 74  1  0  0  0
 71145  1  0  0  0
 72 73  1  0  0  0
 72 75  2  0  0  0
 72146  1  0  0  0
 73 77  1  0  0  0
 74 78  1  0  0  0
 74 84  2  0  0  0
 75 79  1  0  0  0
 75 84  1  0  0  0
 76 77  1  0  0  0
 76147  1  0  0  0
 76148  1  0  0  0
 76149  1  0  0  0
 77150  1  0  0  0
 77151  1  0  0  0
 78 80  1  0  0  0
 78152  1  0  0  0
 78153  1  0  0  0
 79 83  1  0  0  0
 79154  1  0  0  0
 79155  1  0  0  0
 80 81  1  0  0  0
 80156  1  0  0  0
 80157  1  0  0  0
 81 82  1  0  0  0
 81158  1  0  0  0
 81159  1  0  0  0
 82 85  1  0  0  0
 82160  1  0  0  0
 82161  1  0  0  0
 83162  1  0  0  0
 83163  1  0  0  0
 85164  1  0  0  0
M  ISO  4   1 100  68 101  83 101  85 100
M  END
> <chiral flag>
0

> <version>
0

> <s_m_source_file>
/data/baiqing/PycharmProjects/Reinvent-master-3.2/result/LINK_invent/BTK/process_docking_weight1_custom_sum_contain_oxygen_bond_distance_aromatic_linkinvent_7_9_3/rearranged_h_0038.sdf

> <i_m_source_file_index>
28

> <r_mmod_Potential_Energy-OPLS-2005>
-226.754684448242

> <r_mmod_Stretch_Energy-OPLS-2005>
32.4043159484863

> <r_mmod_Bend_Energy-OPLS-2005>
92.4912719726562

> <r_mmod_Torsional_Energy-OPLS-2005>
214.113204956055

> <r_mmod_Improper_Torsional_Energy-OPLS-2005>
8.14594745635986

> <r_mmod_Van_der_Waal_Energy-OPLS-2005>
154.420608520508

> <r_mmod_Electrostatic_Energy-OPLS-2005>
-516.20849609375

> <r_mmod_Solvation_Energy-OPLS-2005>
-222.660949707031

> <b_mmod_Minimization_Converged-OPLS-2005>
0

> <r_mmod_RMS_Derivative-OPLS-2005>
3.37660002708435

$$$$
28
                    3D
 Structure written by MMmdl.
162170  0  0  1  0            999 V2000
  -30.8270  -14.2663   20.7368 C   0  0  0  0  0  0
  -30.3968  -12.2783   19.3514 C   0  0  0  0  0  0
  -29.4574  -12.5401   18.1645 C   0  0  0  0  0  0
  -27.9898  -12.3850   18.5957 C   0  0  0  0  0  0
  -27.6613  -13.2029   19.8705 C   0  0  2  0  0  0
  -28.7013  -12.9455   20.9823 C   0  0  0  0  0  0
  -25.2577  -13.8162   20.5662 C   0  0  0  0  0  0
  -24.1827  -13.0444   20.9158 C   0  0  0  0  0  0
  -24.6371  -11.6909   20.8717 C   0  0  0  0  0  0
  -23.9041  -10.4301   21.0392 C   0  0  0  0  0  0
  -24.3599   -9.4224   21.9174 C   0  0  0  0  0  0
  -23.6280   -8.2254   22.0759 C   0  0  0  0  0  0
  -22.4265   -8.0282   21.3552 C   0  0  0  0  0  0
  -21.9895   -9.0244   20.4652 C   0  0  0  0  0  0
  -22.7210  -10.2129   20.3049 C   0  0  0  0  0  0
  -21.6861   -6.0736   22.5289 C   0  0  0  0  0  0
  -21.4009   -6.5641   23.8219 C   0  0  0  0  0  0
  -21.3655   -5.6793   24.9181 C   0  0  0  0  0  0
  -21.6046   -4.3055   24.7230 C   0  0  0  0  0  0
  -21.8814   -3.8147   23.4354 C   0  0  0  0  0  0
  -21.9187   -4.6961   22.3415 C   0  0  0  0  0  0
  -22.7853  -13.5256   21.1832 C   0  0  0  0  0  0
  -22.1662   -4.2149   21.0988 F   0  0  0  0  0  0
  -21.5624   -3.4542   25.7742 F   0  0  0  0  0  0
  -30.0497  -13.1986   20.4418 N   0  0  0  0  0  0
  -26.3017  -12.9331   20.3351 N   0  0  0  0  0  0
  -25.9295  -11.6492   20.5732 N   0  0  0  0  0  0
  -22.0487  -12.8252   22.0387 N   0  0  0  0  0  0
  -25.4296  -15.1875   20.4091 N   0  0  0  0  0  0
  -31.7490  -14.6651   20.0189 O   0  0  0  0  0  0
  -21.6640   -6.8871   21.4249 O   0  0  0  0  0  0
  -22.3549  -14.5560   20.6678 O   0  0  0  0  0  0
  -24.6079  -31.8746   23.2121 C   0  0  0  0  0  0
  -25.8994  -32.4858   23.8419 C   0  0  1  0  0  0
  -27.2347  -27.4716   20.0773 C   0  0  0  0  0  0
  -25.5884  -33.8661   24.2344 N   0  0  0  0  0  0
  -23.3933  -30.5000   21.5513 C   0  0  2  0  0  0
  -24.8349  -28.9682   20.1215 C   0  0  0  0  0  0
  -22.7387  -29.4696   22.4991 C   0  0  0  0  0  0
  -18.0271  -28.1379   22.8483 C   0  0  0  0  0  0
  -24.1492  -36.7339   23.2639 C   0  0  0  0  0  0
  -25.9198  -30.8505   21.3598 C   0  0  0  0  0  0
  -25.9929  -29.4853   20.7123 C   0  0  0  0  0  0
  -27.1893  -28.7425   20.6895 C   0  0  0  0  0  0
  -26.0458  -26.9483   19.5123 C   0  0  0  0  0  0
  -24.8537  -27.6962   19.5288 C   0  0  0  0  0  0
  -23.5997  -29.8353   20.1641 C   0  0  0  0  0  0
  -25.4107  -36.3142   24.0340 C   0  0  1  0  0  0
  -20.5859  -28.3653   23.1338 C   0  0  2  0  0  0
  -20.6764  -26.9400   22.5416 C   0  0  0  0  0  0
  -19.5737  -26.6376   21.5227 C   0  0  0  0  0  0
  -18.1912  -26.7924   22.1618 C   0  0  0  0  0  0
  -19.1524  -28.8825   23.2912 C   0  0  0  0  0  0
  -18.9460  -30.1426   23.8919 C   0  0  0  0  0  0
  -17.6470  -30.6588   24.0557 C   0  0  0  0  0  0
  -25.9037  -34.9509   23.5148 C   0  0  0  0  0  0
  -16.5359  -29.9094   23.6323 C   0  0  0  0  0  0
  -16.7269  -28.6509   23.0345 C   0  0  0  0  0  0
  -26.4424  -31.6645   25.0758 C   0  0  0  0  0  0
  -25.3695  -31.3786   26.1522 C   0  0  0  0  0  0
  -27.0232  -30.3083   24.6119 C   0  0  0  0  0  0
  -27.5999  -32.4365   25.7526 C   0  0  0  0  0  0
  -27.5579  -37.1826   24.8457 C   0  0  0  0  0  0
  -21.4113  -29.3059   22.3760 N   0  0  0  0  0  0
  -26.4285  -37.3833   23.9417 N   0  0  0  0  0  0
  -24.6591  -31.0896   22.1002 N   0  0  0  0  0  0
  -23.4186  -28.8233   23.3001 O   0  0  0  0  0  0
  -28.4631  -26.8482   20.0416 O   0  0  0  0  0  0
  -26.5605  -34.8949   22.4707 O   0  0  0  0  0  0
  -23.5279  -32.1466   23.7535 O   0  0  0  0  0  0
  -29.6998  -23.3857   20.6622 C   0  0  0  0  0  0
  -28.8707  -24.5388   20.6902 C   0  0  0  0  0  0
  -29.6405  -22.8862   21.9309 C   0  0  0  0  0  0
  -28.3824  -23.6366   24.0351 C   0  0  0  0  0  0
  -28.6230  -25.5100   19.5672 C   0  0  0  0  0  0
  -30.3532  -21.7189   22.5348 C   0  0  0  0  0  0
  -30.1260  -20.3745   21.8216 C   0  0  0  0  0  0
  -30.6140  -19.2414   22.7343 C   0  0  0  0  0  0
  -30.7264  -17.8443   22.1101 C   0  0  0  0  0  0
  -31.0800  -16.8346   23.2172 C   0  0  0  0  0  0
  -31.6455  -15.5011   22.7258 C   0  0  0  0  0  0
  -28.3150  -24.7189   21.8814 N   0  0  0  0  0  0
  -28.7905  -23.7120   22.6458 N   0  0  0  0  0  0
  -30.6646  -14.7139   21.9858 N   0  0  0  0  0  0
  -31.4376  -12.3757   19.0372 H   0  0  0  0  0  0
  -30.2888  -11.2485   19.6955 H   0  0  0  0  0  0
  -29.6811  -11.8555   17.3448 H   0  0  0  0  0  0
  -29.6232  -13.5466   17.7773 H   0  0  0  0  0  0
  -27.7993  -11.3259   18.7689 H   0  0  0  0  0  0
  -27.3279  -12.6819   17.7820 H   0  0  0  0  0  0
  -27.7193  -14.2571   19.5970 H   0  0  0  0  0  0
  -28.6454  -11.9112   21.3259 H   0  0  0  0  0  0
  -28.4547  -13.5614   21.8472 H   0  0  0  0  0  0
  -25.2743   -9.5716   22.4747 H   0  0  0  0  0  0
  -23.9999   -7.4659   22.7492 H   0  0  0  0  0  0
  -21.0822   -8.8749   19.8965 H   0  0  0  0  0  0
  -22.3655  -10.9658   19.6158 H   0  0  0  0  0  0
  -21.2003   -7.6150   23.9723 H   0  0  0  0  0  0
  -21.1481   -6.0527   25.9086 H   0  0  0  0  0  0
  -22.0589   -2.7612   23.2857 H   0  0  0  0  0  0
  -22.4085  -11.9914   22.4786 H   0  0  0  0  0  0
  -21.1105  -13.1293   22.2573 H   0  0  0  0  0  0
  -24.6664  -15.8443   20.5292 H   0  0  0  0  0  0
  -26.2906  -15.6325   20.1151 H   0  0  0  0  0  0
  -26.7063  -32.5573   23.1184 H   0  0  0  0  0  0
  -25.0036  -33.9863   25.0479 H   0  0  0  0  0  0
  -22.6786  -31.3137   21.4125 H   0  0  0  0  0  0
  -23.3761  -35.9670   23.3320 H   0  0  0  0  0  0
  -24.3569  -36.8941   22.2047 H   0  0  0  0  0  0
  -23.7245  -37.6554   23.6635 H   0  0  0  0  0  0
  -26.0298  -31.6150   20.5896 H   0  0  0  0  0  0
  -26.8099  -30.9043   21.9747 H   0  0  0  0  0  0
  -28.0871  -29.1517   21.1308 H   0  0  0  0  0  0
  -25.9958  -25.9817   19.0401 H   0  0  0  0  0  0
  -23.9575  -27.2858   19.0851 H   0  0  0  0  0  0
  -23.7105  -30.6137   19.4071 H   0  0  0  0  0  0
  -22.7219  -29.2589   19.8630 H   0  0  0  0  0  0
  -25.1280  -36.2017   25.0833 H   0  0  0  0  0  0
  -20.9938  -28.3197   24.1459 H   0  0  0  0  0  0
  -20.5672  -26.2258   23.3595 H   0  0  0  0  0  0
  -21.6627  -26.7449   22.1190 H   0  0  0  0  0  0
  -19.6885  -25.6290   21.1237 H   0  0  0  0  0  0
  -19.6669  -27.3194   20.6777 H   0  0  0  0  0  0
  -17.4179  -26.6698   21.4013 H   0  0  0  0  0  0
  -18.0271  -26.0089   22.9025 H   0  0  0  0  0  0
  -19.7951  -30.7231   24.2286 H   0  0  0  0  0  0
  -17.5044  -31.6268   24.5151 H   0  0  0  0  0  0
  -15.5350  -30.3006   23.7638 H   0  0  0  0  0  0
  -15.8671  -28.0828   22.7050 H   0  0  0  0  0  0
  -24.5859  -30.7117   25.7915 H   0  0  0  0  0  0
  -24.8877  -32.2965   26.4922 H   0  0  0  0  0  0
  -25.8054  -30.9026   27.0316 H   0  0  0  0  0  0
  -26.2785  -29.6907   24.1083 H   0  0  0  0  0  0
  -27.3929  -29.7257   25.4573 H   0  0  0  0  0  0
  -27.8653  -30.4420   23.9321 H   0  0  0  0  0  0
  -27.2616  -33.3673   26.2091 H   0  0  0  0  0  0
  -28.3829  -32.6907   25.0372 H   0  0  0  0  0  0
  -28.0645  -31.8497   26.5465 H   0  0  0  0  0  0
  -28.2606  -38.0117   24.7513 H   0  0  0  0  0  0
  -28.1072  -36.2647   24.6274 H   0  0  0  0  0  0
  -27.2302  -37.1493   25.8866 H   0  0  0  0  0  0
  -20.9228  -29.8860   21.7073 H   0  0  0  0  0  0
  -26.0186  -38.2920   24.1410 H   0  0  0  0  0  0
  -30.2818  -23.0016   19.8344 H   0  0  0  0  0  0
  -27.7680  -22.7503   24.1930 H   0  0  0  0  0  0
  -27.8049  -24.5173   24.3173 H   0  0  0  0  0  0
  -29.2597  -23.5760   24.6786 H   0  0  0  0  0  0
  -27.8327  -25.1440   18.9195 H   0  0  0  0  0  0
  -29.5027  -25.5264   18.9247 H   0  0  0  0  0  0
  -30.0805  -21.6218   23.5853 H   0  0  0  0  0  0
  -31.4231  -21.9314   22.5364 H   0  0  0  0  0  0
  -30.6419  -20.3691   20.8601 H   0  0  0  0  0  0
  -29.0651  -20.2331   21.6098 H   0  0  0  0  0  0
  -29.9495  -19.1910   23.5970 H   0  0  0  0  0  0
  -31.5957  -19.5107   23.1293 H   0  0  0  0  0  0
  -31.5005  -17.8498   21.3417 H   0  0  0  0  0  0
  -29.8005  -17.5510   21.6125 H   0  0  0  0  0  0
  -30.2061  -16.6630   23.8485 H   0  0  0  0  0  0
  -31.8329  -17.2770   23.8722 H   0  0  0  0  0  0
  -31.9558  -14.9097   23.5889 H   0  0  0  0  0  0
  -32.5550  -15.6763   22.1472 H   0  0  0  0  0  0
  -29.9151  -14.2889   22.5137 H   0  0  0  0  0  0
  1 25  1  0  0  0
  1 30  2  0  0  0
  1 84  1  0  0  0
  2  3  1  0  0  0
  2 25  1  0  0  0
  2 85  1  0  0  0
  2 86  1  0  0  0
  3  4  1  0  0  0
  3 87  1  0  0  0
  3 88  1  0  0  0
  4  5  1  0  0  0
  4 89  1  0  0  0
  4 90  1  0  0  0
  5  6  1  0  0  0
  5 26  1  0  0  0
  5 91  1  0  0  0
  6 25  1  0  0  0
  6 92  1  0  0  0
  6 93  1  0  0  0
  7  8  2  0  0  0
  7 26  1  0  0  0
  7 29  1  0  0  0
  8  9  1  0  0  0
  8 22  1  0  0  0
  9 10  1  0  0  0
  9 27  2  0  0  0
 10 11  2  0  0  0
 10 15  1  0  0  0
 11 12  1  0  0  0
 11 94  1  0  0  0
 12 13  2  0  0  0
 12 95  1  0  0  0
 13 14  1  0  0  0
 13 31  1  0  0  0
 14 15  2  0  0  0
 14 96  1  0  0  0
 15 97  1  0  0  0
 16 17  2  0  0  0
 16 21  1  0  0  0
 16 31  1  0  0  0
 17 18  1  0  0  0
 17 98  1  0  0  0
 18 19  2  0  0  0
 18 99  1  0  0  0
 19 20  1  0  0  0
 19 24  1  0  0  0
 20 21  2  0  0  0
 20100  1  0  0  0
 21 23  1  0  0  0
 22 28  1  0  0  0
 22 32  2  0  0  0
 26 27  1  0  0  0
 28101  1  0  0  0
 28102  1  0  0  0
 29103  1  0  0  0
 29104  1  0  0  0
 33 34  1  0  0  0
 33 66  1  0  0  0
 33 70  2  0  0  0
 34 36  1  0  0  0
 34 59  1  0  0  0
 34105  1  0  0  0
 35 44  2  0  0  0
 35 45  1  0  0  0
 35 68  1  0  0  0
 36 56  1  0  0  0
 36106  1  0  0  0
 37 39  1  0  0  0
 37 47  1  0  0  0
 37 66  1  0  0  0
 37107  1  0  0  0
 38 43  2  0  0  0
 38 46  1  0  0  0
 38 47  1  0  0  0
 39 64  1  0  0  0
 39 67  2  0  0  0
 40 52  1  0  0  0
 40 53  2  0  0  0
 40 58  1  0  0  0
 41108  1  0  0  0
 41109  1  0  0  0
 41110  1  0  0  0
 41 48  1  0  0  0
 42 43  1  0  0  0
 42 66  1  0  0  0
 42111  1  0  0  0
 42112  1  0  0  0
 43 44  1  0  0  0
 44113  1  0  0  0
 45 46  2  0  0  0
 45114  1  0  0  0
 46115  1  0  0  0
 47116  1  0  0  0
 47117  1  0  0  0
 48 56  1  0  0  0
 48 65  1  0  0  0
 48118  1  0  0  0
 49 50  1  0  0  0
 49 53  1  0  0  0
 49 64  1  0  0  0
 49119  1  0  0  0
 50 51  1  0  0  0
 50120  1  0  0  0
 50121  1  0  0  0
 51 52  1  0  0  0
 51122  1  0  0  0
 51123  1  0  0  0
 52124  1  0  0  0
 52125  1  0  0  0
 53 54  1  0  0  0
 54 55  2  0  0  0
 54126  1  0  0  0
 55 57  1  0  0  0
 55127  1  0  0  0
 56 69  2  0  0  0
 57 58  2  0  0  0
 57128  1  0  0  0
 58129  1  0  0  0
 59 60  1  0  0  0
 59 61  1  0  0  0
 59 62  1  0  0  0
 60130  1  0  0  0
 60131  1  0  0  0
 60132  1  0  0  0
 61133  1  0  0  0
 61134  1  0  0  0
 61135  1  0  0  0
 62136  1  0  0  0
 62137  1  0  0  0
 62138  1  0  0  0
 63 65  1  0  0  0
 63139  1  0  0  0
 63140  1  0  0  0
 63141  1  0  0  0
 64142  1  0  0  0
 65143  1  0  0  0
 68 75  1  0  0  0
 71 72  1  0  0  0
 71 73  2  0  0  0
 71144  1  0  0  0
 72 75  1  0  0  0
 72 82  2  0  0  0
 73 76  1  0  0  0
 73 83  1  0  0  0
 74 83  1  0  0  0
 74145  1  0  0  0
 74146  1  0  0  0
 74147  1  0  0  0
 75148  1  0  0  0
 75149  1  0  0  0
 76 77  1  0  0  0
 76150  1  0  0  0
 76151  1  0  0  0
 77 78  1  0  0  0
 77152  1  0  0  0
 77153  1  0  0  0
 78 79  1  0  0  0
 78154  1  0  0  0
 78155  1  0  0  0
 79 80  1  0  0  0
 79156  1  0  0  0
 79157  1  0  0  0
 80 81  1  0  0  0
 80158  1  0  0  0
 80159  1  0  0  0
 81 84  1  0  0  0
 81160  1  0  0  0
 81161  1  0  0  0
 82 83  1  0  0  0
 84162  1  0  0  0
M  ISO  4   1 100  68 101  75 101  84 100
M  END
> <chiral flag>
0

> <version>
0

> <s_m_source_file>
/data/baiqing/PycharmProjects/Reinvent-master-3.2/result/LINK_invent/BTK/process_docking_weight1_custom_sum_contain_oxygen_bond_distance_aromatic_linkinvent_7_9_3/rearranged_h_0038.sdf

> <i_m_source_file_index>
29

> <r_mmod_Potential_Energy-OPLS-2005>
-87.9017944335938

> <r_mmod_Stretch_Energy-OPLS-2005>
29.28200340271

> <r_mmod_Bend_Energy-OPLS-2005>
105.035133361816

> <r_mmod_Torsional_Energy-OPLS-2005>
208.886032104492

> <r_mmod_Improper_Torsional_Energy-OPLS-2005>
5.18374919891357

> <r_mmod_Van_der_Waal_Energy-OPLS-2005>
133.033676147461

> <r_mmod_Electrostatic_Energy-OPLS-2005>
-358.352569580078

> <r_mmod_Solvation_Energy-OPLS-2005>
-221.788162231445

> <b_mmod_Minimization_Converged-OPLS-2005>
0

> <r_mmod_RMS_Derivative-OPLS-2005>
3.04458427429199

$$$$
29
                    3D
 Structure written by MMmdl.
156164  0  0  1  0            999 V2000
  -30.6506  -14.5625   20.5469 C   0  0  0  0  0  0
  -30.4284  -12.3615   19.4241 C   0  0  0  0  0  0
  -29.4923  -12.5095   18.2059 C   0  0  0  0  0  0
  -28.0175  -12.3522   18.6268 C   0  0  0  0  0  0
  -27.6527  -13.2108   19.8679 C   0  0  2  0  0  0
  -28.6969  -13.0328   20.9916 C   0  0  0  0  0  0
  -25.2553  -13.8142   20.5694 C   0  0  0  0  0  0
  -24.1823  -13.0422   20.9192 C   0  0  0  0  0  0
  -24.6384  -11.6889   20.8731 C   0  0  0  0  0  0
  -23.9051  -10.4285   21.0410 C   0  0  0  0  0  0
  -24.3606   -9.4207   21.9190 C   0  0  0  0  0  0
  -23.6287   -8.2240   22.0751 C   0  0  0  0  0  0
  -22.4268   -8.0280   21.3544 C   0  0  0  0  0  0
  -21.9906   -9.0251   20.4645 C   0  0  0  0  0  0
  -22.7223  -10.2136   20.3064 C   0  0  0  0  0  0
  -21.6853   -6.0747   22.5286 C   0  0  0  0  0  0
  -21.4021   -6.5651   23.8220 C   0  0  0  0  0  0
  -21.3657   -5.6801   24.9179 C   0  0  0  0  0  0
  -21.6037   -4.3064   24.7224 C   0  0  0  0  0  0
  -21.8812   -3.8157   23.4345 C   0  0  0  0  0  0
  -21.9191   -4.6976   22.3405 C   0  0  0  0  0  0
  -22.7854  -13.5225   21.1880 C   0  0  0  0  0  0
  -22.1659   -4.2169   21.0979 F   0  0  0  0  0  0
  -21.5622   -3.4539   25.7732 F   0  0  0  0  0  0
  -30.0133  -13.3618   20.4243 N   0  0  0  0  0  0
  -26.2979  -12.9324   20.3344 N   0  0  0  0  0  0
  -25.9308  -11.6476   20.5752 N   0  0  0  0  0  0
  -22.0499  -12.8213   22.0427 N   0  0  0  0  0  0
  -25.4237  -15.1866   20.4111 N   0  0  0  0  0  0
  -31.8107  -14.7325   20.1627 O   0  0  0  0  0  0
  -21.6633   -6.8881   21.4241 O   0  0  0  0  0  0
  -22.3551  -14.5554   20.6754 O   0  0  0  0  0  0
  -24.6209  -31.8638   23.2049 C   0  0  0  0  0  0
  -25.9080  -32.4800   23.8368 C   0  0  1  0  0  0
  -27.2312  -27.3744   20.1174 C   0  0  0  0  0  0
  -25.5915  -33.8598   24.2301 N   0  0  0  0  0  0
  -23.4116  -30.4847   21.5467 C   0  0  2  0  0  0
  -24.8575  -28.9359   20.1231 C   0  0  0  0  0  0
  -22.7436  -29.4633   22.4966 C   0  0  0  0  0  0
  -18.0272  -28.1383   22.8487 C   0  0  0  0  0  0
  -24.1484  -36.7297   23.2639 C   0  0  0  0  0  0
  -25.9446  -30.8131   21.3650 C   0  0  0  0  0  0
  -26.0220  -29.4407   20.7154 C   0  0  0  0  0  0
  -27.2142  -28.6709   20.6991 C   0  0  0  0  0  0
  -26.0462  -26.8923   19.5257 C   0  0  0  0  0  0
  -24.8666  -27.6638   19.5234 C   0  0  0  0  0  0
  -23.6245  -29.8129   20.1643 C   0  0  0  0  0  0
  -25.4111  -36.3087   24.0325 C   0  0  1  0  0  0
  -20.5869  -28.3675   23.1300 C   0  0  2  0  0  0
  -20.6753  -26.9406   22.5414 C   0  0  0  0  0  0
  -19.5734  -26.6382   21.5207 C   0  0  0  0  0  0
  -18.1915  -26.7926   22.1622 C   0  0  0  0  0  0
  -19.1527  -28.8843   23.2890 C   0  0  0  0  0  0
  -18.9457  -30.1447   23.8907 C   0  0  0  0  0  0
  -17.6462  -30.6587   24.0567 C   0  0  0  0  0  0
  -25.9045  -34.9453   23.5112 C   0  0  0  0  0  0
  -16.5349  -29.9093   23.6331 C   0  0  0  0  0  0
  -16.7263  -28.6509   23.0351 C   0  0  0  0  0  0
  -26.4490  -31.6591   25.0718 C   0  0  0  0  0  0
  -25.3749  -31.3715   26.1466 C   0  0  0  0  0  0
  -27.0332  -30.3025   24.6130 C   0  0  0  0  0  0
  -27.6055  -32.4319   25.7492 C   0  0  0  0  0  0
  -27.5573  -37.1805   24.8466 C   0  0  0  0  0  0
  -21.4156  -29.3042   22.3703 N   0  0  0  0  0  0
  -26.4289  -37.3777   23.9406 N   0  0  0  0  0  0
  -24.6772  -31.0695   22.0969 N   0  0  0  0  0  0
  -23.4180  -28.8179   23.3032 O   0  0  0  0  0  0
  -28.3927  -26.6179   20.0599 O   0  0  0  0  0  0
  -26.5609  -34.8908   22.4673 O   0  0  0  0  0  0
  -23.5385  -32.1413   23.7413 O   0  0  0  0  0  0
  -30.5035  -21.3967   19.5543 C   0  0  0  0  0  0
  -29.6245  -20.8804   20.5447 C   0  0  0  0  0  0
  -30.0104  -22.6308   19.2234 C   0  0  0  0  0  0
  -30.5222  -23.6216   18.2279 C   0  0  0  0  0  0
  -29.8076  -19.5729   21.3391 C   0  0  0  0  0  0
  -29.6218  -18.1934   20.6002 C   0  0  0  0  0  0
  -27.9707  -24.0371   19.9458 C   0  0  0  0  0  0
  -30.3063  -16.9829   21.3463 C   0  0  0  0  0  0
  -28.4330  -25.3203   20.7265 C   0  0  0  0  0  0
  -28.6409  -21.7654   20.7923 N   0  0  0  0  0  0
  -28.8824  -22.8590   19.9946 N   0  0  0  0  0  0
  -29.8847  -15.6004   20.9786 N   0  0  0  0  0  0
  -31.4680  -12.4856   19.1170 H   0  0  0  0  0  0
  -30.3561  -11.3565   19.8409 H   0  0  0  0  0  0
  -29.7428  -11.7699   17.4439 H   0  0  0  0  0  0
  -29.6391  -13.4861   17.7412 H   0  0  0  0  0  0
  -27.8474  -11.2974   18.8474 H   0  0  0  0  0  0
  -27.3592  -12.5978   17.7933 H   0  0  0  0  0  0
  -27.6817  -14.2524   19.5474 H   0  0  0  0  0  0
  -28.6950  -12.0066   21.3598 H   0  0  0  0  0  0
  -28.4538  -13.6557   21.8527 H   0  0  0  0  0  0
  -25.2752   -9.5686   22.4775 H   0  0  0  0  0  0
  -24.0000   -7.4629   22.7465 H   0  0  0  0  0  0
  -21.0843   -8.8762   19.8949 H   0  0  0  0  0  0
  -22.3673  -10.9679   19.6188 H   0  0  0  0  0  0
  -21.2023   -7.6166   23.9725 H   0  0  0  0  0  0
  -21.1485   -6.0538   25.9083 H   0  0  0  0  0  0
  -22.0591   -2.7622   23.2837 H   0  0  0  0  0  0
  -22.4105  -11.9871   22.4825 H   0  0  0  0  0  0
  -21.1119  -13.1246   22.2637 H   0  0  0  0  0  0
  -24.6477  -15.8307   20.5172 H   0  0  0  0  0  0
  -26.2658  -15.6332   20.0706 H   0  0  0  0  0  0
  -26.7151  -32.5496   23.1122 H   0  0  0  0  0  0
  -25.0048  -33.9759   25.0438 H   0  0  0  0  0  0
  -22.7026  -31.3020   21.4011 H   0  0  0  0  0  0
  -23.3733  -35.9645   23.3316 H   0  0  0  0  0  0
  -24.3575  -36.8909   22.2053 H   0  0  0  0  0  0
  -23.7247  -37.6502   23.6660 H   0  0  0  0  0  0
  -26.0633  -31.5777   20.5954 H   0  0  0  0  0  0
  -26.8293  -30.8668   21.9871 H   0  0  0  0  0  0
  -28.1179  -29.0641   21.1441 H   0  0  0  0  0  0
  -26.0326  -25.9210   19.0548 H   0  0  0  0  0  0
  -23.9715  -27.2707   19.0614 H   0  0  0  0  0  0
  -23.7444  -30.5862   19.4041 H   0  0  0  0  0  0
  -22.7457  -29.2395   19.8631 H   0  0  0  0  0  0
  -25.1290  -36.1930   25.0817 H   0  0  0  0  0  0
  -20.9960  -28.3244   24.1420 H   0  0  0  0  0  0
  -20.5627  -26.2295   23.3611 H   0  0  0  0  0  0
  -21.6629  -26.7424   22.1229 H   0  0  0  0  0  0
  -19.6897  -25.6292   21.1233 H   0  0  0  0  0  0
  -19.6668  -27.3195   20.6739 H   0  0  0  0  0  0
  -17.4181  -26.6669   21.4025 H   0  0  0  0  0  0
  -18.0324  -26.0072   22.9023 H   0  0  0  0  0  0
  -19.7938  -30.7254   24.2278 H   0  0  0  0  0  0
  -17.5024  -31.6269   24.5168 H   0  0  0  0  0  0
  -15.5354  -30.3001   23.7646 H   0  0  0  0  0  0
  -15.8663  -28.0828   22.7065 H   0  0  0  0  0  0
  -24.5905  -30.7084   25.7795 H   0  0  0  0  0  0
  -24.8975  -32.2890   26.4921 H   0  0  0  0  0  0
  -25.8104  -30.8865   27.0217 H   0  0  0  0  0  0
  -26.2899  -29.6768   24.1181 H   0  0  0  0  0  0
  -27.4075  -29.7268   25.4604 H   0  0  0  0  0  0
  -27.8737  -30.4309   23.9308 H   0  0  0  0  0  0
  -27.2662  -33.3607   26.2088 H   0  0  0  0  0  0
  -28.3868  -32.6908   25.0334 H   0  0  0  0  0  0
  -28.0729  -31.8444   26.5400 H   0  0  0  0  0  0
  -28.2596  -38.0095   24.7502 H   0  0  0  0  0  0
  -28.1059  -36.2623   24.6306 H   0  0  0  0  0  0
  -27.2298  -37.1480   25.8873 H   0  0  0  0  0  0
  -20.9314  -29.8789   21.6945 H   0  0  0  0  0  0
  -26.0159  -38.2842   24.1426 H   0  0  0  0  0  0
  -31.3938  -20.9295   19.1562 H   0  0  0  0  0  0
  -30.6499  -24.6026   18.6860 H   0  0  0  0  0  0
  -29.8359  -23.7193   17.3863 H   0  0  0  0  0  0
  -31.4896  -23.3146   17.8310 H   0  0  0  0  0  0
  -29.1599  -19.5833   22.2172 H   0  0  0  0  0  0
  -30.8182  -19.5874   21.7488 H   0  0  0  0  0  0
  -30.0530  -18.2632   19.6009 H   0  0  0  0  0  0
  -28.5565  -18.0120   20.4590 H   0  0  0  0  0  0
  -27.8241  -24.2888   18.8956 H   0  0  0  0  0  0
  -26.9910  -23.7310   20.3150 H   0  0  0  0  0  0
  -31.3896  -17.0796   21.2567 H   0  0  0  0  0  0
  -30.0927  -17.0809   22.4115 H   0  0  0  0  0  0
  -29.4743  -25.1801   21.0182 H   0  0  0  0  0  0
  -27.8876  -25.3787   21.6699 H   0  0  0  0  0  0
  -28.9305  -15.3578   21.2015 H   0  0  0  0  0  0
  1 25  1  0  0  0
  1 30  2  0  0  0
  1 82  1  0  0  0
  2  3  1  0  0  0
  2 25  1  0  0  0
  2 83  1  0  0  0
  2 84  1  0  0  0
  3  4  1  0  0  0
  3 85  1  0  0  0
  3 86  1  0  0  0
  4  5  1  0  0  0
  4 87  1  0  0  0
  4 88  1  0  0  0
  5  6  1  0  0  0
  5 26  1  0  0  0
  5 89  1  0  0  0
  6 25  1  0  0  0
  6 90  1  0  0  0
  6 91  1  0  0  0
  7  8  2  0  0  0
  7 26  1  0  0  0
  7 29  1  0  0  0
  8  9  1  0  0  0
  8 22  1  0  0  0
  9 10  1  0  0  0
  9 27  2  0  0  0
 10 11  2  0  0  0
 10 15  1  0  0  0
 11 12  1  0  0  0
 11 92  1  0  0  0
 12 13  2  0  0  0
 12 93  1  0  0  0
 13 14  1  0  0  0
 13 31  1  0  0  0
 14 15  2  0  0  0
 14 94  1  0  0  0
 15 95  1  0  0  0
 16 17  2  0  0  0
 16 21  1  0  0  0
 16 31  1  0  0  0
 17 18  1  0  0  0
 17 96  1  0  0  0
 18 19  2  0  0  0
 18 97  1  0  0  0
 19 20  1  0  0  0
 19 24  1  0  0  0
 20 21  2  0  0  0
 20 98  1  0  0  0
 21 23  1  0  0  0
 22 28  1  0  0  0
 22 32  2  0  0  0
 26 27  1  0  0  0
 28 99  1  0  0  0
 28100  1  0  0  0
 29101  1  0  0  0
 29102  1  0  0  0
 33 34  1  0  0  0
 33 66  1  0  0  0
 33 70  2  0  0  0
 34 36  1  0  0  0
 34 59  1  0  0  0
 34103  1  0  0  0
 35 44  2  0  0  0
 35 45  1  0  0  0
 35 68  1  0  0  0
 36 56  1  0  0  0
 36104  1  0  0  0
 37 39  1  0  0  0
 37 47  1  0  0  0
 37 66  1  0  0  0
 37105  1  0  0  0
 38 43  2  0  0  0
 38 46  1  0  0  0
 38 47  1  0  0  0
 39 64  1  0  0  0
 39 67  2  0  0  0
 40 52  1  0  0  0
 40 53  2  0  0  0
 40 58  1  0  0  0
 41106  1  0  0  0
 41107  1  0  0  0
 41108  1  0  0  0
 41 48  1  0  0  0
 42 43  1  0  0  0
 42 66  1  0  0  0
 42109  1  0  0  0
 42110  1  0  0  0
 43 44  1  0  0  0
 44111  1  0  0  0
 45 46  2  0  0  0
 45112  1  0  0  0
 46113  1  0  0  0
 47114  1  0  0  0
 47115  1  0  0  0
 48 56  1  0  0  0
 48 65  1  0  0  0
 48116  1  0  0  0
 49 50  1  0  0  0
 49 53  1  0  0  0
 49 64  1  0  0  0
 49117  1  0  0  0
 50 51  1  0  0  0
 50118  1  0  0  0
 50119  1  0  0  0
 51 52  1  0  0  0
 51120  1  0  0  0
 51121  1  0  0  0
 52122  1  0  0  0
 52123  1  0  0  0
 53 54  1  0  0  0
 54 55  2  0  0  0
 54124  1  0  0  0
 55 57  1  0  0  0
 55125  1  0  0  0
 56 69  2  0  0  0
 57 58  2  0  0  0
 57126  1  0  0  0
 58127  1  0  0  0
 59 60  1  0  0  0
 59 61  1  0  0  0
 59 62  1  0  0  0
 60128  1  0  0  0
 60129  1  0  0  0
 60130  1  0  0  0
 61131  1  0  0  0
 61132  1  0  0  0
 61133  1  0  0  0
 62134  1  0  0  0
 62135  1  0  0  0
 62136  1  0  0  0
 63 65  1  0  0  0
 63137  1  0  0  0
 63138  1  0  0  0
 63139  1  0  0  0
 64140  1  0  0  0
 65141  1  0  0  0
 68 79  1  0  0  0
 71 72  1  0  0  0
 71 73  2  0  0  0
 71142  1  0  0  0
 72 75  1  0  0  0
 72 80  2  0  0  0
 73 74  1  0  0  0
 73 81  1  0  0  0
 74143  1  0  0  0
 74144  1  0  0  0
 74145  1  0  0  0
 75 76  1  0  0  0
 75146  1  0  0  0
 75147  1  0  0  0
 76 78  1  0  0  0
 76148  1  0  0  0
 76149  1  0  0  0
 77 79  1  0  0  0
 77 81  1  0  0  0
 77150  1  0  0  0
 77151  1  0  0  0
 78 82  1  0  0  0
 78152  1  0  0  0
 78153  1  0  0  0
 79154  1  0  0  0
 79155  1  0  0  0
 80 81  1  0  0  0
 82156  1  0  0  0
M  ISO  4   1 100  68 101  79 101  82 100
M  END
> <chiral flag>
0

> <version>
0

> <s_m_source_file>
/data/baiqing/PycharmProjects/Reinvent-master-3.2/result/LINK_invent/BTK/process_docking_weight1_custom_sum_contain_oxygen_bond_distance_aromatic_linkinvent_7_9_3/rearranged_h_0038.sdf

> <i_m_source_file_index>
30

> <r_mmod_Potential_Energy-OPLS-2005>
-76.3907089233398

> <r_mmod_Stretch_Energy-OPLS-2005>
53.9353485107422

> <r_mmod_Bend_Energy-OPLS-2005>
118.897552490234

> <r_mmod_Torsional_Energy-OPLS-2005>
234.504104614258

> <r_mmod_Improper_Torsional_Energy-OPLS-2005>
3.99392104148865

> <r_mmod_Van_der_Waal_Energy-OPLS-2005>
115.043029785156

> <r_mmod_Electrostatic_Energy-OPLS-2005>
-408.039276123047

> <r_mmod_Solvation_Energy-OPLS-2005>
-220.123107910156

> <b_mmod_Minimization_Converged-OPLS-2005>
0

> <r_mmod_RMS_Derivative-OPLS-2005>
2.05350875854492

$$$$
30
                    3D
 Structure written by MMmdl.
189197  0  0  1  0            999 V2000
  -30.7471  -14.3567   20.7166 C   0  0  0  0  0  0
  -30.4237  -12.2938   19.3849 C   0  0  0  0  0  0
  -29.4835  -12.5248   18.1875 C   0  0  0  0  0  0
  -28.0086  -12.3730   18.6085 C   0  0  0  0  0  0
  -27.6683  -13.1935   19.8803 C   0  0  2  0  0  0
  -28.7062  -12.9225   20.9908 C   0  0  0  0  0  0
  -25.2628  -13.8131   20.5672 C   0  0  0  0  0  0
  -24.1859  -13.0437   20.9159 C   0  0  0  0  0  0
  -24.6391  -11.6894   20.8726 C   0  0  0  0  0  0
  -23.9054  -10.4289   21.0402 C   0  0  0  0  0  0
  -24.3606   -9.4210   21.9185 C   0  0  0  0  0  0
  -23.6284   -8.2243   22.0757 C   0  0  0  0  0  0
  -22.4268   -8.0281   21.3542 C   0  0  0  0  0  0
  -21.9902   -9.0254   20.4644 C   0  0  0  0  0  0
  -22.7228  -10.2132   20.3052 C   0  0  0  0  0  0
  -21.6853   -6.0735   22.5281 C   0  0  0  0  0  0
  -21.4015   -6.5640   23.8213 C   0  0  0  0  0  0
  -21.3657   -5.6789   24.9172 C   0  0  0  0  0  0
  -21.6044   -4.3050   24.7223 C   0  0  0  0  0  0
  -21.8820   -3.8147   23.4344 C   0  0  0  0  0  0
  -21.9193   -4.6964   22.3404 C   0  0  0  0  0  0
  -22.7885  -13.5247   21.1834 C   0  0  0  0  0  0
  -22.1662   -4.2154   21.0978 F   0  0  0  0  0  0
  -21.5627   -3.4539   25.7736 F   0  0  0  0  0  0
  -30.0431  -13.2269   20.4534 N   0  0  0  0  0  0
  -26.3061  -12.9280   20.3382 N   0  0  0  0  0  0
  -25.9314  -11.6451   20.5752 N   0  0  0  0  0  0
  -22.0516  -12.8239   22.0377 N   0  0  0  0  0  0
  -25.4379  -15.1851   20.4089 N   0  0  0  0  0  0
  -31.7738  -14.6571   20.0961 O   0  0  0  0  0  0
  -21.6635   -6.8879   21.4239 O   0  0  0  0  0  0
  -22.3580  -14.5563   20.6691 O   0  0  0  0  0  0
  -24.6071  -31.8730   23.2097 C   0  0  0  0  0  0
  -25.8996  -32.4855   23.8390 C   0  0  1  0  0  0
  -27.2639  -27.4904   20.0990 C   0  0  0  0  0  0
  -25.5907  -33.8646   24.2348 N   0  0  0  0  0  0
  -23.3930  -30.4931   21.5454 C   0  0  2  0  0  0
  -24.8448  -28.9626   20.1080 C   0  0  0  0  0  0
  -22.7375  -29.4658   22.4968 C   0  0  0  0  0  0
  -18.0267  -28.1361   22.8486 C   0  0  0  0  0  0
  -24.1484  -36.7344   23.2638 C   0  0  0  0  0  0
  -25.9093  -30.8572   21.3525 C   0  0  0  0  0  0
  -25.9892  -29.4892   20.7140 C   0  0  0  0  0  0
  -27.1889  -28.7568   20.7249 C   0  0  0  0  0  0
  -26.1047  -26.9742   19.4842 C   0  0  0  0  0  0
  -24.8928  -27.6968   19.4943 C   0  0  0  0  0  0
  -23.6004  -29.8215   20.1568 C   0  0  0  0  0  0
  -25.4088  -36.3122   24.0347 C   0  0  1  0  0  0
  -20.5858  -28.3629   23.1327 C   0  0  2  0  0  0
  -20.6759  -26.9376   22.5412 C   0  0  0  0  0  0
  -19.5759  -26.6378   21.5193 C   0  0  0  0  0  0
  -18.1930  -26.7911   22.1597 C   0  0  0  0  0  0
  -19.1521  -28.8806   23.2916 C   0  0  0  0  0  0
  -18.9457  -30.1407   23.8931 C   0  0  0  0  0  0
  -17.6464  -30.6576   24.0557 C   0  0  0  0  0  0
  -25.9026  -34.9491   23.5133 C   0  0  0  0  0  0
  -16.5350  -29.9097   23.6304 C   0  0  0  0  0  0
  -16.7263  -28.6503   23.0327 C   0  0  0  0  0  0
  -26.4399  -31.6579   25.0685 C   0  0  0  0  0  0
  -25.3667  -31.3791   26.1467 C   0  0  0  0  0  0
  -27.0110  -30.2998   24.5963 C   0  0  0  0  0  0
  -27.6021  -32.4187   25.7470 C   0  0  0  0  0  0
  -27.5581  -37.1789   24.8439 C   0  0  0  0  0  0
  -21.4112  -29.3013   22.3738 N   0  0  0  0  0  0
  -26.4264  -37.3805   23.9427 N   0  0  0  0  0  0
  -24.6537  -31.0869   22.0966 N   0  0  0  0  0  0
  -23.4178  -28.8221   23.2995 O   0  0  0  0  0  0
  -28.4171  -26.7307   20.0443 O   0  0  0  0  0  0
  -26.5555  -34.8935   22.4674 O   0  0  0  0  0  0
  -23.5274  -32.1450   23.7531 O   0  0  0  0  0  0
  -32.4903  -29.2019   21.5515 C   0  0  0  0  0  0
  -30.5980  -29.0155   23.0304 C   0  0  0  0  0  0
  -31.1699  -28.7676   21.7640 C   0  0  0  0  0  0
  -33.1659  -29.8782   22.5810 C   0  0  0  0  0  0
  -31.3584  -29.6677   24.0201 C   0  0  0  0  0  0
  -34.5733  -30.3871   22.3599 C   0  0  0  0  0  0
  -30.3896  -28.1278   20.6183 C   0  0  0  0  0  0
  -30.7531  -29.9643   25.3874 C   0  0  0  0  0  0
  -30.2435  -15.2877   21.8363 C   0  0  0  0  0  0
  -31.6011  -29.5380   26.6101 C   0  0  0  0  0  0
  -31.1568  -16.4906   22.1396 C   0  0  0  0  0  0
  -32.2764  -28.1526   26.5518 C   0  0  0  0  0  0
  -30.6045  -17.3719   23.2736 C   0  0  0  0  0  0
  -31.3161  -26.9542   26.4966 C   0  0  0  0  0  0
  -31.5036  -18.5831   23.5626 C   0  0  0  0  0  0
  -32.0872  -25.6303   26.3643 C   0  0  0  0  0  0
  -30.9100  -19.5469   24.6033 C   0  0  0  0  0  0
  -31.1834  -24.3958   26.2205 C   0  0  0  0  0  0
  -31.7939  -20.7876   24.8193 C   0  0  0  0  0  0
  -31.9769  -23.1440   25.8051 C   0  0  0  0  0  0
  -31.0916  -21.9002   25.6170 C   0  0  0  0  0  0
  -29.4298  -26.9851   21.0252 C   0  0  0  0  0  0
  -32.6092  -30.1260   23.7863 N   0  0  0  0  0  0
  -31.4645  -12.4114   19.0782 H   0  0  0  0  0  0
  -30.3369  -11.2679   19.7460 H   0  0  0  0  0  0
  -29.7176  -11.8229   17.3861 H   0  0  0  0  0  0
  -29.6478  -13.5232   17.7796 H   0  0  0  0  0  0
  -27.8214  -11.3138   18.7908 H   0  0  0  0  0  0
  -27.3510  -12.6599   17.7870 H   0  0  0  0  0  0
  -27.7320  -14.2483   19.6126 H   0  0  0  0  0  0
  -28.6725  -11.8742   21.2908 H   0  0  0  0  0  0
  -28.4492  -13.4828   21.8882 H   0  0  0  0  0  0
  -25.2751   -9.5688   22.4757 H   0  0  0  0  0  0
  -23.9998   -7.4637   22.7476 H   0  0  0  0  0  0
  -21.0837   -8.8767   19.8948 H   0  0  0  0  0  0
  -22.3691  -10.9667   19.6159 H   0  0  0  0  0  0
  -21.2009   -7.6149   23.9718 H   0  0  0  0  0  0
  -21.1477   -6.0520   25.9074 H   0  0  0  0  0  0
  -22.0601   -2.7617   23.2842 H   0  0  0  0  0  0
  -22.4111  -11.9881   22.4741 H   0  0  0  0  0  0
  -21.1145  -13.1279   22.2592 H   0  0  0  0  0  0
  -24.6767  -15.8458   20.5242 H   0  0  0  0  0  0
  -26.3007  -15.6230   20.1096 H   0  0  0  0  0  0
  -26.7098  -32.5611   23.1198 H   0  0  0  0  0  0
  -25.0114  -33.9785   25.0535 H   0  0  0  0  0  0
  -22.6796  -31.3075   21.4051 H   0  0  0  0  0  0
  -23.3735  -35.9688   23.3284 H   0  0  0  0  0  0
  -24.3609  -36.8964   22.2057 H   0  0  0  0  0  0
  -23.7227  -37.6547   23.6660 H   0  0  0  0  0  0
  -26.0020  -31.6203   20.5781 H   0  0  0  0  0  0
  -26.8042  -30.9291   21.9580 H   0  0  0  0  0  0
  -28.0430  -29.1952   21.2127 H   0  0  0  0  0  0
  -26.1459  -26.0088   18.9997 H   0  0  0  0  0  0
  -24.0157  -27.2812   19.0161 H   0  0  0  0  0  0
  -23.7037  -30.5970   19.3963 H   0  0  0  0  0  0
  -22.7290  -29.2336   19.8607 H   0  0  0  0  0  0
  -25.1240  -36.1997   25.0831 H   0  0  0  0  0  0
  -20.9964  -28.3186   24.1436 H   0  0  0  0  0  0
  -20.5634  -26.2248   23.3595 H   0  0  0  0  0  0
  -21.6639  -26.7405   22.1229 H   0  0  0  0  0  0
  -19.6943  -25.6299   21.1211 H   0  0  0  0  0  0
  -19.6720  -27.3197   20.6736 H   0  0  0  0  0  0
  -17.4201  -26.6663   21.3983 H   0  0  0  0  0  0
  -18.0331  -26.0029   22.8971 H   0  0  0  0  0  0
  -19.7938  -30.7200   24.2342 H   0  0  0  0  0  0
  -17.5033  -31.6275   24.5137 H   0  0  0  0  0  0
  -15.5364  -30.3022   23.7601 H   0  0  0  0  0  0
  -15.8659  -28.0860   22.7002 H   0  0  0  0  0  0
  -24.5673  -30.7333   25.7833 H   0  0  0  0  0  0
  -24.9074  -32.3038   26.4980 H   0  0  0  0  0  0
  -25.7956  -30.8834   27.0182 H   0  0  0  0  0  0
  -26.2659  -29.6968   24.0760 H   0  0  0  0  0  0
  -27.3580  -29.7002   25.4379 H   0  0  0  0  0  0
  -27.8609  -30.4320   23.9267 H   0  0  0  0  0  0
  -27.2663  -33.3440   26.2157 H   0  0  0  0  0  0
  -28.3811  -32.6783   25.0297 H   0  0  0  0  0  0
  -28.0685  -31.8190   26.5298 H   0  0  0  0  0  0
  -28.2556  -38.0122   24.7508 H   0  0  0  0  0  0
  -28.1101  -36.2650   24.6192 H   0  0  0  0  0  0
  -27.2342  -37.1358   25.8851 H   0  0  0  0  0  0
  -20.9267  -29.8766   21.6997 H   0  0  0  0  0  0
  -26.0173  -38.2881   24.1471 H   0  0  0  0  0  0
  -32.9732  -29.0427   20.5969 H   0  0  0  0  0  0
  -29.5796  -28.7365   23.2539 H   0  0  0  0  0  0
  -34.5829  -31.1236   21.5558 H   0  0  0  0  0  0
  -35.2250  -29.5628   22.0725 H   0  0  0  0  0  0
  -34.9846  -30.8519   23.2563 H   0  0  0  0  0  0
  -31.0929  -27.7403   19.8818 H   0  0  0  0  0  0
  -29.8645  -28.9264   20.0975 H   0  0  0  0  0  0
  -29.7872  -29.4631   25.4519 H   0  0  0  0  0  0
  -30.5334  -31.0311   25.4458 H   0  0  0  0  0  0
  -29.2532  -15.6516   21.5598 H   0  0  0  0  0  0
  -30.1294  -14.6988   22.7473 H   0  0  0  0  0  0
  -30.9994  -29.6231   27.5158 H   0  0  0  0  0  0
  -32.3999  -30.2721   26.7241 H   0  0  0  0  0  0
  -31.2715  -17.0928   21.2368 H   0  0  0  0  0  0
  -32.1541  -16.1363   22.4041 H   0  0  0  0  0  0
  -32.9130  -28.0453   27.4314 H   0  0  0  0  0  0
  -32.9536  -28.1161   25.6986 H   0  0  0  0  0  0
  -30.4903  -16.7776   24.1822 H   0  0  0  0  0  0
  -29.6047  -17.7169   23.0055 H   0  0  0  0  0  0
  -30.6413  -27.0629   25.6471 H   0  0  0  0  0  0
  -30.6895  -26.9342   27.3895 H   0  0  0  0  0  0
  -31.6731  -19.1271   22.6319 H   0  0  0  0  0  0
  -32.4824  -18.2387   23.8993 H   0  0  0  0  0  0
  -32.7427  -25.4975   27.2259 H   0  0  0  0  0  0
  -32.7412  -25.6950   25.4935 H   0  0  0  0  0  0
  -30.7672  -19.0281   25.5526 H   0  0  0  0  0  0
  -29.9183  -19.8605   24.2736 H   0  0  0  0  0  0
  -30.4209  -24.5956   25.4663 H   0  0  0  0  0  0
  -30.6521  -24.2141   27.1561 H   0  0  0  0  0  0
  -32.0835  -21.1898   23.8470 H   0  0  0  0  0  0
  -32.7206  -20.4952   25.3168 H   0  0  0  0  0  0
  -32.7554  -22.9314   26.5396 H   0  0  0  0  0  0
  -32.4955  -23.3604   24.8702 H   0  0  0  0  0  0
  -30.7750  -21.5253   26.5914 H   0  0  0  0  0  0
  -30.1819  -22.1858   25.0868 H   0  0  0  0  0  0
  -28.9430  -27.1594   21.9831 H   0  0  0  0  0  0
  -30.0149  -26.0759   21.1713 H   0  0  0  0  0  0
  1 25  1  0  0  0
  1 30  2  0  0  0
  1 79  1  0  0  0
  2  3  1  0  0  0
  2 25  1  0  0  0
  2 94  1  0  0  0
  2 95  1  0  0  0
  3  4  1  0  0  0
  3 96  1  0  0  0
  3 97  1  0  0  0
  4  5  1  0  0  0
  4 98  1  0  0  0
  4 99  1  0  0  0
  5  6  1  0  0  0
  5 26  1  0  0  0
  5100  1  0  0  0
  6 25  1  0  0  0
  6101  1  0  0  0
  6102  1  0  0  0
  7  8  2  0  0  0
  7 26  1  0  0  0
  7 29  1  0  0  0
  8  9  1  0  0  0
  8 22  1  0  0  0
  9 10  1  0  0  0
  9 27  2  0  0  0
 10 11  2  0  0  0
 10 15  1  0  0  0
 11 12  1  0  0  0
 11103  1  0  0  0
 12 13  2  0  0  0
 12104  1  0  0  0
 13 14  1  0  0  0
 13 31  1  0  0  0
 14 15  2  0  0  0
 14105  1  0  0  0
 15106  1  0  0  0
 16 17  2  0  0  0
 16 21  1  0  0  0
 16 31  1  0  0  0
 17 18  1  0  0  0
 17107  1  0  0  0
 18 19  2  0  0  0
 18108  1  0  0  0
 19 20  1  0  0  0
 19 24  1  0  0  0
 20 21  2  0  0  0
 20109  1  0  0  0
 21 23  1  0  0  0
 22 28  1  0  0  0
 22 32  2  0  0  0
 26 27  1  0  0  0
 28110  1  0  0  0
 28111  1  0  0  0
 29112  1  0  0  0
 29113  1  0  0  0
 33 34  1  0  0  0
 33 66  1  0  0  0
 33 70  2  0  0  0
 34 36  1  0  0  0
 34 59  1  0  0  0
 34114  1  0  0  0
 35 44  2  0  0  0
 35 45  1  0  0  0
 35 68  1  0  0  0
 36 56  1  0  0  0
 36115  1  0  0  0
 37 39  1  0  0  0
 37 47  1  0  0  0
 37 66  1  0  0  0
 37116  1  0  0  0
 38 43  2  0  0  0
 38 46  1  0  0  0
 38 47  1  0  0  0
 39 64  1  0  0  0
 39 67  2  0  0  0
 40 52  1  0  0  0
 40 53  2  0  0  0
 40 58  1  0  0  0
 41117  1  0  0  0
 41118  1  0  0  0
 41119  1  0  0  0
 41 48  1  0  0  0
 42 43  1  0  0  0
 42 66  1  0  0  0
 42120  1  0  0  0
 42121  1  0  0  0
 43 44  1  0  0  0
 44122  1  0  0  0
 45 46  2  0  0  0
 45123  1  0  0  0
 46124  1  0  0  0
 47125  1  0  0  0
 47126  1  0  0  0
 48 56  1  0  0  0
 48 65  1  0  0  0
 48127  1  0  0  0
 49 50  1  0  0  0
 49 53  1  0  0  0
 49 64  1  0  0  0
 49128  1  0  0  0
 50 51  1  0  0  0
 50129  1  0  0  0
 50130  1  0  0  0
 51 52  1  0  0  0
 51131  1  0  0  0
 51132  1  0  0  0
 52133  1  0  0  0
 52134  1  0  0  0
 53 54  1  0  0  0
 54 55  2  0  0  0
 54135  1  0  0  0
 55 57  1  0  0  0
 55136  1  0  0  0
 56 69  2  0  0  0
 57 58  2  0  0  0
 57137  1  0  0  0
 58138  1  0  0  0
 59 60  1  0  0  0
 59 61  1  0  0  0
 59 62  1  0  0  0
 60139  1  0  0  0
 60140  1  0  0  0
 60141  1  0  0  0
 61142  1  0  0  0
 61143  1  0  0  0
 61144  1  0  0  0
 62145  1  0  0  0
 62146  1  0  0  0
 62147  1  0  0  0
 63 65  1  0  0  0
 63148  1  0  0  0
 63149  1  0  0  0
 63150  1  0  0  0
 64151  1  0  0  0
 65152  1  0  0  0
 68 92  1  0  0  0
 71 73  2  0  0  0
 71 74  1  0  0  0
 71153  1  0  0  0
 72 73  1  0  0  0
 72 75  2  0  0  0
 72154  1  0  0  0
 73 77  1  0  0  0
 74 76  1  0  0  0
 74 93  2  0  0  0
 75 78  1  0  0  0
 75 93  1  0  0  0
 76155  1  0  0  0
 76156  1  0  0  0
 76157  1  0  0  0
 77 92  1  0  0  0
 77158  1  0  0  0
 77159  1  0  0  0
 78 80  1  0  0  0
 78160  1  0  0  0
 78161  1  0  0  0
 79 81  1  0  0  0
 79162  1  0  0  0
 79163  1  0  0  0
 80 82  1  0  0  0
 80164  1  0  0  0
 80165  1  0  0  0
 81 83  1  0  0  0
 81166  1  0  0  0
 81167  1  0  0  0
 82 84  1  0  0  0
 82168  1  0  0  0
 82169  1  0  0  0
 83 85  1  0  0  0
 83170  1  0  0  0
 83171  1  0  0  0
 84 86  1  0  0  0
 84172  1  0  0  0
 84173  1  0  0  0
 85 87  1  0  0  0
 85174  1  0  0  0
 85175  1  0  0  0
 86 88  1  0  0  0
 86176  1  0  0  0
 86177  1  0  0  0
 87 89  1  0  0  0
 87178  1  0  0  0
 87179  1  0  0  0
 88 90  1  0  0  0
 88180  1  0  0  0
 88181  1  0  0  0
 89 91  1  0  0  0
 89182  1  0  0  0
 89183  1  0  0  0
 90 91  1  0  0  0
 90184  1  0  0  0
 90185  1  0  0  0
 91186  1  0  0  0
 91187  1  0  0  0
 92188  1  0  0  0
 92189  1  0  0  0
M  ISO  4   1 100  68 101  79 100  92 101
M  END
> <chiral flag>
0

> <version>
0

> <s_m_source_file>
/data/baiqing/PycharmProjects/Reinvent-master-3.2/result/LINK_invent/BTK/process_docking_weight1_custom_sum_contain_oxygen_bond_distance_aromatic_linkinvent_7_9_3/rearranged_h_0038.sdf

> <i_m_source_file_index>
31

> <r_mmod_Potential_Energy-OPLS-2005>
-175.141159057617

> <r_mmod_Stretch_Energy-OPLS-2005>
33.5711631774902

> <r_mmod_Bend_Energy-OPLS-2005>
99.8606491088867

> <r_mmod_Torsional_Energy-OPLS-2005>
169.036895751953

> <r_mmod_Improper_Torsional_Energy-OPLS-2005>
1.80704259872437

> <r_mmod_Van_der_Waal_Energy-OPLS-2005>
146.052581787109

> <r_mmod_Electrostatic_Energy-OPLS-2005>
-439.185516357422

> <r_mmod_Solvation_Energy-OPLS-2005>
-192.824569702148

> <b_mmod_Minimization_Converged-OPLS-2005>
0

> <r_mmod_RMS_Derivative-OPLS-2005>
2.18252778053284

$$$$
31
                    3D
 Structure written by MMmdl.
168176  0  0  1  0            999 V2000
  -30.7707  -14.3805   20.6279 C   0  0  0  0  0  0
  -30.4210  -12.2749   19.4176 C   0  0  0  0  0  0
  -29.5000  -12.5102   18.2078 C   0  0  0  0  0  0
  -28.0270  -12.3563   18.6241 C   0  0  0  0  0  0
  -27.6720  -13.2001   19.8787 C   0  0  2  0  0  0
  -28.7083  -12.9792   21.0050 C   0  0  0  0  0  0
  -25.2673  -13.8171   20.5685 C   0  0  0  0  0  0
  -24.1892  -13.0482   20.9156 C   0  0  0  0  0  0
  -24.6417  -11.6932   20.8725 C   0  0  0  0  0  0
  -23.9064  -10.4331   21.0399 C   0  0  0  0  0  0
  -24.3609   -9.4237   21.9189 C   0  0  0  0  0  0
  -23.6286   -8.2271   22.0760 C   0  0  0  0  0  0
  -22.4272   -8.0279   21.3535 C   0  0  0  0  0  0
  -21.9900   -9.0280   20.4660 C   0  0  0  0  0  0
  -22.7243  -10.2163   20.3071 C   0  0  0  0  0  0
  -21.6870   -6.0732   22.5278 C   0  0  0  0  0  0
  -21.4020   -6.5636   23.8213 C   0  0  0  0  0  0
  -21.3657   -5.6773   24.9165 C   0  0  0  0  0  0
  -21.6044   -4.3039   24.7203 C   0  0  0  0  0  0
  -21.8826   -3.8139   23.4335 C   0  0  0  0  0  0
  -21.9202   -4.6961   22.3389 C   0  0  0  0  0  0
  -22.7921  -13.5287   21.1787 C   0  0  0  0  0  0
  -22.1672   -4.2151   21.0969 F   0  0  0  0  0  0
  -21.5631   -3.4527   25.7724 F   0  0  0  0  0  0
  -30.0479  -13.2455   20.4574 N   0  0  0  0  0  0
  -26.3087  -12.9323   20.3374 N   0  0  0  0  0  0
  -25.9341  -11.6489   20.5785 N   0  0  0  0  0  0
  -22.0495  -12.8336   22.0321 N   0  0  0  0  0  0
  -25.4429  -15.1876   20.4101 N   0  0  0  0  0  0
  -31.8515  -14.5774   20.0669 O   0  0  0  0  0  0
  -21.6644   -6.8874   21.4232 O   0  0  0  0  0  0
  -22.3632  -14.5585   20.6587 O   0  0  0  0  0  0
  -24.6180  -31.8700   23.2159 C   0  0  0  0  0  0
  -25.9088  -32.4810   23.8403 C   0  0  1  0  0  0
  -27.2128  -27.4307   20.0484 C   0  0  0  0  0  0
  -25.5965  -33.8593   24.2367 N   0  0  0  0  0  0
  -23.3991  -30.5025   21.5575 C   0  0  2  0  0  0
  -24.8333  -28.9747   20.1143 C   0  0  0  0  0  0
  -22.7404  -29.4683   22.5007 C   0  0  0  0  0  0
  -18.0263  -28.1367   22.8478 C   0  0  0  0  0  0
  -24.1480  -36.7303   23.2642 C   0  0  0  0  0  0
  -25.9331  -30.8230   21.3733 C   0  0  0  0  0  0
  -25.9999  -29.4607   20.7151 C   0  0  0  0  0  0
  -27.1899  -28.6927   20.6922 C   0  0  0  0  0  0
  -26.0032  -26.9516   19.4823 C   0  0  0  0  0  0
  -24.8288  -27.7139   19.5037 C   0  0  0  0  0  0
  -23.6016  -29.8461   20.1683 C   0  0  0  0  0  0
  -25.4091  -36.3095   24.0361 C   0  0  1  0  0  0
  -20.5868  -28.3663   23.1312 C   0  0  2  0  0  0
  -20.6774  -26.9412   22.5410 C   0  0  0  0  0  0
  -19.5740  -26.6397   21.5211 C   0  0  0  0  0  0
  -18.1918  -26.7920   22.1625 C   0  0  0  0  0  0
  -19.1519  -28.8831   23.2889 C   0  0  0  0  0  0
  -18.9456  -30.1451   23.8882 C   0  0  0  0  0  0
  -17.6461  -30.6588   24.0565 C   0  0  0  0  0  0
  -25.9030  -34.9468   23.5140 C   0  0  0  0  0  0
  -16.5350  -29.9078   23.6342 C   0  0  0  0  0  0
  -16.7253  -28.6504   23.0331 C   0  0  0  0  0  0
  -26.4526  -31.6537   25.0690 C   0  0  0  0  0  0
  -25.3846  -31.3581   26.1474 C   0  0  0  0  0  0
  -27.0379  -30.2985   24.6041 C   0  0  0  0  0  0
  -27.6110  -32.4253   25.7446 C   0  0  0  0  0  0
  -27.5570  -37.1799   24.8476 C   0  0  0  0  0  0
  -21.4158  -29.3036   22.3732 N   0  0  0  0  0  0
  -26.4278  -37.3790   23.9429 N   0  0  0  0  0  0
  -24.6682  -31.0813   22.1045 N   0  0  0  0  0  0
  -23.4193  -28.8228   23.3031 O   0  0  0  0  0  0
  -28.3971  -26.7121   19.9642 O   0  0  0  0  0  0
  -26.5594  -34.8919   22.4693 O   0  0  0  0  0  0
  -23.5382  -32.1460   23.7568 O   0  0  0  0  0  0
  -32.0942  -23.3744   18.7015 C   0  0  0  0  0  0
  -30.2725  -24.2224   20.0619 C   0  0  0  0  0  0
  -31.4719  -23.4937   19.9590 C   0  0  0  0  0  0
  -31.5193  -23.9465   17.5491 C   0  0  0  0  0  0
  -29.7010  -24.8407   18.9306 C   0  0  0  0  0  0
  -30.3213  -24.6994   17.6529 C   0  0  0  0  0  0
  -32.2061  -23.7090   16.2132 C   0  0  0  0  0  0
  -29.6966  -25.3361   16.4109 C   0  0  0  0  0  0
  -32.1006  -22.8682   21.1958 C   0  0  0  0  0  0
  -28.3638  -25.5469   19.1223 C   0  0  0  0  0  0
  -32.3521  -21.3542   21.0852 C   0  0  0  0  0  0
  -31.0852  -20.4854   21.2155 C   0  0  0  0  0  0
  -31.4500  -18.9981   21.2989 C   0  0  0  0  0  0
  -30.3169  -18.0385   21.7217 C   0  0  0  0  0  0
  -30.9021  -16.5946   21.7658 C   0  0  0  0  0  0
  -30.2227  -15.3398   21.4013 N   0  0  0  0  0  0
  -31.4699  -12.3572   19.1172 H   0  0  0  0  0  0
  -30.3102  -11.2573   19.7962 H   0  0  0  0  0  0
  -29.7400  -11.8066   17.4094 H   0  0  0  0  0  0
  -29.6736  -13.5091   17.8058 H   0  0  0  0  0  0
  -27.8622  -11.2996   18.8365 H   0  0  0  0  0  0
  -27.3695  -12.6098   17.7927 H   0  0  0  0  0  0
  -27.7231  -14.2488   19.5815 H   0  0  0  0  0  0
  -28.4661  -13.6039   21.8644 H   0  0  0  0  0  0
  -28.6702  -11.9533   21.3742 H   0  0  0  0  0  0
  -25.2767   -9.5714   22.4757 H   0  0  0  0  0  0
  -23.9999   -7.4666   22.7481 H   0  0  0  0  0  0
  -21.0827   -8.8818   19.8964 H   0  0  0  0  0  0
  -22.3716  -10.9690   19.6174 H   0  0  0  0  0  0
  -21.2020   -7.6141   23.9718 H   0  0  0  0  0  0
  -21.1466   -6.0500   25.9070 H   0  0  0  0  0  0
  -22.0603   -2.7600   23.2836 H   0  0  0  0  0  0
  -22.4053  -12.0011   22.4806 H   0  0  0  0  0  0
  -21.1103  -13.1416   22.2442 H   0  0  0  0  0  0
  -24.6837  -15.8485   20.5241 H   0  0  0  0  0  0
  -26.3066  -15.6213   20.1071 H   0  0  0  0  0  0
  -26.7134  -32.5494   23.1122 H   0  0  0  0  0  0
  -25.0135  -33.9719   25.0532 H   0  0  0  0  0  0
  -22.6858  -31.3191   21.4298 H   0  0  0  0  0  0
  -23.3742  -35.9641   23.3316 H   0  0  0  0  0  0
  -24.3577  -36.8886   22.2052 H   0  0  0  0  0  0
  -23.7226  -37.6509   23.6640 H   0  0  0  0  0  0
  -26.0635  -31.5902   20.6105 H   0  0  0  0  0  0
  -26.8134  -30.8577   21.9997 H   0  0  0  0  0  0
  -28.0902  -29.0745   21.1513 H   0  0  0  0  0  0
  -25.9228  -25.9941   18.9898 H   0  0  0  0  0  0
  -23.9306  -27.3318   19.0367 H   0  0  0  0  0  0
  -23.7102  -30.6254   19.4143 H   0  0  0  0  0  0
  -22.7199  -29.2752   19.8709 H   0  0  0  0  0  0
  -25.1259  -36.1959   25.0865 H   0  0  0  0  0  0
  -20.9918  -28.3232   24.1440 H   0  0  0  0  0  0
  -20.5698  -26.2277   23.3592 H   0  0  0  0  0  0
  -21.6647  -26.7471   22.1197 H   0  0  0  0  0  0
  -19.6921  -25.6320   21.1204 H   0  0  0  0  0  0
  -19.6680  -27.3244   20.6767 H   0  0  0  0  0  0
  -17.4209  -26.6658   21.4021 H   0  0  0  0  0  0
  -18.0327  -26.0052   22.9007 H   0  0  0  0  0  0
  -19.7934  -30.7275   24.2223 H   0  0  0  0  0  0
  -17.5012  -31.6245   24.5194 H   0  0  0  0  0  0
  -15.5349  -30.2965   23.7663 H   0  0  0  0  0  0
  -15.8657  -28.0826   22.6999 H   0  0  0  0  0  0
  -24.6037  -30.6882   25.7827 H   0  0  0  0  0  0
  -24.9033  -32.2707   26.5014 H   0  0  0  0  0  0
  -25.8283  -30.8710   27.0174 H   0  0  0  0  0  0
  -26.2877  -29.6664   24.1244 H   0  0  0  0  0  0
  -27.4329  -29.7277   25.4464 H   0  0  0  0  0  0
  -27.8671  -30.4316   23.9073 H   0  0  0  0  0  0
  -27.2731  -33.3539   26.2071 H   0  0  0  0  0  0
  -28.3904  -32.6805   25.0247 H   0  0  0  0  0  0
  -28.0810  -31.8334   26.5319 H   0  0  0  0  0  0
  -28.2608  -38.0077   24.7526 H   0  0  0  0  0  0
  -28.1043  -36.2612   24.6303 H   0  0  0  0  0  0
  -27.2308  -37.1467   25.8884 H   0  0  0  0  0  0
  -20.9315  -29.8773   21.6976 H   0  0  0  0  0  0
  -26.0170  -38.2874   24.1416 H   0  0  0  0  0  0
  -33.0219  -22.8270   18.6163 H   0  0  0  0  0  0
  -29.7678  -24.2993   21.0151 H   0  0  0  0  0  0
  -32.6470  -24.6306   15.8393 H   0  0  0  0  0  0
  -31.4999  -23.3376   15.4702 H   0  0  0  0  0  0
  -33.0012  -22.9652   16.2892 H   0  0  0  0  0  0
  -29.6004  -26.4124   16.5554 H   0  0  0  0  0  0
  -28.7089  -24.9166   16.2200 H   0  0  0  0  0  0
  -30.2749  -25.2022   15.4988 H   0  0  0  0  0  0
  -31.4961  -23.0756   22.0803 H   0  0  0  0  0  0
  -33.0510  -23.3750   21.3689 H   0  0  0  0  0  0
  -27.6903  -24.8152   19.5776 H   0  0  0  0  0  0
  -27.9478  -25.8132   18.1516 H   0  0  0  0  0  0
  -33.0308  -21.0773   21.8938 H   0  0  0  0  0  0
  -32.8897  -21.1193   20.1663 H   0  0  0  0  0  0
  -30.4135  -20.6636   20.3737 H   0  0  0  0  0  0
  -30.5469  -20.7757   22.1162 H   0  0  0  0  0  0
  -31.8590  -18.6875   20.3368 H   0  0  0  0  0  0
  -32.2614  -18.8728   22.0148 H   0  0  0  0  0  0
  -29.9593  -18.3687   22.7015 H   0  0  0  0  0  0
  -29.4610  -18.1292   21.0466 H   0  0  0  0  0  0
  -30.2299  -16.4030   22.6044 H   0  0  0  0  0  0
  -30.8027  -16.7176   20.6844 H   0  0  0  0  0  0
  -29.3410  -15.1324   21.8462 H   0  0  0  0  0  0
  1 25  1  0  0  0
  1 30  2  0  0  0
  1 86  1  0  0  0
  2  3  1  0  0  0
  2 25  1  0  0  0
  2 87  1  0  0  0
  2 88  1  0  0  0
  3  4  1  0  0  0
  3 89  1  0  0  0
  3 90  1  0  0  0
  4  5  1  0  0  0
  4 91  1  0  0  0
  4 92  1  0  0  0
  5  6  1  0  0  0
  5 26  1  0  0  0
  5 93  1  0  0  0
  6 25  1  0  0  0
  6 94  1  0  0  0
  6 95  1  0  0  0
  7  8  2  0  0  0
  7 26  1  0  0  0
  7 29  1  0  0  0
  8  9  1  0  0  0
  8 22  1  0  0  0
  9 10  1  0  0  0
  9 27  2  0  0  0
 10 11  2  0  0  0
 10 15  1  0  0  0
 11 12  1  0  0  0
 11 96  1  0  0  0
 12 13  2  0  0  0
 12 97  1  0  0  0
 13 14  1  0  0  0
 13 31  1  0  0  0
 14 15  2  0  0  0
 14 98  1  0  0  0
 15 99  1  0  0  0
 16 17  2  0  0  0
 16 21  1  0  0  0
 16 31  1  0  0  0
 17 18  1  0  0  0
 17100  1  0  0  0
 18 19  2  0  0  0
 18101  1  0  0  0
 19 20  1  0  0  0
 19 24  1  0  0  0
 20 21  2  0  0  0
 20102  1  0  0  0
 21 23  1  0  0  0
 22 28  1  0  0  0
 22 32  2  0  0  0
 26 27  1  0  0  0
 28103  1  0  0  0
 28104  1  0  0  0
 29105  1  0  0  0
 29106  1  0  0  0
 33 34  1  0  0  0
 33 66  1  0  0  0
 33 70  2  0  0  0
 34 36  1  0  0  0
 34 59  1  0  0  0
 34107  1  0  0  0
 35 44  2  0  0  0
 35 45  1  0  0  0
 35 68  1  0  0  0
 36 56  1  0  0  0
 36108  1  0  0  0
 37 39  1  0  0  0
 37 47  1  0  0  0
 37 66  1  0  0  0
 37109  1  0  0  0
 38 43  2  0  0  0
 38 46  1  0  0  0
 38 47  1  0  0  0
 39 64  1  0  0  0
 39 67  2  0  0  0
 40 52  1  0  0  0
 40 53  2  0  0  0
 40 58  1  0  0  0
 41110  1  0  0  0
 41111  1  0  0  0
 41112  1  0  0  0
 41 48  1  0  0  0
 42 43  1  0  0  0
 42 66  1  0  0  0
 42113  1  0  0  0
 42114  1  0  0  0
 43 44  1  0  0  0
 44115  1  0  0  0
 45 46  2  0  0  0
 45116  1  0  0  0
 46117  1  0  0  0
 47118  1  0  0  0
 47119  1  0  0  0
 48 56  1  0  0  0
 48 65  1  0  0  0
 48120  1  0  0  0
 49 50  1  0  0  0
 49 53  1  0  0  0
 49 64  1  0  0  0
 49121  1  0  0  0
 50 51  1  0  0  0
 50122  1  0  0  0
 50123  1  0  0  0
 51 52  1  0  0  0
 51124  1  0  0  0
 51125  1  0  0  0
 52126  1  0  0  0
 52127  1  0  0  0
 53 54  1  0  0  0
 54 55  2  0  0  0
 54128  1  0  0  0
 55 57  1  0  0  0
 55129  1  0  0  0
 56 69  2  0  0  0
 57 58  2  0  0  0
 57130  1  0  0  0
 58131  1  0  0  0
 59 60  1  0  0  0
 59 61  1  0  0  0
 59 62  1  0  0  0
 60132  1  0  0  0
 60133  1  0  0  0
 60134  1  0  0  0
 61135  1  0  0  0
 61136  1  0  0  0
 61137  1  0  0  0
 62138  1  0  0  0
 62139  1  0  0  0
 62140  1  0  0  0
 63 65  1  0  0  0
 63141  1  0  0  0
 63142  1  0  0  0
 63143  1  0  0  0
 64144  1  0  0  0
 65145  1  0  0  0
 68 80  1  0  0  0
 71 73  2  0  0  0
 71 74  1  0  0  0
 71146  1  0  0  0
 72 73  1  0  0  0
 72 75  2  0  0  0
 72147  1  0  0  0
 73 79  1  0  0  0
 74 76  2  0  0  0
 74 77  1  0  0  0
 75 76  1  0  0  0
 75 80  1  0  0  0
 76 78  1  0  0  0
 77148  1  0  0  0
 77149  1  0  0  0
 77150  1  0  0  0
 78151  1  0  0  0
 78152  1  0  0  0
 78153  1  0  0  0
 79 81  1  0  0  0
 79154  1  0  0  0
 79155  1  0  0  0
 80156  1  0  0  0
 80157  1  0  0  0
 81 82  1  0  0  0
 81158  1  0  0  0
 81159  1  0  0  0
 82 83  1  0  0  0
 82160  1  0  0  0
 82161  1  0  0  0
 83 84  1  0  0  0
 83162  1  0  0  0
 83163  1  0  0  0
 84 85  1  0  0  0
 84164  1  0  0  0
 84165  1  0  0  0
 85 86  1  0  0  0
 85166  1  0  0  0
 85167  1  0  0  0
 86168  1  0  0  0
M  ISO  4   1 100  68 101  80 101  86 100
M  END
> <chiral flag>
0

> <version>
0

> <s_m_source_file>
/data/baiqing/PycharmProjects/Reinvent-master-3.2/result/LINK_invent/BTK/process_docking_weight1_custom_sum_contain_oxygen_bond_distance_aromatic_linkinvent_7_9_3/rearranged_h_0038.sdf

> <i_m_source_file_index>
32

> <r_mmod_Potential_Energy-OPLS-2005>
196.284362792969

> <r_mmod_Stretch_Energy-OPLS-2005>
37.9279174804688

> <r_mmod_Bend_Energy-OPLS-2005>
318.005493164062

> <r_mmod_Torsional_Energy-OPLS-2005>
205.206008911133

> <r_mmod_Improper_Torsional_Energy-OPLS-2005>
2.39050698280334

> <r_mmod_Van_der_Waal_Energy-OPLS-2005>
188.810653686523

> <r_mmod_Electrostatic_Energy-OPLS-2005>
-362.615447998047

> <r_mmod_Solvation_Energy-OPLS-2005>
-205.238800048828

> <b_mmod_Minimization_Converged-OPLS-2005>
0

> <r_mmod_RMS_Derivative-OPLS-2005>
4.70429706573486

$$$$
32
                    3D
 Structure written by MMmdl.
170178  0  0  1  0            999 V2000
  -30.7456  -14.3855   20.6223 C   0  0  0  0  0  0
  -30.4170  -12.2729   19.4028 C   0  0  0  0  0  0
  -29.4874  -12.5101   18.1964 C   0  0  0  0  0  0
  -28.0094  -12.3765   18.6118 C   0  0  0  0  0  0
  -27.6682  -13.2002   19.8823 C   0  0  2  0  0  0
  -28.7081  -12.9443   20.9970 C   0  0  0  0  0  0
  -25.2620  -13.8147   20.5679 C   0  0  0  0  0  0
  -24.1857  -13.0445   20.9164 C   0  0  0  0  0  0
  -24.6392  -11.6898   20.8729 C   0  0  0  0  0  0
  -23.9052  -10.4296   21.0402 C   0  0  0  0  0  0
  -24.3608   -9.4215   21.9182 C   0  0  0  0  0  0
  -23.6288   -8.2248   22.0753 C   0  0  0  0  0  0
  -22.4270   -8.0283   21.3545 C   0  0  0  0  0  0
  -21.9900   -9.0257   20.4647 C   0  0  0  0  0  0
  -22.7225  -10.2137   20.3055 C   0  0  0  0  0  0
  -21.6854   -6.0735   22.5276 C   0  0  0  0  0  0
  -21.4013   -6.5639   23.8211 C   0  0  0  0  0  0
  -21.3661   -5.6793   24.9174 C   0  0  0  0  0  0
  -21.6040   -4.3055   24.7224 C   0  0  0  0  0  0
  -21.8822   -3.8147   23.4347 C   0  0  0  0  0  0
  -21.9193   -4.6962   22.3403 C   0  0  0  0  0  0
  -22.7878  -13.5245   21.1831 C   0  0  0  0  0  0
  -22.1663   -4.2149   21.0981 F   0  0  0  0  0  0
  -21.5629   -3.4539   25.7737 F   0  0  0  0  0  0
  -30.0474  -13.2332   20.4528 N   0  0  0  0  0  0
  -26.3058  -12.9308   20.3396 N   0  0  0  0  0  0
  -25.9322  -11.6475   20.5774 N   0  0  0  0  0  0
  -22.0515  -12.8251   22.0384 N   0  0  0  0  0  0
  -25.4368  -15.1871   20.4088 N   0  0  0  0  0  0
  -31.8193  -14.6151   20.0597 O   0  0  0  0  0  0
  -21.6639   -6.8880   21.4237 O   0  0  0  0  0  0
  -22.3569  -14.5564   20.6682 O   0  0  0  0  0  0
  -24.6114  -31.8709   23.2127 C   0  0  0  0  0  0
  -25.9013  -32.4850   23.8436 C   0  0  1  0  0  0
  -27.2410  -27.4754   20.0941 C   0  0  0  0  0  0
  -25.5876  -33.8635   24.2369 N   0  0  0  0  0  0
  -23.3974  -30.4962   21.5501 C   0  0  2  0  0  0
  -24.8440  -28.9570   20.1239 C   0  0  0  0  0  0
  -22.7422  -29.4686   22.4998 C   0  0  0  0  0  0
  -18.0282  -28.1395   22.8490 C   0  0  0  0  0  0
  -24.1467  -36.7337   23.2642 C   0  0  0  0  0  0
  -25.9239  -30.8487   21.3573 C   0  0  0  0  0  0
  -26.0027  -29.4816   20.7142 C   0  0  0  0  0  0
  -27.2065  -28.7492   20.6945 C   0  0  0  0  0  0
  -26.0722  -26.9451   19.5111 C   0  0  0  0  0  0
  -24.8708  -27.6828   19.5259 C   0  0  0  0  0  0
  -23.6071  -29.8271   20.1649 C   0  0  0  0  0  0
  -25.4082  -36.3125   24.0352 C   0  0  1  0  0  0
  -20.5879  -28.3664   23.1324 C   0  0  2  0  0  0
  -20.6759  -26.9393   22.5424 C   0  0  0  0  0  0
  -19.5725  -26.6388   21.5222 C   0  0  0  0  0  0
  -18.1917  -26.7942   22.1632 C   0  0  0  0  0  0
  -19.1534  -28.8844   23.2907 C   0  0  0  0  0  0
  -18.9462  -30.1453   23.8921 C   0  0  0  0  0  0
  -17.6461  -30.6584   24.0573 C   0  0  0  0  0  0
  -25.9021  -34.9485   23.5172 C   0  0  0  0  0  0
  -16.5352  -29.9098   23.6317 C   0  0  0  0  0  0
  -16.7276  -28.6525   23.0330 C   0  0  0  0  0  0
  -26.4447  -31.6621   25.0771 C   0  0  0  0  0  0
  -25.3729  -31.3719   26.1545 C   0  0  0  0  0  0
  -27.0252  -30.3066   24.6096 C   0  0  0  0  0  0
  -27.6042  -32.4326   25.7525 C   0  0  0  0  0  0
  -27.5575  -37.1824   24.8475 C   0  0  0  0  0  0
  -21.4157  -29.3049   22.3749 N   0  0  0  0  0  0
  -26.4278  -37.3801   23.9432 N   0  0  0  0  0  0
  -24.6618  -31.0877   22.0978 N   0  0  0  0  0  0
  -23.4230  -28.8229   23.3015 O   0  0  0  0  0  0
  -28.4265  -26.7924   20.0278 O   0  0  0  0  0  0
  -26.5573  -34.8930   22.4732 O   0  0  0  0  0  0
  -23.5313  -32.1428   23.7542 O   0  0  0  0  0  0
  -29.0765  -22.9391   24.5267 C   0  0  0  0  0  0
  -28.8066  -24.1279   23.8233 C   0  0  0  0  0  0
  -30.1738  -22.1454   24.1401 C   0  0  0  0  0  0
  -29.6384  -24.4739   22.7376 C   0  0  0  0  0  0
  -30.9569  -22.5758   23.0444 C   0  0  0  0  0  0
  -27.6542  -25.0173   24.2585 C   0  0  0  0  0  0
  -32.1763  -21.8128   22.5594 C   0  0  0  0  0  0
  -30.4832  -20.8679   24.9133 C   0  0  0  0  0  0
  -29.4366  -25.7469   21.9285 C   0  0  0  0  0  0
  -29.9206  -19.6145   24.2200 C   0  0  0  0  0  0
  -30.3230  -18.2999   24.9157 C   0  0  0  0  0  0
  -30.1530  -17.0669   24.0077 C   0  0  0  0  0  0
  -31.1952  -17.0055   22.8699 C   0  0  0  0  0  0
  -30.5809  -16.7033   21.4957 C   0  0  0  0  0  0
  -28.4695  -25.5662   20.7493 C   0  0  0  0  0  0
  -30.6781  -23.7023   22.3566 N   0  0  0  0  0  0
  -30.1460  -15.3123   21.3807 N   0  0  0  0  0  0
  -31.4620  -12.3615   19.0990 H   0  0  0  0  0  0
  -30.3050  -11.2535   19.7756 H   0  0  0  0  0  0
  -29.7165  -11.8019   17.3985 H   0  0  0  0  0  0
  -29.6656  -13.5043   17.7827 H   0  0  0  0  0  0
  -27.8094  -11.3187   18.7901 H   0  0  0  0  0  0
  -27.3598  -12.6712   17.7871 H   0  0  0  0  0  0
  -27.7262  -14.2536   19.6074 H   0  0  0  0  0  0
  -28.6693  -11.9017   21.3156 H   0  0  0  0  0  0
  -28.4706  -13.5235   21.8896 H   0  0  0  0  0  0
  -25.2756   -9.5693   22.4755 H   0  0  0  0  0  0
  -24.0001   -7.4640   22.7473 H   0  0  0  0  0  0
  -21.0834   -8.8774   19.8956 H   0  0  0  0  0  0
  -22.3685  -10.9675   19.6166 H   0  0  0  0  0  0
  -21.2006   -7.6148   23.9714 H   0  0  0  0  0  0
  -21.1477   -6.0524   25.9078 H   0  0  0  0  0  0
  -22.0600   -2.7607   23.2846 H   0  0  0  0  0  0
  -22.4116  -11.9905   22.4777 H   0  0  0  0  0  0
  -21.1135  -13.1290   22.2589 H   0  0  0  0  0  0
  -24.6753  -15.8483   20.5195 H   0  0  0  0  0  0
  -26.2996  -15.6230   20.1056 H   0  0  0  0  0  0
  -26.7116  -32.5565   23.1234 H   0  0  0  0  0  0
  -25.0034  -33.9806   25.0514 H   0  0  0  0  0  0
  -22.6821  -31.3102   21.4145 H   0  0  0  0  0  0
  -23.3715  -35.9689   23.3309 H   0  0  0  0  0  0
  -24.3575  -36.8937   22.2064 H   0  0  0  0  0  0
  -23.7233  -37.6555   23.6637 H   0  0  0  0  0  0
  -26.0324  -31.6050   20.5769 H   0  0  0  0  0  0
  -26.8134  -30.9100   21.9729 H   0  0  0  0  0  0
  -28.1073  -29.1565   21.1309 H   0  0  0  0  0  0
  -26.0965  -25.9757   19.0321 H   0  0  0  0  0  0
  -23.9808  -27.2711   19.0717 H   0  0  0  0  0  0
  -23.7211  -30.6031   19.4056 H   0  0  0  0  0  0
  -22.7285  -29.2549   19.8653 H   0  0  0  0  0  0
  -25.1244  -36.2007   25.0841 H   0  0  0  0  0  0
  -20.9987  -28.3211   24.1430 H   0  0  0  0  0  0
  -20.5643  -26.2271   23.3613 H   0  0  0  0  0  0
  -21.6630  -26.7410   22.1224 H   0  0  0  0  0  0
  -19.6867  -25.6305   21.1243 H   0  0  0  0  0  0
  -19.6673  -27.3209   20.6761 H   0  0  0  0  0  0
  -17.4190  -26.6712   21.4032 H   0  0  0  0  0  0
  -18.0278  -26.0102   22.9038 H   0  0  0  0  0  0
  -19.7940  -30.7267   24.2305 H   0  0  0  0  0  0
  -17.5015  -31.6261   24.5181 H   0  0  0  0  0  0
  -15.5352  -30.3007   23.7617 H   0  0  0  0  0  0
  -15.8686  -28.0854   22.7004 H   0  0  0  0  0  0
  -24.5921  -30.7028   25.7923 H   0  0  0  0  0  0
  -24.8898  -32.2863   26.4985 H   0  0  0  0  0  0
  -25.8101  -30.8941   27.0317 H   0  0  0  0  0  0
  -26.2776  -29.6902   24.1097 H   0  0  0  0  0  0
  -27.3992  -29.7235   25.4517 H   0  0  0  0  0  0
  -27.8625  -30.4420   23.9249 H   0  0  0  0  0  0
  -27.2683  -33.3633   26.2094 H   0  0  0  0  0  0
  -28.3839  -32.6859   25.0343 H   0  0  0  0  0  0
  -28.0703  -31.8460   26.5444 H   0  0  0  0  0  0
  -28.2597  -38.0109   24.7496 H   0  0  0  0  0  0
  -28.1053  -36.2647   24.6294 H   0  0  0  0  0  0
  -27.2321  -37.1488   25.8884 H   0  0  0  0  0  0
  -20.9308  -29.8849   21.7050 H   0  0  0  0  0  0
  -26.0175  -38.2892   24.1399 H   0  0  0  0  0  0
  -28.4582  -22.6475   25.3651 H   0  0  0  0  0  0
  -27.0803  -24.5612   25.0662 H   0  0  0  0  0  0
  -26.9699  -25.2050   23.4317 H   0  0  0  0  0  0
  -28.0340  -25.9764   24.6133 H   0  0  0  0  0  0
  -31.9017  -20.8231   22.1974 H   0  0  0  0  0  0
  -32.9139  -21.7058   23.3543 H   0  0  0  0  0  0
  -32.6697  -22.3365   21.7396 H   0  0  0  0  0  0
  -30.0693  -20.9446   25.9211 H   0  0  0  0  0  0
  -31.5624  -20.7772   25.0454 H   0  0  0  0  0  0
  -30.4072  -26.0739   21.5550 H   0  0  0  0  0  0
  -29.0886  -26.5558   22.5705 H   0  0  0  0  0  0
  -30.2623  -19.5986   23.1854 H   0  0  0  0  0  0
  -28.8331  -19.6759   24.1639 H   0  0  0  0  0  0
  -29.7148  -18.1785   25.8138 H   0  0  0  0  0  0
  -31.3560  -18.3507   25.2601 H   0  0  0  0  0  0
  -29.1383  -17.0592   23.6090 H   0  0  0  0  0  0
  -30.2383  -16.1596   24.6067 H   0  0  0  0  0  0
  -31.9649  -16.2695   23.1069 H   0  0  0  0  0  0
  -31.7321  -17.9514   22.7930 H   0  0  0  0  0  0
  -31.3030  -16.9552   20.7170 H   0  0  0  0  0  0
  -29.7249  -17.3546   21.3121 H   0  0  0  0  0  0
  -28.8213  -24.7822   20.0781 H   0  0  0  0  0  0
  -27.4928  -25.2499   21.1138 H   0  0  0  0  0  0
  -29.2698  -15.0549   21.8092 H   0  0  0  0  0  0
  1 25  1  0  0  0
  1 30  2  0  0  0
  1 87  1  0  0  0
  2  3  1  0  0  0
  2 25  1  0  0  0
  2 88  1  0  0  0
  2 89  1  0  0  0
  3  4  1  0  0  0
  3 90  1  0  0  0
  3 91  1  0  0  0
  4  5  1  0  0  0
  4 92  1  0  0  0
  4 93  1  0  0  0
  5  6  1  0  0  0
  5 26  1  0  0  0
  5 94  1  0  0  0
  6 25  1  0  0  0
  6 95  1  0  0  0
  6 96  1  0  0  0
  7  8  2  0  0  0
  7 26  1  0  0  0
  7 29  1  0  0  0
  8  9  1  0  0  0
  8 22  1  0  0  0
  9 10  1  0  0  0
  9 27  2  0  0  0
 10 11  2  0  0  0
 10 15  1  0  0  0
 11 12  1  0  0  0
 11 97  1  0  0  0
 12 13  2  0  0  0
 12 98  1  0  0  0
 13 14  1  0  0  0
 13 31  1  0  0  0
 14 15  2  0  0  0
 14 99  1  0  0  0
 15100  1  0  0  0
 16 17  2  0  0  0
 16 21  1  0  0  0
 16 31  1  0  0  0
 17 18  1  0  0  0
 17101  1  0  0  0
 18 19  2  0  0  0
 18102  1  0  0  0
 19 20  1  0  0  0
 19 24  1  0  0  0
 20 21  2  0  0  0
 20103  1  0  0  0
 21 23  1  0  0  0
 22 28  1  0  0  0
 22 32  2  0  0  0
 26 27  1  0  0  0
 28104  1  0  0  0
 28105  1  0  0  0
 29106  1  0  0  0
 29107  1  0  0  0
 33 34  1  0  0  0
 33 66  1  0  0  0
 33 70  2  0  0  0
 34 36  1  0  0  0
 34 59  1  0  0  0
 34108  1  0  0  0
 35 44  2  0  0  0
 35 45  1  0  0  0
 35 68  1  0  0  0
 36 56  1  0  0  0
 36109  1  0  0  0
 37 39  1  0  0  0
 37 47  1  0  0  0
 37 66  1  0  0  0
 37110  1  0  0  0
 38 43  2  0  0  0
 38 46  1  0  0  0
 38 47  1  0  0  0
 39 64  1  0  0  0
 39 67  2  0  0  0
 40 52  1  0  0  0
 40 53  2  0  0  0
 40 58  1  0  0  0
 41111  1  0  0  0
 41112  1  0  0  0
 41113  1  0  0  0
 41 48  1  0  0  0
 42 43  1  0  0  0
 42 66  1  0  0  0
 42114  1  0  0  0
 42115  1  0  0  0
 43 44  1  0  0  0
 44116  1  0  0  0
 45 46  2  0  0  0
 45117  1  0  0  0
 46118  1  0  0  0
 47119  1  0  0  0
 47120  1  0  0  0
 48 56  1  0  0  0
 48 65  1  0  0  0
 48121  1  0  0  0
 49 50  1  0  0  0
 49 53  1  0  0  0
 49 64  1  0  0  0
 49122  1  0  0  0
 50 51  1  0  0  0
 50123  1  0  0  0
 50124  1  0  0  0
 51 52  1  0  0  0
 51125  1  0  0  0
 51126  1  0  0  0
 52127  1  0  0  0
 52128  1  0  0  0
 53 54  1  0  0  0
 54 55  2  0  0  0
 54129  1  0  0  0
 55 57  1  0  0  0
 55130  1  0  0  0
 56 69  2  0  0  0
 57 58  2  0  0  0
 57131  1  0  0  0
 58132  1  0  0  0
 59 60  1  0  0  0
 59 61  1  0  0  0
 59 62  1  0  0  0
 60133  1  0  0  0
 60134  1  0  0  0
 60135  1  0  0  0
 61136  1  0  0  0
 61137  1  0  0  0
 61138  1  0  0  0
 62139  1  0  0  0
 62140  1  0  0  0
 62141  1  0  0  0
 63 65  1  0  0  0
 63142  1  0  0  0
 63143  1  0  0  0
 63144  1  0  0  0
 64145  1  0  0  0
 65146  1  0  0  0
 68 85  1  0  0  0
 71 72  2  0  0  0
 71 73  1  0  0  0
 71147  1  0  0  0
 72 74  1  0  0  0
 72 76  1  0  0  0
 73 75  2  0  0  0
 73 78  1  0  0  0
 74 79  1  0  0  0
 74 86  2  0  0  0
 75 77  1  0  0  0
 75 86  1  0  0  0
 76148  1  0  0  0
 76149  1  0  0  0
 76150  1  0  0  0
 77151  1  0  0  0
 77152  1  0  0  0
 77153  1  0  0  0
 78 80  1  0  0  0
 78154  1  0  0  0
 78155  1  0  0  0
 79 85  1  0  0  0
 79156  1  0  0  0
 79157  1  0  0  0
 80 81  1  0  0  0
 80158  1  0  0  0
 80159  1  0  0  0
 81 82  1  0  0  0
 81160  1  0  0  0
 81161  1  0  0  0
 82 83  1  0  0  0
 82162  1  0  0  0
 82163  1  0  0  0
 83 84  1  0  0  0
 83164  1  0  0  0
 83165  1  0  0  0
 84 87  1  0  0  0
 84166  1  0  0  0
 84167  1  0  0  0
 85168  1  0  0  0
 85169  1  0  0  0
 87170  1  0  0  0
M  ISO  4   1 100  68 101  85 101  87 100
M  END
> <chiral flag>
0

> <version>
0

> <s_m_source_file>
/data/baiqing/PycharmProjects/Reinvent-master-3.2/result/LINK_invent/BTK/process_docking_weight1_custom_sum_contain_oxygen_bond_distance_aromatic_linkinvent_7_9_3/rearranged_h_0038.sdf

> <i_m_source_file_index>
33

> <r_mmod_Potential_Energy-OPLS-2005>
-233.066177368164

> <r_mmod_Stretch_Energy-OPLS-2005>
32.0090026855469

> <r_mmod_Bend_Energy-OPLS-2005>
88.4998321533203

> <r_mmod_Torsional_Energy-OPLS-2005>
228.18229675293

> <r_mmod_Improper_Torsional_Energy-OPLS-2005>
2.56904578208923

> <r_mmod_Van_der_Waal_Energy-OPLS-2005>
153.915603637695

> <r_mmod_Electrostatic_Energy-OPLS-2005>
-529.136352539062

> <r_mmod_Solvation_Energy-OPLS-2005>
-216.394012451172

> <b_mmod_Minimization_Converged-OPLS-2005>
0

> <r_mmod_RMS_Derivative-OPLS-2005>
3.18885469436646

$$$$
33
                    3D
 Structure written by MMmdl.
171179  0  0  1  0            999 V2000
  -30.7559  -14.3394   20.6981 C   0  0  0  0  0  0
  -30.4404  -12.2831   19.3716 C   0  0  0  0  0  0
  -29.4952  -12.5354   18.1802 C   0  0  0  0  0  0
  -28.0158  -12.3914   18.5960 C   0  0  0  0  0  0
  -27.6794  -13.1878   19.8828 C   0  0  2  0  0  0
  -28.7213  -12.8763   20.9808 C   0  0  0  0  0  0
  -25.2697  -13.8118   20.5676 C   0  0  0  0  0  0
  -24.1902  -13.0402   20.9130 C   0  0  0  0  0  0
  -24.6441  -11.6868   20.8703 C   0  0  0  0  0  0
  -23.9068  -10.4276   21.0400 C   0  0  0  0  0  0
  -24.3628   -9.4207   21.9182 C   0  0  0  0  0  0
  -23.6306   -8.2236   22.0774 C   0  0  0  0  0  0
  -22.4278   -8.0287   21.3566 C   0  0  0  0  0  0
  -21.9904   -9.0250   20.4654 C   0  0  0  0  0  0
  -22.7230  -10.2128   20.3055 C   0  0  0  0  0  0
  -21.6849   -6.0738   22.5282 C   0  0  0  0  0  0
  -21.3998   -6.5643   23.8207 C   0  0  0  0  0  0
  -21.3661   -5.6802   24.9175 C   0  0  0  0  0  0
  -21.6056   -4.3070   24.7223 C   0  0  0  0  0  0
  -21.8825   -3.8149   23.4344 C   0  0  0  0  0  0
  -21.9190   -4.6966   22.3400 C   0  0  0  0  0  0
  -22.7934  -13.5235   21.1808 C   0  0  0  0  0  0
  -22.1669   -4.2150   21.0981 F   0  0  0  0  0  0
  -21.5651   -3.4558   25.7738 F   0  0  0  0  0  0
  -30.0652  -13.1963   20.4562 N   0  0  0  0  0  0
  -26.3139  -12.9249   20.3401 N   0  0  0  0  0  0
  -25.9365  -11.6417   20.5739 N   0  0  0  0  0  0
  -22.0562  -12.8207   22.0366 N   0  0  0  0  0  0
  -25.4388  -15.1847   20.4186 N   0  0  0  0  0  0
  -31.7595  -14.6924   20.0717 O   0  0  0  0  0  0
  -21.6647   -6.8881   21.4248 O   0  0  0  0  0  0
  -22.3616  -14.5523   20.6659 O   0  0  0  0  0  0
  -24.6072  -31.8744   23.2187 C   0  0  0  0  0  0
  -25.8977  -32.4887   23.8449 C   0  0  1  0  0  0
  -27.2309  -27.4853   20.0726 C   0  0  0  0  0  0
  -25.5842  -33.8678   24.2374 N   0  0  0  0  0  0
  -23.3935  -30.4981   21.5618 C   0  0  2  0  0  0
  -24.8393  -28.9707   20.1209 C   0  0  0  0  0  0
  -22.7380  -29.4672   22.5067 C   0  0  0  0  0  0
  -18.0281  -28.1377   22.8537 C   0  0  0  0  0  0
  -24.1486  -36.7328   23.2642 C   0  0  0  0  0  0
  -25.9188  -30.8492   21.3691 C   0  0  0  0  0  0
  -25.9957  -29.4827   20.7254 C   0  0  0  0  0  0
  -27.1920  -28.7360   20.7232 C   0  0  0  0  0  0
  -26.0832  -27.0136   19.4111 C   0  0  0  0  0  0
  -24.8707  -27.7247   19.4730 C   0  0  0  0  0  0
  -23.5974  -29.8308   20.1759 C   0  0  0  0  0  0
  -25.4104  -36.3168   24.0371 C   0  0  1  0  0  0
  -20.5855  -28.3626   23.1389 C   0  0  2  0  0  0
  -20.6774  -26.9403   22.5419 C   0  0  0  0  0  0
  -19.5744  -26.6427   21.5216 C   0  0  0  0  0  0
  -18.1948  -26.7941   22.1655 C   0  0  0  0  0  0
  -19.1517  -28.8824   23.2954 C   0  0  0  0  0  0
  -18.9435  -30.1450   23.8941 C   0  0  0  0  0  0
  -17.6441  -30.6587   24.0593 C   0  0  0  0  0  0
  -25.9012  -34.9519   23.5178 C   0  0  0  0  0  0
  -16.5329  -29.9084   23.6352 C   0  0  0  0  0  0
  -16.7270  -28.6504   23.0388 C   0  0  0  0  0  0
  -26.4429  -31.6608   25.0724 C   0  0  0  0  0  0
  -25.3690  -31.3627   26.1451 C   0  0  0  0  0  0
  -27.0258  -30.3090   24.6001 C   0  0  0  0  0  0
  -27.6074  -32.4254   25.7443 C   0  0  0  0  0  0
  -27.5596  -37.1833   24.8485 C   0  0  0  0  0  0
  -21.4106  -29.3032   22.3841 N   0  0  0  0  0  0
  -26.4313  -37.3834   23.9424 N   0  0  0  0  0  0
  -24.6588  -31.0859   22.1098 N   0  0  0  0  0  0
  -23.4194  -28.8192   23.3055 O   0  0  0  0  0  0
  -28.3867  -26.7527   20.0200 O   0  0  0  0  0  0
  -26.5602  -34.8962   22.4755 O   0  0  0  0  0  0
  -23.5283  -32.1472   23.7611 O   0  0  0  0  0  0
  -27.3910  -20.9230   22.1885 C   0  0  0  0  0  0
  -27.8155  -20.6160   23.4543 C   0  0  0  0  0  0
  -27.1868  -21.6047   24.2703 C   0  0  0  0  0  0
  -25.2702  -23.2599   26.4515 C   0  0  0  0  0  0
  -28.7489  -19.5074   23.8992 C   0  0  0  0  0  0
  -27.2660  -21.8053   25.7676 C   0  0  0  0  0  0
  -25.8797  -21.8462   26.4486 C   0  0  0  0  0  0
  -29.2463  -18.6036   22.7290 C   0  0  0  0  0  0
  -26.4701  -24.2508   21.1353 C   0  0  0  0  0  0
  -29.2013  -17.0589   22.5618 C   0  0  0  0  0  0
  -27.9664  -24.4223   20.7639 C   0  0  0  0  0  0
  -25.9806  -22.7940   21.2099 C   0  0  0  0  0  0
  -30.5220  -16.4379   22.0571 C   0  0  0  0  0  0
  -28.5455  -25.8150   21.0795 C   0  0  0  0  0  0
  -26.4905  -22.4676   23.5468 N   0  0  0  0  0  0
  -26.6208  -22.0551   22.2738 N   0  0  0  0  0  0
  -30.2439  -15.0580   21.7002 N   0  0  0  0  0  0
  -31.4799  -12.4089   19.0695 H   0  0  0  0  0  0
  -30.3595  -11.2491   19.7114 H   0  0  0  0  0  0
  -29.7216  -11.8445   17.3669 H   0  0  0  0  0  0
  -29.6713  -13.5365   17.7830 H   0  0  0  0  0  0
  -27.8126  -11.3314   18.7507 H   0  0  0  0  0  0
  -27.3668  -12.7085   17.7790 H   0  0  0  0  0  0
  -27.7519  -14.2489   19.6421 H   0  0  0  0  0  0
  -28.6938  -11.8139   21.2297 H   0  0  0  0  0  0
  -28.4633  -13.3858   21.9085 H   0  0  0  0  0  0
  -25.2796   -9.5678   22.4732 H   0  0  0  0  0  0
  -24.0018   -7.4635   22.7509 H   0  0  0  0  0  0
  -21.0827   -8.8764   19.8966 H   0  0  0  0  0  0
  -22.3707  -10.9665   19.6154 H   0  0  0  0  0  0
  -21.1976   -7.6150   23.9705 H   0  0  0  0  0  0
  -21.1485   -6.0539   25.9077 H   0  0  0  0  0  0
  -22.0597   -2.7608   23.2848 H   0  0  0  0  0  0
  -22.4196  -11.9854   22.4681 H   0  0  0  0  0  0
  -21.1207  -13.1252   22.2610 H   0  0  0  0  0  0
  -24.6686  -15.8325   20.5437 H   0  0  0  0  0  0
  -26.2990  -15.6404   20.1406 H   0  0  0  0  0  0
  -26.7036  -32.5664   23.1213 H   0  0  0  0  0  0
  -25.0003  -33.9826   25.0527 H   0  0  0  0  0  0
  -22.6837  -31.3165   21.4282 H   0  0  0  0  0  0
  -23.3780  -35.9630   23.3345 H   0  0  0  0  0  0
  -24.3600  -36.8880   22.2049 H   0  0  0  0  0  0
  -23.7183  -37.6535   23.6594 H   0  0  0  0  0  0
  -26.0101  -31.6169   20.5978 H   0  0  0  0  0  0
  -26.8160  -30.9181   21.9753 H   0  0  0  0  0  0
  -28.0854  -29.1158   21.1973 H   0  0  0  0  0  0
  -26.1316  -26.0955   18.8435 H   0  0  0  0  0  0
  -23.9819  -27.3262   19.0006 H   0  0  0  0  0  0
  -23.7077  -30.6088   19.4202 H   0  0  0  0  0  0
  -22.7199  -29.2486   19.8823 H   0  0  0  0  0  0
  -25.1271  -36.2100   25.0873 H   0  0  0  0  0  0
  -20.9913  -28.3130   24.1519 H   0  0  0  0  0  0
  -20.5715  -26.2208   23.3565 H   0  0  0  0  0  0
  -21.6642  -26.7458   22.1201 H   0  0  0  0  0  0
  -19.6902  -25.6372   21.1178 H   0  0  0  0  0  0
  -19.6708  -27.3324   20.6825 H   0  0  0  0  0  0
  -17.4212  -26.6714   21.4062 H   0  0  0  0  0  0
  -18.0359  -26.0025   22.9027 H   0  0  0  0  0  0
  -19.7897  -30.7303   24.2288 H   0  0  0  0  0  0
  -17.4987  -31.6295   24.5139 H   0  0  0  0  0  0
  -15.5332  -30.3019   23.7628 H   0  0  0  0  0  0
  -15.8682  -28.0827   22.7060 H   0  0  0  0  0  0
  -24.5894  -30.6957   25.7734 H   0  0  0  0  0  0
  -24.8810  -32.2726   26.4962 H   0  0  0  0  0  0
  -25.8030  -30.8739   27.0177 H   0  0  0  0  0  0
  -26.2775  -29.6857   24.1085 H   0  0  0  0  0  0
  -27.4127  -29.7321   25.4409 H   0  0  0  0  0  0
  -27.8562  -30.4507   23.9073 H   0  0  0  0  0  0
  -27.2797  -33.3558   26.2097 H   0  0  0  0  0  0
  -28.3821  -32.6773   25.0178 H   0  0  0  0  0  0
  -28.0787  -31.8278   26.5255 H   0  0  0  0  0  0
  -28.2661  -38.0090   24.7550 H   0  0  0  0  0  0
  -28.1044  -36.2639   24.6313 H   0  0  0  0  0  0
  -27.2320  -37.1501   25.8887 H   0  0  0  0  0  0
  -20.9180  -29.8780   21.7138 H   0  0  0  0  0  0
  -26.0250  -38.2941   24.1395 H   0  0  0  0  0  0
  -27.5877  -20.4606   21.2309 H   0  0  0  0  0  0
  -24.2883  -23.2819   26.9229 H   0  0  0  0  0  0
  -25.1542  -23.6474   25.4383 H   0  0  0  0  0  0
  -25.9199  -23.9504   26.9915 H   0  0  0  0  0  0
  -28.2822  -18.8963   24.6797 H   0  0  0  0  0  0
  -29.6002  -19.9846   24.3964 H   0  0  0  0  0  0
  -27.8209  -22.7195   25.9927 H   0  0  0  0  0  0
  -27.8518  -21.0000   26.2155 H   0  0  0  0  0  0
  -25.2088  -21.1251   25.9771 H   0  0  0  0  0  0
  -25.9844  -21.5323   27.4893 H   0  0  0  0  0  0
  -28.1719  -18.4372   22.6501 H   0  0  0  0  0  0
  -30.0154  -18.3318   23.4524 H   0  0  0  0  0  0
  -25.8306  -24.7274   20.4049 H   0  0  0  0  0  0
  -26.2661  -24.7576   22.0787 H   0  0  0  0  0  0
  -28.4394  -16.7592   21.8306 H   0  0  0  0  0  0
  -28.9058  -16.5773   23.4995 H   0  0  0  0  0  0
  -28.5532  -23.7022   21.3378 H   0  0  0  0  0  0
  -28.1437  -24.1762   19.7164 H   0  0  0  0  0  0
  -26.1732  -22.2899   20.2628 H   0  0  0  0  0  0
  -24.9030  -22.7491   21.3748 H   0  0  0  0  0  0
  -30.8883  -16.9919   21.1890 H   0  0  0  0  0  0
  -31.3012  -16.4652   22.8213 H   0  0  0  0  0  0
  -28.1435  -26.1944   22.0210 H   0  0  0  0  0  0
  -29.6217  -25.7078   21.2256 H   0  0  0  0  0  0
  -29.4457  -14.6360   22.1470 H   0  0  0  0  0  0
  1 25  1  0  0  0
  1 30  2  0  0  0
  1 87  1  0  0  0
  2  3  1  0  0  0
  2 25  1  0  0  0
  2 88  1  0  0  0
  2 89  1  0  0  0
  3  4  1  0  0  0
  3 90  1  0  0  0
  3 91  1  0  0  0
  4  5  1  0  0  0
  4 92  1  0  0  0
  4 93  1  0  0  0
  5  6  1  0  0  0
  5 26  1  0  0  0
  5 94  1  0  0  0
  6 25  1  0  0  0
  6 95  1  0  0  0
  6 96  1  0  0  0
  7  8  2  0  0  0
  7 26  1  0  0  0
  7 29  1  0  0  0
  8  9  1  0  0  0
  8 22  1  0  0  0
  9 10  1  0  0  0
  9 27  2  0  0  0
 10 11  2  0  0  0
 10 15  1  0  0  0
 11 12  1  0  0  0
 11 97  1  0  0  0
 12 13  2  0  0  0
 12 98  1  0  0  0
 13 14  1  0  0  0
 13 31  1  0  0  0
 14 15  2  0  0  0
 14 99  1  0  0  0
 15100  1  0  0  0
 16 17  2  0  0  0
 16 21  1  0  0  0
 16 31  1  0  0  0
 17 18  1  0  0  0
 17101  1  0  0  0
 18 19  2  0  0  0
 18102  1  0  0  0
 19 20  1  0  0  0
 19 24  1  0  0  0
 20 21  2  0  0  0
 20103  1  0  0  0
 21 23  1  0  0  0
 22 28  1  0  0  0
 22 32  2  0  0  0
 26 27  1  0  0  0
 28104  1  0  0  0
 28105  1  0  0  0
 29106  1  0  0  0
 29107  1  0  0  0
 33 34  1  0  0  0
 33 66  1  0  0  0
 33 70  2  0  0  0
 34 36  1  0  0  0
 34 59  1  0  0  0
 34108  1  0  0  0
 35 44  2  0  0  0
 35 45  1  0  0  0
 35 68  1  0  0  0
 36 56  1  0  0  0
 36109  1  0  0  0
 37 39  1  0  0  0
 37 47  1  0  0  0
 37 66  1  0  0  0
 37110  1  0  0  0
 38 43  2  0  0  0
 38 46  1  0  0  0
 38 47  1  0  0  0
 39 64  1  0  0  0
 39 67  2  0  0  0
 40 52  1  0  0  0
 40 53  2  0  0  0
 40 58  1  0  0  0
 41111  1  0  0  0
 41112  1  0  0  0
 41113  1  0  0  0
 41 48  1  0  0  0
 42 43  1  0  0  0
 42 66  1  0  0  0
 42114  1  0  0  0
 42115  1  0  0  0
 43 44  1  0  0  0
 44116  1  0  0  0
 45 46  2  0  0  0
 45117  1  0  0  0
 46118  1  0  0  0
 47119  1  0  0  0
 47120  1  0  0  0
 48 56  1  0  0  0
 48 65  1  0  0  0
 48121  1  0  0  0
 49 50  1  0  0  0
 49 53  1  0  0  0
 49 64  1  0  0  0
 49122  1  0  0  0
 50 51  1  0  0  0
 50123  1  0  0  0
 50124  1  0  0  0
 51 52  1  0  0  0
 51125  1  0  0  0
 51126  1  0  0  0
 52127  1  0  0  0
 52128  1  0  0  0
 53 54  1  0  0  0
 54 55  2  0  0  0
 54129  1  0  0  0
 55 57  1  0  0  0
 55130  1  0  0  0
 56 69  2  0  0  0
 57 58  2  0  0  0
 57131  1  0  0  0
 58132  1  0  0  0
 59 60  1  0  0  0
 59 61  1  0  0  0
 59 62  1  0  0  0
 60133  1  0  0  0
 60134  1  0  0  0
 60135  1  0  0  0
 61136  1  0  0  0
 61137  1  0  0  0
 61138  1  0  0  0
 62139  1  0  0  0
 62140  1  0  0  0
 62141  1  0  0  0
 63 65  1  0  0  0
 63142  1  0  0  0
 63143  1  0  0  0
 63144  1  0  0  0
 64145  1  0  0  0
 65146  1  0  0  0
 68 84  1  0  0  0
 71 72  2  0  0  0
 71 86  1  0  0  0
 71147  1  0  0  0
 72 73  1  0  0  0
 72 75  1  0  0  0
 73 76  1  0  0  0
 73 85  2  0  0  0
 74 77  1  0  0  0
 74148  1  0  0  0
 74149  1  0  0  0
 74150  1  0  0  0
 75 78  1  0  0  0
 75151  1  0  0  0
 75152  1  0  0  0
 76 77  1  0  0  0
 76153  1  0  0  0
 76154  1  0  0  0
 77155  1  0  0  0
 77156  1  0  0  0
 78 80  1  0  0  0
 78157  1  0  0  0
 78158  1  0  0  0
 79 81  1  0  0  0
 79 82  1  0  0  0
 79159  1  0  0  0
 79160  1  0  0  0
 80 83  1  0  0  0
 80161  1  0  0  0
 80162  1  0  0  0
 81 84  1  0  0  0
 81163  1  0  0  0
 81164  1  0  0  0
 82 86  1  0  0  0
 82165  1  0  0  0
 82166  1  0  0  0
 83 87  1  0  0  0
 83167  1  0  0  0
 83168  1  0  0  0
 84169  1  0  0  0
 84170  1  0  0  0
 85 86  1  0  0  0
 87171  1  0  0  0
M  ISO  4   1 100  68 101  84 101  87 100
M  END
> <chiral flag>
0

> <version>
0

> <s_m_source_file>
/data/baiqing/PycharmProjects/Reinvent-master-3.2/result/LINK_invent/BTK/process_docking_weight1_custom_sum_contain_oxygen_bond_distance_aromatic_linkinvent_7_9_3/rearranged_h_0038.sdf

> <i_m_source_file_index>
34

> <r_mmod_Potential_Energy-OPLS-2005>
165.172775268555

> <r_mmod_Stretch_Energy-OPLS-2005>
32.4780693054199

> <r_mmod_Bend_Energy-OPLS-2005>
320.830718994141

> <r_mmod_Torsional_Energy-OPLS-2005>
242.474151611328

> <r_mmod_Improper_Torsional_Energy-OPLS-2005>
2.21521782875061

> <r_mmod_Van_der_Waal_Energy-OPLS-2005>
150.338973999023

> <r_mmod_Electrostatic_Energy-OPLS-2005>
-377.660461425781

> <r_mmod_Solvation_Energy-OPLS-2005>
-214.097808837891

> <b_mmod_Minimization_Converged-OPLS-2005>
0

> <r_mmod_RMS_Derivative-OPLS-2005>
4.84087514877319

$$$$
34
                    3D
 Structure written by MMmdl.
173181  0  0  1  0            999 V2000
  -30.7869  -14.3306   20.6952 C   0  0  0  0  0  0
  -30.4127  -12.2761   19.3877 C   0  0  0  0  0  0
  -29.4800  -12.5290   18.1898 C   0  0  0  0  0  0
  -28.0054  -12.3864   18.6084 C   0  0  0  0  0  0
  -27.6685  -13.2031   19.8831 C   0  0  2  0  0  0
  -28.7061  -12.9350   20.9955 C   0  0  0  0  0  0
  -25.2614  -13.8164   20.5679 C   0  0  0  0  0  0
  -24.1852  -13.0443   20.9162 C   0  0  0  0  0  0
  -24.6403  -11.6911   20.8731 C   0  0  0  0  0  0
  -23.9068  -10.4298   21.0405 C   0  0  0  0  0  0
  -24.3620   -9.4213   21.9182 C   0  0  0  0  0  0
  -23.6294   -8.2250   22.0756 C   0  0  0  0  0  0
  -22.4275   -8.0289   21.3547 C   0  0  0  0  0  0
  -21.9912   -9.0263   20.4647 C   0  0  0  0  0  0
  -22.7243  -10.2141   20.3054 C   0  0  0  0  0  0
  -21.6851   -6.0741   22.5281 C   0  0  0  0  0  0
  -21.4014   -6.5643   23.8216 C   0  0  0  0  0  0
  -21.3659   -5.6793   24.9176 C   0  0  0  0  0  0
  -21.6044   -4.3056   24.7225 C   0  0  0  0  0  0
  -21.8819   -3.8151   23.4345 C   0  0  0  0  0  0
  -21.9193   -4.6969   22.3402 C   0  0  0  0  0  0
  -22.7877  -13.5244   21.1831 C   0  0  0  0  0  0
  -22.1661   -4.2157   21.0979 F   0  0  0  0  0  0
  -21.5628   -3.4540   25.7737 F   0  0  0  0  0  0
  -30.0533  -13.2142   20.4601 N   0  0  0  0  0  0
  -26.3061  -12.9332   20.3403 N   0  0  0  0  0  0
  -25.9328  -11.6491   20.5769 N   0  0  0  0  0  0
  -22.0518  -12.8234   22.0390 N   0  0  0  0  0  0
  -25.4350  -15.1879   20.4094 N   0  0  0  0  0  0
  -31.7973  -14.6294   20.0510 O   0  0  0  0  0  0
  -21.6637   -6.8886   21.4243 O   0  0  0  0  0  0
  -22.3560  -14.5555   20.6691 O   0  0  0  0  0  0
  -24.6114  -31.8707   23.2128 C   0  0  0  0  0  0
  -25.9025  -32.4830   23.8408 C   0  0  1  0  0  0
  -27.2357  -27.4673   20.0838 C   0  0  0  0  0  0
  -25.5897  -33.8627   24.2339 N   0  0  0  0  0  0
  -23.3969  -30.4957   21.5527 C   0  0  2  0  0  0
  -24.8418  -28.9653   20.1141 C   0  0  0  0  0  0
  -22.7385  -29.4685   22.5000 C   0  0  0  0  0  0
  -18.0265  -28.1396   22.8503 C   0  0  0  0  0  0
  -24.1480  -36.7324   23.2641 C   0  0  0  0  0  0
  -25.9214  -30.8444   21.3607 C   0  0  0  0  0  0
  -25.9980  -29.4805   20.7106 C   0  0  0  0  0  0
  -27.1956  -28.7371   20.6945 C   0  0  0  0  0  0
  -26.0655  -26.9656   19.4678 C   0  0  0  0  0  0
  -24.8688  -27.7062   19.4914 C   0  0  0  0  0  0
  -23.6024  -29.8278   20.1669 C   0  0  0  0  0  0
  -25.4099  -36.3113   24.0339 C   0  0  1  0  0  0
  -20.5860  -28.3666   23.1316 C   0  0  2  0  0  0
  -20.6761  -26.9409   22.5391 C   0  0  0  0  0  0
  -19.5716  -26.6399   21.5209 C   0  0  0  0  0  0
  -18.1903  -26.7942   22.1639 C   0  0  0  0  0  0
  -19.1521  -28.8845   23.2915 C   0  0  0  0  0  0
  -18.9455  -30.1454   23.8926 C   0  0  0  0  0  0
  -17.6458  -30.6602   24.0579 C   0  0  0  0  0  0
  -25.9029  -34.9478   23.5133 C   0  0  0  0  0  0
  -16.5347  -29.9113   23.6326 C   0  0  0  0  0  0
  -16.7260  -28.6529   23.0345 C   0  0  0  0  0  0
  -26.4469  -31.6607   25.0726 C   0  0  0  0  0  0
  -25.3742  -31.3693   26.1479 C   0  0  0  0  0  0
  -27.0316  -30.3061   24.6082 C   0  0  0  0  0  0
  -27.6050  -32.4329   25.7487 C   0  0  0  0  0  0
  -27.5573  -37.1811   24.8464 C   0  0  0  0  0  0
  -21.4121  -29.3046   22.3731 N   0  0  0  0  0  0
  -26.4282  -37.3796   23.9412 N   0  0  0  0  0  0
  -24.6619  -31.0832   22.1020 N   0  0  0  0  0  0
  -23.4169  -28.8227   23.3031 O   0  0  0  0  0  0
  -28.4315  -26.7883   20.0963 O   0  0  0  0  0  0
  -26.5579  -34.8916   22.4685 O   0  0  0  0  0  0
  -23.5317  -32.1460   23.7543 O   0  0  0  0  0  0
  -27.0476  -22.3770   19.8595 C   0  0  0  0  0  0
  -24.6095  -22.3158   18.6305 C   0  0  0  0  0  0
  -26.0791  -23.3013   20.2958 C   0  0  0  0  0  0
  -24.8030  -23.2530   19.6717 C   0  0  0  0  0  0
  -26.7486  -21.4797   18.8255 C   0  0  0  0  0  0
  -22.2868  -23.4697   20.1780 C   0  0  0  0  0  0
  -26.4419  -24.2868   21.4120 C   0  0  0  0  0  0
  -23.6468  -24.1752   20.0681 C   0  0  0  0  0  0
  -27.7876  -20.4581   18.4065 C   0  0  0  0  0  0
  -27.9117  -24.7666   21.4139 C   0  0  0  0  0  0
  -27.8749  -19.2962   19.4121 C   0  0  0  0  0  0
  -29.3147  -18.8250   19.6565 C   0  0  0  0  0  0
  -29.3978  -17.7573   20.7537 C   0  0  0  0  0  0
  -30.8484  -17.4656   21.1715 C   0  0  0  0  0  0
  -30.9784  -16.3171   22.1908 C   0  0  0  0  0  0
  -28.4244  -25.3633   20.0813 C   0  0  0  0  0  0
  -25.5488  -21.4402   18.2181 N   0  0  0  0  0  0
  -30.3659  -15.0767   21.7220 N   0  0  0  0  0  0
  -31.4557  -12.3715   19.0804 H   0  0  0  0  0  0
  -30.3053  -11.2507   19.7451 H   0  0  0  0  0  0
  -29.7072  -11.8333   17.3808 H   0  0  0  0  0  0
  -29.6545  -13.5301   17.7922 H   0  0  0  0  0  0
  -27.8079  -11.3280   18.7828 H   0  0  0  0  0  0
  -27.3516  -12.6867   17.7887 H   0  0  0  0  0  0
  -27.7312  -14.2590   19.6180 H   0  0  0  0  0  0
  -28.6592  -11.8916   21.3113 H   0  0  0  0  0  0
  -28.4553  -13.5131   21.8848 H   0  0  0  0  0  0
  -25.2765   -9.5688   22.4756 H   0  0  0  0  0  0
  -24.0003   -7.4641   22.7476 H   0  0  0  0  0  0
  -21.0844   -8.8785   19.8951 H   0  0  0  0  0  0
  -22.3705  -10.9682   19.6164 H   0  0  0  0  0  0
  -21.2008   -7.6151   23.9723 H   0  0  0  0  0  0
  -21.1479   -6.0522   25.9079 H   0  0  0  0  0  0
  -22.0598   -2.7614   23.2842 H   0  0  0  0  0  0
  -22.4130  -11.9885   22.4762 H   0  0  0  0  0  0
  -21.1144  -13.1270   22.2609 H   0  0  0  0  0  0
  -24.6737  -15.8483   20.5220 H   0  0  0  0  0  0
  -26.2988  -15.6256   20.1137 H   0  0  0  0  0  0
  -26.7096  -32.5560   23.1180 H   0  0  0  0  0  0
  -25.0052  -33.9796   25.0487 H   0  0  0  0  0  0
  -22.6850  -31.3123   21.4147 H   0  0  0  0  0  0
  -23.3725  -35.9678   23.3312 H   0  0  0  0  0  0
  -24.3573  -36.8929   22.2054 H   0  0  0  0  0  0
  -23.7250  -37.6536   23.6654 H   0  0  0  0  0  0
  -26.0215  -31.6075   20.5882 H   0  0  0  0  0  0
  -26.8150  -30.9059   21.9695 H   0  0  0  0  0  0
  -28.0903  -29.1312   21.1560 H   0  0  0  0  0  0
  -26.0601  -26.0111   18.9635 H   0  0  0  0  0  0
  -23.9815  -27.3120   19.0167 H   0  0  0  0  0  0
  -23.7063  -30.6024   19.4068 H   0  0  0  0  0  0
  -22.7275  -29.2445   19.8741 H   0  0  0  0  0  0
  -25.1269  -36.1977   25.0832 H   0  0  0  0  0  0
  -20.9964  -28.3233   24.1433 H   0  0  0  0  0  0
  -20.5690  -26.2277   23.3575 H   0  0  0  0  0  0
  -21.6624  -26.7465   22.1157 H   0  0  0  0  0  0
  -19.6836  -25.6308   21.1241 H   0  0  0  0  0  0
  -19.6643  -27.3211   20.6738 H   0  0  0  0  0  0
  -17.4163  -26.6700   21.4045 H   0  0  0  0  0  0
  -18.0312  -26.0085   22.9040 H   0  0  0  0  0  0
  -19.7932  -30.7267   24.2308 H   0  0  0  0  0  0
  -17.5016  -31.6280   24.5189 H   0  0  0  0  0  0
  -15.5351  -30.3028   23.7637 H   0  0  0  0  0  0
  -15.8659  -28.0868   22.7035 H   0  0  0  0  0  0
  -24.5919  -30.7039   25.7805 H   0  0  0  0  0  0
  -24.8925  -32.2843   26.4943 H   0  0  0  0  0  0
  -25.8100  -30.8848   27.0229 H   0  0  0  0  0  0
  -26.2868  -29.6798   24.1158 H   0  0  0  0  0  0
  -27.4133  -29.7309   25.4528 H   0  0  0  0  0  0
  -27.8668  -30.4383   23.9200 H   0  0  0  0  0  0
  -27.2675  -33.3619   26.2090 H   0  0  0  0  0  0
  -28.3848  -32.6906   25.0310 H   0  0  0  0  0  0
  -28.0737  -31.8442   26.5380 H   0  0  0  0  0  0
  -28.2592  -38.0103   24.7504 H   0  0  0  0  0  0
  -28.1064  -36.2636   24.6299 H   0  0  0  0  0  0
  -27.2294  -37.1473   25.8866 H   0  0  0  0  0  0
  -20.9284  -29.8767   21.6950 H   0  0  0  0  0  0
  -26.0170  -38.2876   24.1412 H   0  0  0  0  0  0
  -28.0275  -22.3303   20.3127 H   0  0  0  0  0  0
  -23.6694  -22.2510   18.1041 H   0  0  0  0  0  0
  -21.5278  -24.1652   20.5356 H   0  0  0  0  0  0
  -22.3292  -22.6386   20.8826 H   0  0  0  0  0  0
  -21.9356  -23.0862   19.2205 H   0  0  0  0  0  0
  -26.2167  -23.8077   22.3656 H   0  0  0  0  0  0
  -25.8187  -25.1744   21.3733 H   0  0  0  0  0  0
  -23.5819  -24.9775   19.3336 H   0  0  0  0  0  0
  -23.8255  -24.6507   21.0295 H   0  0  0  0  0  0
  -28.7441  -20.9766   18.3311 H   0  0  0  0  0  0
  -27.5750  -20.0779   17.4065 H   0  0  0  0  0  0
  -28.5492  -23.9263   21.6866 H   0  0  0  0  0  0
  -28.0584  -25.4892   22.2178 H   0  0  0  0  0  0
  -27.2338  -18.4747   19.0896 H   0  0  0  0  0  0
  -27.4741  -19.6246   20.3725 H   0  0  0  0  0  0
  -29.9229  -19.6826   19.9485 H   0  0  0  0  0  0
  -29.7456  -18.4424   18.7301 H   0  0  0  0  0  0
  -28.9090  -16.8514   20.3944 H   0  0  0  0  0  0
  -28.8384  -18.0811   21.6324 H   0  0  0  0  0  0
  -31.2912  -18.3663   21.6003 H   0  0  0  0  0  0
  -31.4439  -17.2412   20.2855 H   0  0  0  0  0  0
  -30.5000  -16.5994   23.1295 H   0  0  0  0  0  0
  -32.0293  -16.1388   22.4248 H   0  0  0  0  0  0
  -27.9262  -24.9582   19.2015 H   0  0  0  0  0  0
  -29.4684  -25.0713   19.9644 H   0  0  0  0  0  0
  -29.5535  -14.7435   22.2202 H   0  0  0  0  0  0
  1 25  1  0  0  0
  1 30  2  0  0  0
  1 88  1  0  0  0
  2  3  1  0  0  0
  2 25  1  0  0  0
  2 89  1  0  0  0
  2 90  1  0  0  0
  3  4  1  0  0  0
  3 91  1  0  0  0
  3 92  1  0  0  0
  4  5  1  0  0  0
  4 93  1  0  0  0
  4 94  1  0  0  0
  5  6  1  0  0  0
  5 26  1  0  0  0
  5 95  1  0  0  0
  6 25  1  0  0  0
  6 96  1  0  0  0
  6 97  1  0  0  0
  7  8  2  0  0  0
  7 26  1  0  0  0
  7 29  1  0  0  0
  8  9  1  0  0  0
  8 22  1  0  0  0
  9 10  1  0  0  0
  9 27  2  0  0  0
 10 11  2  0  0  0
 10 15  1  0  0  0
 11 12  1  0  0  0
 11 98  1  0  0  0
 12 13  2  0  0  0
 12 99  1  0  0  0
 13 14  1  0  0  0
 13 31  1  0  0  0
 14 15  2  0  0  0
 14100  1  0  0  0
 15101  1  0  0  0
 16 17  2  0  0  0
 16 21  1  0  0  0
 16 31  1  0  0  0
 17 18  1  0  0  0
 17102  1  0  0  0
 18 19  2  0  0  0
 18103  1  0  0  0
 19 20  1  0  0  0
 19 24  1  0  0  0
 20 21  2  0  0  0
 20104  1  0  0  0
 21 23  1  0  0  0
 22 28  1  0  0  0
 22 32  2  0  0  0
 26 27  1  0  0  0
 28105  1  0  0  0
 28106  1  0  0  0
 29107  1  0  0  0
 29108  1  0  0  0
 33 34  1  0  0  0
 33 66  1  0  0  0
 33 70  2  0  0  0
 34 36  1  0  0  0
 34 59  1  0  0  0
 34109  1  0  0  0
 35 44  2  0  0  0
 35 45  1  0  0  0
 35 68  1  0  0  0
 36 56  1  0  0  0
 36110  1  0  0  0
 37 39  1  0  0  0
 37 47  1  0  0  0
 37 66  1  0  0  0
 37111  1  0  0  0
 38 43  2  0  0  0
 38 46  1  0  0  0
 38 47  1  0  0  0
 39 64  1  0  0  0
 39 67  2  0  0  0
 40 52  1  0  0  0
 40 53  2  0  0  0
 40 58  1  0  0  0
 41112  1  0  0  0
 41113  1  0  0  0
 41114  1  0  0  0
 41 48  1  0  0  0
 42 43  1  0  0  0
 42 66  1  0  0  0
 42115  1  0  0  0
 42116  1  0  0  0
 43 44  1  0  0  0
 44117  1  0  0  0
 45 46  2  0  0  0
 45118  1  0  0  0
 46119  1  0  0  0
 47120  1  0  0  0
 47121  1  0  0  0
 48 56  1  0  0  0
 48 65  1  0  0  0
 48122  1  0  0  0
 49 50  1  0  0  0
 49 53  1  0  0  0
 49 64  1  0  0  0
 49123  1  0  0  0
 50 51  1  0  0  0
 50124  1  0  0  0
 50125  1  0  0  0
 51 52  1  0  0  0
 51126  1  0  0  0
 51127  1  0  0  0
 52128  1  0  0  0
 52129  1  0  0  0
 53 54  1  0  0  0
 54 55  2  0  0  0
 54130  1  0  0  0
 55 57  1  0  0  0
 55131  1  0  0  0
 56 69  2  0  0  0
 57 58  2  0  0  0
 57132  1  0  0  0
 58133  1  0  0  0
 59 60  1  0  0  0
 59 61  1  0  0  0
 59 62  1  0  0  0
 60134  1  0  0  0
 60135  1  0  0  0
 60136  1  0  0  0
 61137  1  0  0  0
 61138  1  0  0  0
 61139  1  0  0  0
 62140  1  0  0  0
 62141  1  0  0  0
 62142  1  0  0  0
 63 65  1  0  0  0
 63143  1  0  0  0
 63144  1  0  0  0
 63145  1  0  0  0
 64146  1  0  0  0
 65147  1  0  0  0
 68 86  1  0  0  0
 71 73  2  0  0  0
 71 75  1  0  0  0
 71148  1  0  0  0
 72 74  2  0  0  0
 72 87  1  0  0  0
 72149  1  0  0  0
 73 74  1  0  0  0
 73 77  1  0  0  0
 74 78  1  0  0  0
 75 79  1  0  0  0
 75 87  2  0  0  0
 76 78  1  0  0  0
 76150  1  0  0  0
 76151  1  0  0  0
 76152  1  0  0  0
 77 80  1  0  0  0
 77153  1  0  0  0
 77154  1  0  0  0
 78155  1  0  0  0
 78156  1  0  0  0
 79 81  1  0  0  0
 79157  1  0  0  0
 79158  1  0  0  0
 80 86  1  0  0  0
 80159  1  0  0  0
 80160  1  0  0  0
 81 82  1  0  0  0
 81161  1  0  0  0
 81162  1  0  0  0
 82 83  1  0  0  0
 82163  1  0  0  0
 82164  1  0  0  0
 83 84  1  0  0  0
 83165  1  0  0  0
 83166  1  0  0  0
 84 85  1  0  0  0
 84167  1  0  0  0
 84168  1  0  0  0
 85 88  1  0  0  0
 85169  1  0  0  0
 85170  1  0  0  0
 86171  1  0  0  0
 86172  1  0  0  0
 88173  1  0  0  0
M  ISO  4   1 100  68 101  86 101  88 100
M  END
> <chiral flag>
0

> <version>
0

> <s_m_source_file>
/data/baiqing/PycharmProjects/Reinvent-master-3.2/result/LINK_invent/BTK/process_docking_weight1_custom_sum_contain_oxygen_bond_distance_aromatic_linkinvent_7_9_3/rearranged_h_0038.sdf

> <i_m_source_file_index>
35

> <r_mmod_Potential_Energy-OPLS-2005>
-236.310470581055

> <r_mmod_Stretch_Energy-OPLS-2005>
32.9503211975098

> <r_mmod_Bend_Energy-OPLS-2005>
100.899520874023

> <r_mmod_Torsional_Energy-OPLS-2005>
204.078506469727

> <r_mmod_Improper_Torsional_Energy-OPLS-2005>
1.86881160736084

> <r_mmod_Van_der_Waal_Energy-OPLS-2005>
155.144439697266

> <r_mmod_Electrostatic_Energy-OPLS-2005>
-524.923217773438

> <r_mmod_Solvation_Energy-OPLS-2005>
-214.220840454102

> <b_mmod_Minimization_Converged-OPLS-2005>
0

> <r_mmod_RMS_Derivative-OPLS-2005>
1.1061042547226

$$$$
35
                    3D
 Structure written by MMmdl.
169177  0  0  1  0            999 V2000
  -30.7948  -14.3351   20.6924 C   0  0  0  0  0  0
  -30.4054  -12.2783   19.3814 C   0  0  0  0  0  0
  -29.4728  -12.5341   18.1852 C   0  0  0  0  0  0
  -27.9962  -12.4083   18.6037 C   0  0  0  0  0  0
  -27.6731  -13.2086   19.8955 C   0  0  2  0  0  0
  -28.7160  -12.9179   20.9991 C   0  0  0  0  0  0
  -25.2648  -13.8222   20.5763 C   0  0  0  0  0  0
  -24.1873  -13.0487   20.9194 C   0  0  0  0  0  0
  -24.6422  -11.6950   20.8761 C   0  0  0  0  0  0
  -23.9063  -10.4334   21.0431 C   0  0  0  0  0  0
  -24.3614   -9.4256   21.9200 C   0  0  0  0  0  0
  -23.6328   -8.2264   22.0753 C   0  0  0  0  0  0
  -22.4317   -8.0280   21.3545 C   0  0  0  0  0  0
  -21.9932   -9.0261   20.4653 C   0  0  0  0  0  0
  -22.7230  -10.2172   20.3082 C   0  0  0  0  0  0
  -21.6856   -6.0754   22.5268 C   0  0  0  0  0  0
  -21.4012   -6.5659   23.8207 C   0  0  0  0  0  0
  -21.3674   -5.6820   24.9171 C   0  0  0  0  0  0
  -21.6060   -4.3074   24.7219 C   0  0  0  0  0  0
  -21.8822   -3.8170   23.4346 C   0  0  0  0  0  0
  -21.9207   -4.6982   22.3410 C   0  0  0  0  0  0
  -22.7881  -13.5247   21.1831 C   0  0  0  0  0  0
  -22.1659   -4.2167   21.0974 F   0  0  0  0  0  0
  -21.5644   -3.4553   25.7737 F   0  0  0  0  0  0
  -30.0495  -13.2203   20.4573 N   0  0  0  0  0  0
  -26.3101  -12.9383   20.3508 N   0  0  0  0  0  0
  -25.9363  -11.6531   20.5823 N   0  0  0  0  0  0
  -22.0519  -12.8253   22.0398 N   0  0  0  0  0  0
  -25.4399  -15.1955   20.4154 N   0  0  0  0  0  0
  -31.7926  -14.5779   20.0100 O   0  0  0  0  0  0
  -21.6665   -6.8889   21.4238 O   0  0  0  0  0  0
  -22.3536  -14.5547   20.6678 O   0  0  0  0  0  0
  -24.6105  -31.8701   23.2181 C   0  0  0  0  0  0
  -25.9021  -32.4837   23.8418 C   0  0  1  0  0  0
  -27.2328  -27.4756   20.0708 C   0  0  0  0  0  0
  -25.5880  -33.8637   24.2351 N   0  0  0  0  0  0
  -23.3962  -30.4969   21.5580 C   0  0  2  0  0  0
  -24.8399  -28.9675   20.1222 C   0  0  0  0  0  0
  -22.7388  -29.4648   22.5019 C   0  0  0  0  0  0
  -18.0259  -28.1361   22.8488 C   0  0  0  0  0  0
  -24.1490  -36.7358   23.2637 C   0  0  0  0  0  0
  -25.9242  -30.8406   21.3715 C   0  0  0  0  0  0
  -25.9991  -29.4775   20.7202 C   0  0  0  0  0  0
  -27.1974  -28.7332   20.7068 C   0  0  0  0  0  0
  -26.0704  -26.9926   19.4345 C   0  0  0  0  0  0
  -24.8650  -27.7143   19.4857 C   0  0  0  0  0  0
  -23.6020  -29.8325   20.1738 C   0  0  0  0  0  0
  -25.4110  -36.3151   24.0337 C   0  0  1  0  0  0
  -20.5840  -28.3645   23.1304 C   0  0  2  0  0  0
  -20.6757  -26.9382   22.5406 C   0  0  0  0  0  0
  -19.5739  -26.6375   21.5197 C   0  0  0  0  0  0
  -18.1918  -26.7906   22.1609 C   0  0  0  0  0  0
  -19.1510  -28.8817   23.2891 C   0  0  0  0  0  0
  -18.9443  -30.1423   23.8901 C   0  0  0  0  0  0
  -17.6457  -30.6575   24.0558 C   0  0  0  0  0  0
  -25.9042  -34.9497   23.5159 C   0  0  0  0  0  0
  -16.5338  -29.9091   23.6311 C   0  0  0  0  0  0
  -16.7242  -28.6503   23.0337 C   0  0  0  0  0  0
  -26.4477  -31.6594   25.0728 C   0  0  0  0  0  0
  -25.3752  -31.3700   26.1485 C   0  0  0  0  0  0
  -27.0305  -30.3036   24.6105 C   0  0  0  0  0  0
  -27.6051  -32.4322   25.7491 C   0  0  0  0  0  0
  -27.5577  -37.1849   24.8454 C   0  0  0  0  0  0
  -21.4113  -29.3026   22.3753 N   0  0  0  0  0  0
  -26.4295  -37.3831   23.9398 N   0  0  0  0  0  0
  -24.6613  -31.0835   22.1062 N   0  0  0  0  0  0
  -23.4189  -28.8131   23.2983 O   0  0  0  0  0  0
  -28.3945  -26.7444   20.0474 O   0  0  0  0  0  0
  -26.5620  -34.8931   22.4737 O   0  0  0  0  0  0
  -23.5316  -32.1390   23.7624 O   0  0  0  0  0  0
  -28.0757  -21.7677   18.8521 C   0  0  0  0  0  0
  -27.0252  -23.7866   19.7117 C   0  0  0  0  0  0
  -29.4274  -23.4870   19.9399 C   0  0  0  0  0  0
  -26.9255  -22.5621   19.0238 C   0  0  0  0  0  0
  -29.3177  -22.2143   19.3435 C   0  0  0  0  0  0
  -28.2761  -24.2761   20.1423 C   0  0  0  0  0  0
  -25.5826  -22.0747   18.5197 C   0  0  0  0  0  0
  -30.4944  -21.2679   19.3915 C   0  0  0  0  0  0
  -28.3781  -25.5943   20.8962 C   0  0  0  0  0  0
  -30.4692  -15.3212   21.8374 C   0  0  0  0  0  0
  -30.9329  -20.6805   18.0479 C   0  0  0  0  0  0
  -30.6528  -16.8103   21.4605 C   0  0  0  0  0  0
  -32.1454  -19.7396   18.2024 C   0  0  0  0  0  0
  -32.1146  -17.3159   21.3402 C   0  0  0  0  0  0
  -31.8717  -18.4883   19.0598 C   0  0  0  0  0  0
  -32.2591  -18.6270   20.5537 C   0  0  0  0  0  0
  -31.4468  -12.3624   19.0678 H   0  0  0  0  0  0
  -30.2946  -11.2503   19.7304 H   0  0  0  0  0  0
  -29.6945  -11.8376   17.3756 H   0  0  0  0  0  0
  -29.6529  -13.5311   17.7813 H   0  0  0  0  0  0
  -27.7715  -11.3514   18.7545 H   0  0  0  0  0  0
  -27.3526  -12.7408   17.7884 H   0  0  0  0  0  0
  -27.7408  -14.2694   19.6544 H   0  0  0  0  0  0
  -28.6778  -11.8640   21.2778 H   0  0  0  0  0  0
  -28.4686  -13.4486   21.9143 H   0  0  0  0  0  0
  -25.2756   -9.5744   22.4771 H   0  0  0  0  0  0
  -24.0073   -7.4664   22.7462 H   0  0  0  0  0  0
  -21.0872   -8.8790   19.8951 H   0  0  0  0  0  0
  -22.3684  -10.9724   19.6201 H   0  0  0  0  0  0
  -21.1948   -7.6157   23.9704 H   0  0  0  0  0  0
  -21.1502   -6.0537   25.9079 H   0  0  0  0  0  0
  -22.0587   -2.7623   23.2839 H   0  0  0  0  0  0
  -22.4133  -11.9883   22.4716 H   0  0  0  0  0  0
  -21.1149  -13.1281   22.2632 H   0  0  0  0  0  0
  -24.6800  -15.8593   20.5150 H   0  0  0  0  0  0
  -26.3086  -15.6322   20.1292 H   0  0  0  0  0  0
  -26.7091  -32.5582   23.1181 H   0  0  0  0  0  0
  -25.0026  -33.9798   25.0495 H   0  0  0  0  0  0
  -22.6751  -31.3081   21.4258 H   0  0  0  0  0  0
  -23.3741  -35.9705   23.3315 H   0  0  0  0  0  0
  -24.3574  -36.8963   22.2043 H   0  0  0  0  0  0
  -23.7238  -37.6572   23.6637 H   0  0  0  0  0  0
  -26.0409  -31.5991   20.5963 H   0  0  0  0  0  0
  -26.8121  -30.8916   21.9898 H   0  0  0  0  0  0
  -28.0900  -29.1237   21.1761 H   0  0  0  0  0  0
  -26.0965  -26.0816   18.8617 H   0  0  0  0  0  0
  -23.9732  -27.3186   19.0168 H   0  0  0  0  0  0
  -23.7183  -30.6065   19.4136 H   0  0  0  0  0  0
  -22.7229  -29.2561   19.8821 H   0  0  0  0  0  0
  -25.1292  -36.2052   25.0827 H   0  0  0  0  0  0
  -20.9907  -28.3236   24.1427 H   0  0  0  0  0  0
  -20.5654  -26.2266   23.3609 H   0  0  0  0  0  0
  -21.6643  -26.7453   22.1204 H   0  0  0  0  0  0
  -19.6926  -25.6300   21.1211 H   0  0  0  0  0  0
  -19.6677  -27.3198   20.6737 H   0  0  0  0  0  0
  -17.4187  -26.6601   21.4009 H   0  0  0  0  0  0
  -18.0339  -26.0045   22.9000 H   0  0  0  0  0  0
  -19.7928  -30.7212   24.2280 H   0  0  0  0  0  0
  -17.5024  -31.6249   24.5173 H   0  0  0  0  0  0
  -15.5343  -30.3010   23.7637 H   0  0  0  0  0  0
  -15.8626  -28.0832   22.7059 H   0  0  0  0  0  0
  -24.5893  -30.7092   25.7809 H   0  0  0  0  0  0
  -24.8985  -32.2867   26.4969 H   0  0  0  0  0  0
  -25.8079  -30.8810   27.0218 H   0  0  0  0  0  0
  -26.2846  -29.6794   24.1176 H   0  0  0  0  0  0
  -27.4081  -29.7272   25.4552 H   0  0  0  0  0  0
  -27.8671  -30.4336   23.9246 H   0  0  0  0  0  0
  -27.2652  -33.3583   26.2133 H   0  0  0  0  0  0
  -28.3820  -32.6960   25.0310 H   0  0  0  0  0  0
  -28.0776  -31.8431   26.5353 H   0  0  0  0  0  0
  -28.2653  -38.0101   24.7512 H   0  0  0  0  0  0
  -28.1025  -36.2647   24.6296 H   0  0  0  0  0  0
  -27.2288  -37.1525   25.8854 H   0  0  0  0  0  0
  -20.9276  -29.8773   21.7006 H   0  0  0  0  0  0
  -26.0207  -38.2929   24.1370 H   0  0  0  0  0  0
  -27.9923  -20.7903   18.3972 H   0  0  0  0  0  0
  -26.1219  -24.3337   19.9306 H   0  0  0  0  0  0
  -30.3818  -23.8300   20.3152 H   0  0  0  0  0  0
  -25.3000  -21.1419   19.0103 H   0  0  0  0  0  0
  -25.6192  -21.9048   17.4435 H   0  0  0  0  0  0
  -24.8008  -22.8114   18.7100 H   0  0  0  0  0  0
  -30.1704  -20.4627   20.0469 H   0  0  0  0  0  0
  -31.3398  -21.7526   19.8801 H   0  0  0  0  0  0
  -29.2998  -25.6064   21.4798 H   0  0  0  0  0  0
  -27.5698  -25.6335   21.6294 H   0  0  0  0  0  0
  -29.4443  -15.2188   22.1787 H   0  0  0  0  0  0
  -31.0969  -15.0780   22.6943 H   0  0  0  0  0  0
  -31.1875  -21.4928   17.3654 H   0  0  0  0  0  0
  -30.1067  -20.1413   17.5832 H   0  0  0  0  0  0
  -30.1434  -17.4183   22.2088 H   0  0  0  0  0  0
  -30.1000  -16.9771   20.5380 H   0  0  0  0  0  0
  -32.9982  -20.2893   18.6039 H   0  0  0  0  0  0
  -32.4484  -19.4112   17.2066 H   0  0  0  0  0  0
  -32.5210  -17.4552   22.3426 H   0  0  0  0  0  0
  -32.7679  -16.5833   20.8714 H   0  0  0  0  0  0
  -32.4353  -17.6524   18.6417 H   0  0  0  0  0  0
  -30.8232  -18.2164   18.9505 H   0  0  0  0  0  0
  -33.2999  -18.9470   20.6110 H   0  0  0  0  0  0
  -31.6965  -19.4042   21.0673 H   0  0  0  0  0  0
  1 25  1  0  0  0
  1 30  2  0  0  0
  1 80  1  0  0  0
  2  3  1  0  0  0
  2 25  1  0  0  0
  2 87  1  0  0  0
  2 88  1  0  0  0
  3  4  1  0  0  0
  3 89  1  0  0  0
  3 90  1  0  0  0
  4  5  1  0  0  0
  4 91  1  0  0  0
  4 92  1  0  0  0
  5  6  1  0  0  0
  5 26  1  0  0  0
  5 93  1  0  0  0
  6 25  1  0  0  0
  6 94  1  0  0  0
  6 95  1  0  0  0
  7  8  2  0  0  0
  7 26  1  0  0  0
  7 29  1  0  0  0
  8  9  1  0  0  0
  8 22  1  0  0  0
  9 10  1  0  0  0
  9 27  2  0  0  0
 10 11  2  0  0  0
 10 15  1  0  0  0
 11 12  1  0  0  0
 11 96  1  0  0  0
 12 13  2  0  0  0
 12 97  1  0  0  0
 13 14  1  0  0  0
 13 31  1  0  0  0
 14 15  2  0  0  0
 14 98  1  0  0  0
 15 99  1  0  0  0
 16 17  2  0  0  0
 16 21  1  0  0  0
 16 31  1  0  0  0
 17 18  1  0  0  0
 17100  1  0  0  0
 18 19  2  0  0  0
 18101  1  0  0  0
 19 20  1  0  0  0
 19 24  1  0  0  0
 20 21  2  0  0  0
 20102  1  0  0  0
 21 23  1  0  0  0
 22 28  1  0  0  0
 22 32  2  0  0  0
 26 27  1  0  0  0
 28103  1  0  0  0
 28104  1  0  0  0
 29105  1  0  0  0
 29106  1  0  0  0
 33 34  1  0  0  0
 33 66  1  0  0  0
 33 70  2  0  0  0
 34 36  1  0  0  0
 34 59  1  0  0  0
 34107  1  0  0  0
 35 44  2  0  0  0
 35 45  1  0  0  0
 35 68  1  0  0  0
 36 56  1  0  0  0
 36108  1  0  0  0
 37 39  1  0  0  0
 37 47  1  0  0  0
 37 66  1  0  0  0
 37109  1  0  0  0
 38 43  2  0  0  0
 38 46  1  0  0  0
 38 47  1  0  0  0
 39 64  1  0  0  0
 39 67  2  0  0  0
 40 52  1  0  0  0
 40 53  2  0  0  0
 40 58  1  0  0  0
 41110  1  0  0  0
 41111  1  0  0  0
 41112  1  0  0  0
 41 48  1  0  0  0
 42 43  1  0  0  0
 42 66  1  0  0  0
 42113  1  0  0  0
 42114  1  0  0  0
 43 44  1  0  0  0
 44115  1  0  0  0
 45 46  2  0  0  0
 45116  1  0  0  0
 46117  1  0  0  0
 47118  1  0  0  0
 47119  1  0  0  0
 48 56  1  0  0  0
 48 65  1  0  0  0
 48120  1  0  0  0
 49 50  1  0  0  0
 49 53  1  0  0  0
 49 64  1  0  0  0
 49121  1  0  0  0
 50 51  1  0  0  0
 50122  1  0  0  0
 50123  1  0  0  0
 51 52  1  0  0  0
 51124  1  0  0  0
 51125  1  0  0  0
 52126  1  0  0  0
 52127  1  0  0  0
 53 54  1  0  0  0
 54 55  2  0  0  0
 54128  1  0  0  0
 55 57  1  0  0  0
 55129  1  0  0  0
 56 69  2  0  0  0
 57 58  2  0  0  0
 57130  1  0  0  0
 58131  1  0  0  0
 59 60  1  0  0  0
 59 61  1  0  0  0
 59 62  1  0  0  0
 60132  1  0  0  0
 60133  1  0  0  0
 60134  1  0  0  0
 61135  1  0  0  0
 61136  1  0  0  0
 61137  1  0  0  0
 62138  1  0  0  0
 62139  1  0  0  0
 62140  1  0  0  0
 63 65  1  0  0  0
 63141  1  0  0  0
 63142  1  0  0  0
 63143  1  0  0  0
 64144  1  0  0  0
 65145  1  0  0  0
 68 79  1  0  0  0
 71 74  2  0  0  0
 71 75  1  0  0  0
 71146  1  0  0  0
 72 74  1  0  0  0
 72 76  2  0  0  0
 72147  1  0  0  0
 73 75  2  0  0  0
 73 76  1  0  0  0
 73148  1  0  0  0
 74 77  1  0  0  0
 75 78  1  0  0  0
 76 79  1  0  0  0
 77149  1  0  0  0
 77150  1  0  0  0
 77151  1  0  0  0
 78 81  1  0  0  0
 78152  1  0  0  0
 78153  1  0  0  0
 79154  1  0  0  0
 79155  1  0  0  0
 80 82  1  0  0  0
 80156  1  0  0  0
 80157  1  0  0  0
 81 83  1  0  0  0
 81158  1  0  0  0
 81159  1  0  0  0
 82 84  1  0  0  0
 82160  1  0  0  0
 82161  1  0  0  0
 83 85  1  0  0  0
 83162  1  0  0  0
 83163  1  0  0  0
 84 86  1  0  0  0
 84164  1  0  0  0
 84165  1  0  0  0
 85 86  1  0  0  0
 85166  1  0  0  0
 85167  1  0  0  0
 86168  1  0  0  0
 86169  1  0  0  0
M  ISO  4   1 100  68 101  79 101  80 100
M  END
> <chiral flag>
0

> <version>
0

> <s_m_source_file>
/data/baiqing/PycharmProjects/Reinvent-master-3.2/result/LINK_invent/BTK/process_docking_weight1_custom_sum_contain_oxygen_bond_distance_aromatic_linkinvent_7_9_3/rearranged_h_0038.sdf

> <i_m_source_file_index>
36

> <r_mmod_Potential_Energy-OPLS-2005>
38.9685325622559

> <r_mmod_Stretch_Energy-OPLS-2005>
32.8233642578125

> <r_mmod_Bend_Energy-OPLS-2005>
96.1384582519531

> <r_mmod_Torsional_Energy-OPLS-2005>
218.799392700195

> <r_mmod_Improper_Torsional_Energy-OPLS-2005>
2.6127507686615

> <r_mmod_Van_der_Waal_Energy-OPLS-2005>
159.502960205078

> <r_mmod_Electrostatic_Energy-OPLS-2005>
-301.394104003906

> <r_mmod_Solvation_Energy-OPLS-2005>
-178.148971557617

> <b_mmod_Minimization_Converged-OPLS-2005>
0

> <r_mmod_RMS_Derivative-OPLS-2005>
4.14854049682617

$$$$
36
                    3D
 Structure written by MMmdl.
161169  0  0  1  0            999 V2000
  -30.7149  -14.3845   20.6312 C   0  0  0  0  0  0
  -30.4193  -12.2715   19.4005 C   0  0  0  0  0  0
  -29.4897  -12.5007   18.1936 C   0  0  0  0  0  0
  -28.0089  -12.3690   18.6048 C   0  0  0  0  0  0
  -27.6648  -13.1932   19.8755 C   0  0  2  0  0  0
  -28.6990  -12.9207   20.9887 C   0  0  0  0  0  0
  -25.2611  -13.8138   20.5663 C   0  0  0  0  0  0
  -24.1843  -13.0440   20.9178 C   0  0  0  0  0  0
  -24.6363  -11.6900   20.8720 C   0  0  0  0  0  0
  -23.9026  -10.4294   21.0385 C   0  0  0  0  0  0
  -24.3594   -9.4217   21.9157 C   0  0  0  0  0  0
  -23.6293   -8.2251   22.0734 C   0  0  0  0  0  0
  -22.4271   -8.0276   21.3537 C   0  0  0  0  0  0
  -21.9886   -9.0231   20.4632 C   0  0  0  0  0  0
  -22.7200  -10.2121   20.3036 C   0  0  0  0  0  0
  -21.6858   -6.0731   22.5279 C   0  0  0  0  0  0
  -21.4010   -6.5631   23.8206 C   0  0  0  0  0  0
  -21.3667   -5.6787   24.9174 C   0  0  0  0  0  0
  -21.6050   -4.3047   24.7224 C   0  0  0  0  0  0
  -21.8823   -3.8136   23.4343 C   0  0  0  0  0  0
  -21.9192   -4.6962   22.3399 C   0  0  0  0  0  0
  -22.7864  -13.5252   21.1831 C   0  0  0  0  0  0
  -22.1659   -4.2147   21.0980 F   0  0  0  0  0  0
  -21.5638   -3.4527   25.7733 F   0  0  0  0  0  0
  -30.0372  -13.2237   20.4514 N   0  0  0  0  0  0
  -26.3018  -12.9275   20.3329 N   0  0  0  0  0  0
  -25.9281  -11.6443   20.5734 N   0  0  0  0  0  0
  -22.0507  -12.8259   22.0402 N   0  0  0  0  0  0
  -25.4363  -15.1857   20.4062 N   0  0  0  0  0  0
  -31.7962  -14.6354   20.0875 O   0  0  0  0  0  0
  -21.6645   -6.8872   21.4236 O   0  0  0  0  0  0
  -22.3556  -14.5563   20.6685 O   0  0  0  0  0  0
  -24.6107  -31.8695   23.2108 C   0  0  0  0  0  0
  -25.9011  -32.4835   23.8395 C   0  0  1  0  0  0
  -27.2329  -27.4680   20.0971 C   0  0  0  0  0  0
  -25.5852  -33.8624   24.2319 N   0  0  0  0  0  0
  -23.3963  -30.4933   21.5525 C   0  0  2  0  0  0
  -24.8438  -28.9590   20.1202 C   0  0  0  0  0  0
  -22.7375  -29.4687   22.5023 C   0  0  0  0  0  0
  -18.0270  -28.1401   22.8504 C   0  0  0  0  0  0
  -24.1477  -36.7334   23.2651 C   0  0  0  0  0  0
  -25.9210  -30.8487   21.3570 C   0  0  0  0  0  0
  -26.0004  -29.4809   20.7141 C   0  0  0  0  0  0
  -27.2015  -28.7394   20.7047 C   0  0  0  0  0  0
  -26.0667  -26.9468   19.5035 C   0  0  0  0  0  0
  -24.8682  -27.6885   19.5148 C   0  0  0  0  0  0
  -23.6029  -29.8215   20.1679 C   0  0  0  0  0  0
  -25.4096  -36.3109   24.0345 C   0  0  1  0  0  0
  -20.5851  -28.3663   23.1342 C   0  0  2  0  0  0
  -20.6761  -26.9398   22.5435 C   0  0  0  0  0  0
  -19.5736  -26.6402   21.5227 C   0  0  0  0  0  0
  -18.1912  -26.7941   22.1624 C   0  0  0  0  0  0
  -19.1513  -28.8842   23.2922 C   0  0  0  0  0  0
  -18.9452  -30.1456   23.8924 C   0  0  0  0  0  0
  -17.6454  -30.6599   24.0576 C   0  0  0  0  0  0
  -25.9012  -34.9474   23.5136 C   0  0  0  0  0  0
  -16.5344  -29.9103   23.6334 C   0  0  0  0  0  0
  -16.7256  -28.6523   23.0343 C   0  0  0  0  0  0
  -26.4449  -31.6606   25.0705 C   0  0  0  0  0  0
  -25.3723  -31.3696   26.1456 C   0  0  0  0  0  0
  -27.0311  -30.3062   24.6066 C   0  0  0  0  0  0
  -27.6025  -32.4325   25.7461 C   0  0  0  0  0  0
  -27.5574  -37.1810   24.8459 C   0  0  0  0  0  0
  -21.4108  -29.3030   22.3749 N   0  0  0  0  0  0
  -26.4288  -37.3782   23.9402 N   0  0  0  0  0  0
  -24.6609  -31.0836   22.0999 N   0  0  0  0  0  0
  -23.4158  -28.8247   23.3064 O   0  0  0  0  0  0
  -28.3986  -26.7533   20.0327 O   0  0  0  0  0  0
  -26.5599  -34.8921   22.4707 O   0  0  0  0  0  0
  -23.5310  -32.1450   23.7516 O   0  0  0  0  0  0
  -30.9002  -23.8225   22.1276 C   0  0  0  0  0  0
  -29.0376  -22.3122   21.8429 C   0  0  0  0  0  0
  -29.6622  -23.5341   21.5219 C   0  0  0  0  0  0
  -31.4516  -22.8978   23.0323 C   0  0  0  0  0  0
  -29.6722  -21.4371   22.7451 C   0  0  0  0  0  0
  -32.8079  -23.1367   23.6614 C   0  0  0  0  0  0
  -29.0687  -24.4844   20.4938 C   0  0  0  0  0  0
  -29.1352  -20.0357   22.9875 C   0  0  0  0  0  0
  -30.0541  -19.0004   22.3167 C   0  0  0  0  0  0
  -29.4994  -17.5726   22.2096 C   0  0  0  0  0  0
  -30.5606  -16.6560   21.5787 C   0  0  0  0  0  0
  -28.5895  -25.8176   21.0916 C   0  0  0  0  0  0
  -30.8432  -21.7367   23.3505 N   0  0  0  0  0  0
  -30.0844  -15.2939   21.3848 N   0  0  0  0  0  0
  -31.4633  -12.3750   19.0999 H   0  0  0  0  0  0
  -30.3180  -11.2504   19.7710 H   0  0  0  0  0  0
  -29.7215  -11.7878   17.4010 H   0  0  0  0  0  0
  -29.6686  -13.4932   17.7773 H   0  0  0  0  0  0
  -27.8112  -11.3109   18.7839 H   0  0  0  0  0  0
  -27.3617  -12.6605   17.7782 H   0  0  0  0  0  0
  -27.7251  -14.2485   19.6056 H   0  0  0  0  0  0
  -28.6627  -11.8709   21.2845 H   0  0  0  0  0  0
  -28.4553  -13.4789   21.8932 H   0  0  0  0  0  0
  -25.2736   -9.5722   22.4724 H   0  0  0  0  0  0
  -24.0017   -7.4646   22.7445 H   0  0  0  0  0  0
  -21.0822   -8.8732   19.8939 H   0  0  0  0  0  0
  -22.3635  -10.9649   19.6153 H   0  0  0  0  0  0
  -21.1993   -7.6134   23.9718 H   0  0  0  0  0  0
  -21.1491   -6.0508   25.9082 H   0  0  0  0  0  0
  -22.0597   -2.7597   23.2840 H   0  0  0  0  0  0
  -22.4120  -11.9932   22.4815 H   0  0  0  0  0  0
  -21.1115  -13.1260   22.2581 H   0  0  0  0  0  0
  -24.6741  -15.8460   20.5162 H   0  0  0  0  0  0
  -26.2944  -15.6187   20.0879 H   0  0  0  0  0  0
  -26.7087  -32.5555   23.1169 H   0  0  0  0  0  0
  -24.9937  -33.9775   25.0423 H   0  0  0  0  0  0
  -22.6843  -31.3101   21.4142 H   0  0  0  0  0  0
  -23.3709  -35.9700   23.3336 H   0  0  0  0  0  0
  -24.3578  -36.8921   22.2065 H   0  0  0  0  0  0
  -23.7272  -37.6561   23.6655 H   0  0  0  0  0  0
  -26.0219  -31.6128   20.5845 H   0  0  0  0  0  0
  -26.8133  -30.9121   21.9684 H   0  0  0  0  0  0
  -28.0997  -29.1417   21.1523 H   0  0  0  0  0  0
  -26.0881  -25.9779   19.0255 H   0  0  0  0  0  0
  -23.9780  -27.2807   19.0536 H   0  0  0  0  0  0
  -23.7047  -30.5959   19.4059 H   0  0  0  0  0  0
  -22.7275  -29.2380   19.8775 H   0  0  0  0  0  0
  -25.1284  -36.1969   25.0847 H   0  0  0  0  0  0
  -20.9949  -28.3228   24.1454 H   0  0  0  0  0  0
  -20.5685  -26.2254   23.3617 H   0  0  0  0  0  0
  -21.6636  -26.7469   22.1205 H   0  0  0  0  0  0
  -19.6888  -25.6322   21.1230 H   0  0  0  0  0  0
  -19.6681  -27.3239   20.6779 H   0  0  0  0  0  0
  -17.4191  -26.6713   21.4021 H   0  0  0  0  0  0
  -18.0295  -26.0104   22.9031 H   0  0  0  0  0  0
  -19.7938  -30.7267   24.2291 H   0  0  0  0  0  0
  -17.5019  -31.6277   24.5187 H   0  0  0  0  0  0
  -15.5345  -30.3007   23.7658 H   0  0  0  0  0  0
  -15.8665  -28.0855   22.7024 H   0  0  0  0  0  0
  -24.5866  -30.7085   25.7762 H   0  0  0  0  0  0
  -24.8949  -32.2858   26.4948 H   0  0  0  0  0  0
  -25.8072  -30.8834   27.0202 H   0  0  0  0  0  0
  -26.2863  -29.6781   24.1167 H   0  0  0  0  0  0
  -27.4176  -29.7326   25.4505 H   0  0  0  0  0  0
  -27.8626  -30.4427   23.9154 H   0  0  0  0  0  0
  -27.2657  -33.3619   26.2074 H   0  0  0  0  0  0
  -28.3815  -32.6873   25.0262 H   0  0  0  0  0  0
  -28.0708  -31.8447   26.5360 H   0  0  0  0  0  0
  -28.2584  -38.0101   24.7470 H   0  0  0  0  0  0
  -28.1063  -36.2629   24.6317 H   0  0  0  0  0  0
  -27.2296  -37.1520   25.8858 H   0  0  0  0  0  0
  -20.9265  -29.8718   21.6953 H   0  0  0  0  0  0
  -26.0174  -38.2859   24.1377 H   0  0  0  0  0  0
  -31.4320  -24.7299   21.8789 H   0  0  0  0  0  0
  -28.1097  -22.0279   21.3661 H   0  0  0  0  0  0
  -32.7018  -23.5874   24.6474 H   0  0  0  0  0  0
  -33.4109  -23.8054   23.0470 H   0  0  0  0  0  0
  -33.3567  -22.1992   23.7655 H   0  0  0  0  0  0
  -28.2448  -23.9986   19.9684 H   0  0  0  0  0  0
  -29.8349  -24.6744   19.7409 H   0  0  0  0  0  0
  -28.1268  -19.9608   22.5815 H   0  0  0  0  0  0
  -29.0518  -19.8471   24.0583 H   0  0  0  0  0  0
  -31.0049  -18.9845   22.8495 H   0  0  0  0  0  0
  -30.2840  -19.3492   21.3094 H   0  0  0  0  0  0
  -28.5973  -17.5787   21.5961 H   0  0  0  0  0  0
  -29.2101  -17.2009   23.1940 H   0  0  0  0  0  0
  -31.4576  -16.6279   22.1988 H   0  0  0  0  0  0
  -30.8607  -17.0686   20.6124 H   0  0  0  0  0  0
  -29.3503  -26.2285   21.7570 H   0  0  0  0  0  0
  -27.6902  -25.6564   21.6922 H   0  0  0  0  0  0
  -29.1979  -15.0295   21.7886 H   0  0  0  0  0  0
  1 25  1  0  0  0
  1 30  2  0  0  0
  1 84  1  0  0  0
  2  3  1  0  0  0
  2 25  1  0  0  0
  2 85  1  0  0  0
  2 86  1  0  0  0
  3  4  1  0  0  0
  3 87  1  0  0  0
  3 88  1  0  0  0
  4  5  1  0  0  0
  4 89  1  0  0  0
  4 90  1  0  0  0
  5  6  1  0  0  0
  5 26  1  0  0  0
  5 91  1  0  0  0
  6 25  1  0  0  0
  6 92  1  0  0  0
  6 93  1  0  0  0
  7  8  2  0  0  0
  7 26  1  0  0  0
  7 29  1  0  0  0
  8  9  1  0  0  0
  8 22  1  0  0  0
  9 10  1  0  0  0
  9 27  2  0  0  0
 10 11  2  0  0  0
 10 15  1  0  0  0
 11 12  1  0  0  0
 11 94  1  0  0  0
 12 13  2  0  0  0
 12 95  1  0  0  0
 13 14  1  0  0  0
 13 31  1  0  0  0
 14 15  2  0  0  0
 14 96  1  0  0  0
 15 97  1  0  0  0
 16 17  2  0  0  0
 16 21  1  0  0  0
 16 31  1  0  0  0
 17 18  1  0  0  0
 17 98  1  0  0  0
 18 19  2  0  0  0
 18 99  1  0  0  0
 19 20  1  0  0  0
 19 24  1  0  0  0
 20 21  2  0  0  0
 20100  1  0  0  0
 21 23  1  0  0  0
 22 28  1  0  0  0
 22 32  2  0  0  0
 26 27  1  0  0  0
 28101  1  0  0  0
 28102  1  0  0  0
 29103  1  0  0  0
 29104  1  0  0  0
 33 34  1  0  0  0
 33 66  1  0  0  0
 33 70  2  0  0  0
 34 36  1  0  0  0
 34 59  1  0  0  0
 34105  1  0  0  0
 35 44  2  0  0  0
 35 45  1  0  0  0
 35 68  1  0  0  0
 36 56  1  0  0  0
 36106  1  0  0  0
 37 39  1  0  0  0
 37 47  1  0  0  0
 37 66  1  0  0  0
 37107  1  0  0  0
 38 43  2  0  0  0
 38 46  1  0  0  0
 38 47  1  0  0  0
 39 64  1  0  0  0
 39 67  2  0  0  0
 40 52  1  0  0  0
 40 53  2  0  0  0
 40 58  1  0  0  0
 41108  1  0  0  0
 41109  1  0  0  0
 41110  1  0  0  0
 41 48  1  0  0  0
 42 43  1  0  0  0
 42 66  1  0  0  0
 42111  1  0  0  0
 42112  1  0  0  0
 43 44  1  0  0  0
 44113  1  0  0  0
 45 46  2  0  0  0
 45114  1  0  0  0
 46115  1  0  0  0
 47116  1  0  0  0
 47117  1  0  0  0
 48 56  1  0  0  0
 48 65  1  0  0  0
 48118  1  0  0  0
 49 50  1  0  0  0
 49 53  1  0  0  0
 49 64  1  0  0  0
 49119  1  0  0  0
 50 51  1  0  0  0
 50120  1  0  0  0
 50121  1  0  0  0
 51 52  1  0  0  0
 51122  1  0  0  0
 51123  1  0  0  0
 52124  1  0  0  0
 52125  1  0  0  0
 53 54  1  0  0  0
 54 55  2  0  0  0
 54126  1  0  0  0
 55 57  1  0  0  0
 55127  1  0  0  0
 56 69  2  0  0  0
 57 58  2  0  0  0
 57128  1  0  0  0
 58129  1  0  0  0
 59 60  1  0  0  0
 59 61  1  0  0  0
 59 62  1  0  0  0
 60130  1  0  0  0
 60131  1  0  0  0
 60132  1  0  0  0
 61133  1  0  0  0
 61134  1  0  0  0
 61135  1  0  0  0
 62136  1  0  0  0
 62137  1  0  0  0
 62138  1  0  0  0
 63 65  1  0  0  0
 63139  1  0  0  0
 63140  1  0  0  0
 63141  1  0  0  0
 64142  1  0  0  0
 65143  1  0  0  0
 68 82  1  0  0  0
 71 73  2  0  0  0
 71 74  1  0  0  0
 71144  1  0  0  0
 72 73  1  0  0  0
 72 75  2  0  0  0
 72145  1  0  0  0
 73 77  1  0  0  0
 74 76  1  0  0  0
 74 83  2  0  0  0
 75 78  1  0  0  0
 75 83  1  0  0  0
 76146  1  0  0  0
 76147  1  0  0  0
 76148  1  0  0  0
 77 82  1  0  0  0
 77149  1  0  0  0
 77150  1  0  0  0
 78 79  1  0  0  0
 78151  1  0  0  0
 78152  1  0  0  0
 79 80  1  0  0  0
 79153  1  0  0  0
 79154  1  0  0  0
 80 81  1  0  0  0
 80155  1  0  0  0
 80156  1  0  0  0
 81 84  1  0  0  0
 81157  1  0  0  0
 81158  1  0  0  0
 82159  1  0  0  0
 82160  1  0  0  0
 84161  1  0  0  0
M  ISO  4   1 100  68 101  82 101  84 100
M  END
> <chiral flag>
0

> <version>
0

> <s_m_source_file>
/data/baiqing/PycharmProjects/Reinvent-master-3.2/result/LINK_invent/BTK/process_docking_weight1_custom_sum_contain_oxygen_bond_distance_aromatic_linkinvent_7_9_3/rearranged_h_0038.sdf

> <i_m_source_file_index>
37

> <r_mmod_Potential_Energy-OPLS-2005>
-238.307998657227

> <r_mmod_Stretch_Energy-OPLS-2005>
29.7749366760254

> <r_mmod_Bend_Energy-OPLS-2005>
84.4340057373047

> <r_mmod_Torsional_Energy-OPLS-2005>
215.997573852539

> <r_mmod_Improper_Torsional_Energy-OPLS-2005>
3.02785277366638

> <r_mmod_Van_der_Waal_Energy-OPLS-2005>
153.347076416016

> <r_mmod_Electrostatic_Energy-OPLS-2005>
-514.736450195312

> <r_mmod_Solvation_Energy-OPLS-2005>
-217.114776611328

> <b_mmod_Minimization_Converged-OPLS-2005>
0

> <r_mmod_RMS_Derivative-OPLS-2005>
2.65268635749817

$$$$
37
                    3D
 Structure written by MMmdl.
168177  0  0  1  0            999 V2000
  -30.7789  -14.3615   20.6666 C   0  0  0  0  0  0
  -30.4075  -12.2820   19.3974 C   0  0  0  0  0  0
  -29.4808  -12.5205   18.1921 C   0  0  0  0  0  0
  -28.0051  -12.3807   18.6089 C   0  0  0  0  0  0
  -27.6632  -13.2061   19.8773 C   0  0  2  0  0  0
  -28.7017  -12.9588   20.9938 C   0  0  0  0  0  0
  -25.2586  -13.8167   20.5675 C   0  0  0  0  0  0
  -24.1834  -13.0442   20.9175 C   0  0  0  0  0  0
  -24.6388  -11.6912   20.8734 C   0  0  0  0  0  0
  -23.9058  -10.4295   21.0404 C   0  0  0  0  0  0
  -24.3609   -9.4215   21.9190 C   0  0  0  0  0  0
  -23.6286   -8.2250   22.0759 C   0  0  0  0  0  0
  -22.4271   -8.0285   21.3543 C   0  0  0  0  0  0
  -21.9916   -9.0254   20.4635 C   0  0  0  0  0  0
  -22.7240  -10.2132   20.3044 C   0  0  0  0  0  0
  -21.6851   -6.0740   22.5283 C   0  0  0  0  0  0
  -21.4007   -6.5642   23.8217 C   0  0  0  0  0  0
  -21.3657   -5.6792   24.9181 C   0  0  0  0  0  0
  -21.6044   -4.3057   24.7226 C   0  0  0  0  0  0
  -21.8820   -3.8153   23.4345 C   0  0  0  0  0  0
  -21.9190   -4.6970   22.3403 C   0  0  0  0  0  0
  -22.7855  -13.5239   21.1835 C   0  0  0  0  0  0
  -22.1661   -4.2158   21.0982 F   0  0  0  0  0  0
  -21.5631   -3.4537   25.7738 F   0  0  0  0  0  0
  -30.0420  -13.2421   20.4493 N   0  0  0  0  0  0
  -26.3025  -12.9339   20.3372 N   0  0  0  0  0  0
  -25.9314  -11.6497   20.5761 N   0  0  0  0  0  0
  -22.0479  -12.8216   22.0367 N   0  0  0  0  0  0
  -25.4316  -15.1884   20.4085 N   0  0  0  0  0  0
  -31.8393  -14.5873   20.0790 O   0  0  0  0  0  0
  -21.6635   -6.8884   21.4243 O   0  0  0  0  0  0
  -22.3556  -14.5560   20.6707 O   0  0  0  0  0  0
  -24.6088  -31.8714   23.2150 C   0  0  0  0  0  0
  -25.8991  -32.4846   23.8440 C   0  0  1  0  0  0
  -27.2416  -27.4821   20.0762 C   0  0  0  0  0  0
  -25.5846  -33.8647   24.2349 N   0  0  0  0  0  0
  -23.3959  -30.4958   21.5532 C   0  0  2  0  0  0
  -24.8438  -28.9622   20.1197 C   0  0  0  0  0  0
  -22.7368  -29.4689   22.5005 C   0  0  0  0  0  0
  -18.0255  -28.1385   22.8498 C   0  0  0  0  0  0
  -24.1470  -36.7339   23.2641 C   0  0  0  0  0  0
  -25.9208  -30.8461   21.3664 C   0  0  0  0  0  0
  -25.9982  -29.4800   20.7209 C   0  0  0  0  0  0
  -27.1975  -28.7388   20.7124 C   0  0  0  0  0  0
  -26.0691  -26.9573   19.4913 C   0  0  0  0  0  0
  -24.8695  -27.6944   19.5104 C   0  0  0  0  0  0
  -23.6034  -29.8246   20.1685 C   0  0  0  0  0  0
  -25.4093  -36.3132   24.0337 C   0  0  1  0  0  0
  -20.5841  -28.3670   23.1329 C   0  0  2  0  0  0
  -20.6737  -26.9409   22.5426 C   0  0  0  0  0  0
  -19.5724  -26.6396   21.5209 C   0  0  0  0  0  0
  -18.1899  -26.7939   22.1619 C   0  0  0  0  0  0
  -19.1501  -28.8840   23.2919 C   0  0  0  0  0  0
  -18.9430  -30.1442   23.8939 C   0  0  0  0  0  0
  -17.6436  -30.6587   24.0577 C   0  0  0  0  0  0
  -25.9018  -34.9490   23.5147 C   0  0  0  0  0  0
  -16.5327  -29.9098   23.6324 C   0  0  0  0  0  0
  -16.7245  -28.6513   23.0346 C   0  0  0  0  0  0
  -26.4437  -31.6619   25.0762 C   0  0  0  0  0  0
  -25.3704  -31.3649   26.1492 C   0  0  0  0  0  0
  -27.0326  -30.3093   24.6132 C   0  0  0  0  0  0
  -27.5997  -32.4359   25.7530 C   0  0  0  0  0  0
  -27.5572  -37.1826   24.8453 C   0  0  0  0  0  0
  -21.4102  -29.3044   22.3735 N   0  0  0  0  0  0
  -26.4281  -37.3811   23.9405 N   0  0  0  0  0  0
  -24.6598  -31.0850   22.1034 N   0  0  0  0  0  0
  -23.4155  -28.8221   23.3028 O   0  0  0  0  0  0
  -28.4231  -26.7896   20.0287 O   0  0  0  0  0  0
  -26.5601  -34.8934   22.4724 O   0  0  0  0  0  0
  -23.5291  -32.1441   23.7566 O   0  0  0  0  0  0
  -31.5602  -17.7818   20.1105 C   0  0  0  0  0  0
  -30.3226  -18.8013   21.9078 C   0  0  0  0  0  0
  -30.9392  -17.6579   21.3675 C   0  0  0  0  0  0
  -31.5358  -19.0197   19.4428 C   0  0  0  0  0  0
  -30.8926  -20.1122   20.0688 C   0  0  0  0  0  0
  -31.6740  -22.5263   20.2775 C   0  0  0  0  0  0
  -29.4291  -22.0207   19.2015 C   0  0  0  0  0  0
  -31.6676  -23.9165   19.6214 C   0  0  0  0  0  0
  -29.4303  -23.4189   18.5598 C   0  0  0  0  0  0
  -30.8617  -21.5126   19.4497 C   0  0  2  0  0  0
  -30.2327  -24.4363   19.4024 C   0  0  2  0  0  0
  -32.2183  -19.1392   18.0884 C   0  0  0  0  0  0
  -31.0055  -16.3538   22.1632 C   0  0  0  0  0  0
  -30.2592  -25.8447   18.7737 C   0  0  0  0  0  0
  -28.8917  -26.5383   18.7088 C   0  0  0  0  0  0
  -30.2996  -19.9938   21.2781 N   0  0  0  0  0  0
  -30.2951  -15.2111   21.5825 N   0  0  0  0  0  0
  -31.4526  -12.3652   19.0934 H   0  0  0  0  0  0
  -30.2919  -11.2637   19.7717 H   0  0  0  0  0  0
  -29.7121  -11.8150   17.3928 H   0  0  0  0  0  0
  -29.6562  -13.5167   17.7832 H   0  0  0  0  0  0
  -27.8104  -11.3231   18.7914 H   0  0  0  0  0  0
  -27.3525  -12.6714   17.7850 H   0  0  0  0  0  0
  -27.7187  -14.2591   19.5996 H   0  0  0  0  0  0
  -28.6619  -11.9187   21.3212 H   0  0  0  0  0  0
  -28.4558  -13.5470   21.8781 H   0  0  0  0  0  0
  -25.2751   -9.5698   22.4768 H   0  0  0  0  0  0
  -23.9993   -7.4648   22.7486 H   0  0  0  0  0  0
  -21.0857   -8.8768   19.8932 H   0  0  0  0  0  0
  -22.3710  -10.9667   19.6144 H   0  0  0  0  0  0
  -21.1994   -7.6150   23.9723 H   0  0  0  0  0  0
  -21.1478   -6.0521   25.9081 H   0  0  0  0  0  0
  -22.0600   -2.7613   23.2842 H   0  0  0  0  0  0
  -22.4067  -11.9843   22.4712 H   0  0  0  0  0  0
  -21.1089  -13.1237   22.2543 H   0  0  0  0  0  0
  -24.6685  -15.8480   20.5162 H   0  0  0  0  0  0
  -26.2924  -15.6256   20.1017 H   0  0  0  0  0  0
  -26.7071  -32.5587   23.1223 H   0  0  0  0  0  0
  -24.9920  -33.9831   25.0437 H   0  0  0  0  0  0
  -22.6826  -31.3112   21.4144 H   0  0  0  0  0  0
  -23.3735  -35.9666   23.3298 H   0  0  0  0  0  0
  -24.3551  -36.8977   22.2055 H   0  0  0  0  0  0
  -23.7217  -37.6535   23.6675 H   0  0  0  0  0  0
  -26.0267  -31.6096   20.5938 H   0  0  0  0  0  0
  -26.8107  -30.9043   21.9815 H   0  0  0  0  0  0
  -28.0934  -29.1366   21.1684 H   0  0  0  0  0  0
  -26.0807  -25.9834   19.0227 H   0  0  0  0  0  0
  -23.9794  -27.2854   19.0529 H   0  0  0  0  0  0
  -23.7069  -30.5968   19.4054 H   0  0  0  0  0  0
  -22.7295  -29.2394   19.8776 H   0  0  0  0  0  0
  -25.1268  -36.2003   25.0830 H   0  0  0  0  0  0
  -20.9945  -28.3239   24.1445 H   0  0  0  0  0  0
  -20.5607  -26.2287   23.3614 H   0  0  0  0  0  0
  -21.6614  -26.7437   22.1238 H   0  0  0  0  0  0
  -19.6887  -25.6309   21.1227 H   0  0  0  0  0  0
  -19.6669  -27.3205   20.6738 H   0  0  0  0  0  0
  -17.4175  -26.6700   21.4013 H   0  0  0  0  0  0
  -18.0292  -26.0066   22.9001 H   0  0  0  0  0  0
  -19.7908  -30.7239   24.2343 H   0  0  0  0  0  0
  -17.4993  -31.6263   24.5181 H   0  0  0  0  0  0
  -15.5331  -30.3014   23.7630 H   0  0  0  0  0  0
  -15.8638  -28.0842   22.7054 H   0  0  0  0  0  0
  -24.5932  -30.6950   25.7795 H   0  0  0  0  0  0
  -24.8821  -32.2762   26.4958 H   0  0  0  0  0  0
  -25.8067  -30.8811   27.0243 H   0  0  0  0  0  0
  -26.2916  -29.6828   24.1160 H   0  0  0  0  0  0
  -27.4102  -29.7343   25.4598 H   0  0  0  0  0  0
  -27.8721  -30.4468   23.9310 H   0  0  0  0  0  0
  -27.2596  -33.3640   26.2138 H   0  0  0  0  0  0
  -28.3774  -32.6952   25.0336 H   0  0  0  0  0  0
  -28.0702  -31.8480   26.5422 H   0  0  0  0  0  0
  -28.2568  -38.0145   24.7515 H   0  0  0  0  0  0
  -28.1086  -36.2672   24.6248 H   0  0  0  0  0  0
  -27.2293  -37.1437   25.8856 H   0  0  0  0  0  0
  -20.9241  -29.8789   21.6989 H   0  0  0  0  0  0
  -26.0174  -38.2891   24.1411 H   0  0  0  0  0  0
  -32.0792  -16.9493   19.6638 H   0  0  0  0  0  0
  -29.8502  -18.7703   22.8786 H   0  0  0  0  0  0
  -31.2650  -22.5970   21.2861 H   0  0  0  0  0  0
  -32.7002  -22.1733   20.3870 H   0  0  0  0  0  0
  -28.8981  -21.3204   18.5556 H   0  0  0  0  0  0
  -28.8777  -22.0523   20.1423 H   0  0  0  0  0  0
  -32.1930  -23.8706   18.6663 H   0  0  0  0  0  0
  -32.2295  -24.6122   20.2457 H   0  0  0  0  0  0
  -28.3967  -23.7437   18.4429 H   0  0  0  0  0  0
  -29.8482  -23.3584   17.5535 H   0  0  0  0  0  0
  -31.3323  -21.4730   18.4695 H   0  0  0  0  0  0
  -29.7578  -24.5172   20.3819 H   0  0  0  0  0  0
  -32.6767  -18.1981   17.7844 H   0  0  0  0  0  0
  -33.0061  -19.8930   18.1175 H   0  0  0  0  0  0
  -31.4987  -19.4182   17.3177 H   0  0  0  0  0  0
  -30.6032  -16.5215   23.1629 H   0  0  0  0  0  0
  -32.0556  -16.0945   22.3140 H   0  0  0  0  0  0
  -30.6790  -25.7887   17.7685 H   0  0  0  0  0  0
  -30.9359  -26.4838   19.3433 H   0  0  0  0  0  0
  -28.1854  -25.9422   18.1331 H   0  0  0  0  0  0
  -28.9992  -27.4881   18.1813 H   0  0  0  0  0  0
  -29.4236  -14.9460   22.0172 H   0  0  0  0  0  0
  1 25  1  0  0  0
  1 30  2  0  0  0
  1 87  1  0  0  0
  2  3  1  0  0  0
  2 25  1  0  0  0
  2 88  1  0  0  0
  2 89  1  0  0  0
  3  4  1  0  0  0
  3 90  1  0  0  0
  3 91  1  0  0  0
  4  5  1  0  0  0
  4 92  1  0  0  0
  4 93  1  0  0  0
  5  6  1  0  0  0
  5 26  1  0  0  0
  5 94  1  0  0  0
  6 25  1  0  0  0
  6 95  1  0  0  0
  6 96  1  0  0  0
  7  8  2  0  0  0
  7 26  1  0  0  0
  7 29  1  0  0  0
  8  9  1  0  0  0
  8 22  1  0  0  0
  9 10  1  0  0  0
  9 27  2  0  0  0
 10 11  2  0  0  0
 10 15  1  0  0  0
 11 12  1  0  0  0
 11 97  1  0  0  0
 12 13  2  0  0  0
 12 98  1  0  0  0
 13 14  1  0  0  0
 13 31  1  0  0  0
 14 15  2  0  0  0
 14 99  1  0  0  0
 15100  1  0  0  0
 16 17  2  0  0  0
 16 21  1  0  0  0
 16 31  1  0  0  0
 17 18  1  0  0  0
 17101  1  0  0  0
 18 19  2  0  0  0
 18102  1  0  0  0
 19 20  1  0  0  0
 19 24  1  0  0  0
 20 21  2  0  0  0
 20103  1  0  0  0
 21 23  1  0  0  0
 22 28  1  0  0  0
 22 32  2  0  0  0
 26 27  1  0  0  0
 28104  1  0  0  0
 28105  1  0  0  0
 29106  1  0  0  0
 29107  1  0  0  0
 33 34  1  0  0  0
 33 66  1  0  0  0
 33 70  2  0  0  0
 34 36  1  0  0  0
 34 59  1  0  0  0
 34108  1  0  0  0
 35 44  2  0  0  0
 35 45  1  0  0  0
 35 68  1  0  0  0
 36 56  1  0  0  0
 36109  1  0  0  0
 37 39  1  0  0  0
 37 47  1  0  0  0
 37 66  1  0  0  0
 37110  1  0  0  0
 38 43  2  0  0  0
 38 46  1  0  0  0
 38 47  1  0  0  0
 39 64  1  0  0  0
 39 67  2  0  0  0
 40 52  1  0  0  0
 40 53  2  0  0  0
 40 58  1  0  0  0
 41111  1  0  0  0
 41112  1  0  0  0
 41113  1  0  0  0
 41 48  1  0  0  0
 42 43  1  0  0  0
 42 66  1  0  0  0
 42114  1  0  0  0
 42115  1  0  0  0
 43 44  1  0  0  0
 44116  1  0  0  0
 45 46  2  0  0  0
 45117  1  0  0  0
 46118  1  0  0  0
 47119  1  0  0  0
 47120  1  0  0  0
 48 56  1  0  0  0
 48 65  1  0  0  0
 48121  1  0  0  0
 49 50  1  0  0  0
 49 53  1  0  0  0
 49 64  1  0  0  0
 49122  1  0  0  0
 50 51  1  0  0  0
 50123  1  0  0  0
 50124  1  0  0  0
 51 52  1  0  0  0
 51125  1  0  0  0
 51126  1  0  0  0
 52127  1  0  0  0
 52128  1  0  0  0
 53 54  1  0  0  0
 54 55  2  0  0  0
 54129  1  0  0  0
 55 57  1  0  0  0
 55130  1  0  0  0
 56 69  2  0  0  0
 57 58  2  0  0  0
 57131  1  0  0  0
 58132  1  0  0  0
 59 60  1  0  0  0
 59 61  1  0  0  0
 59 62  1  0  0  0
 60133  1  0  0  0
 60134  1  0  0  0
 60135  1  0  0  0
 61136  1  0  0  0
 61137  1  0  0  0
 61138  1  0  0  0
 62139  1  0  0  0
 62140  1  0  0  0
 62141  1  0  0  0
 63 65  1  0  0  0
 63142  1  0  0  0
 63143  1  0  0  0
 63144  1  0  0  0
 64145  1  0  0  0
 65146  1  0  0  0
 68 85  1  0  0  0
 71 73  2  0  0  0
 71 74  1  0  0  0
 71147  1  0  0  0
 72 73  1  0  0  0
 72 86  2  0  0  0
 72148  1  0  0  0
 73 83  1  0  0  0
 74 75  2  0  0  0
 74 82  1  0  0  0
 75 86  1  0  0  0
 75 80  1  0  0  0
 76 78  1  0  0  0
 76 80  1  0  0  0
 76149  1  0  0  0
 76150  1  0  0  0
 77 79  1  0  0  0
 77 80  1  0  0  0
 77151  1  0  0  0
 77152  1  0  0  0
 78 81  1  0  0  0
 78153  1  0  0  0
 78154  1  0  0  0
 79 81  1  0  0  0
 79155  1  0  0  0
 79156  1  0  0  0
 80157  1  0  0  0
 81 84  1  0  0  0
 81158  1  0  0  0
 82159  1  0  0  0
 82160  1  0  0  0
 82161  1  0  0  0
 83 87  1  0  0  0
 83162  1  0  0  0
 83163  1  0  0  0
 84 85  1  0  0  0
 84164  1  0  0  0
 84165  1  0  0  0
 85166  1  0  0  0
 85167  1  0  0  0
 87168  1  0  0  0
M  ISO  4   1 100  68 101  85 101  87 100
M  END
> <chiral flag>
0

> <version>
0

> <s_m_source_file>
/data/baiqing/PycharmProjects/Reinvent-master-3.2/result/LINK_invent/BTK/process_docking_weight1_custom_sum_contain_oxygen_bond_distance_aromatic_linkinvent_7_9_3/rearranged_h_0038.sdf

> <i_m_source_file_index>
38

> <r_mmod_Potential_Energy-OPLS-2005>
-181.900146484375

> <r_mmod_Stretch_Energy-OPLS-2005>
32.2218589782715

> <r_mmod_Bend_Energy-OPLS-2005>
92.365104675293

> <r_mmod_Torsional_Energy-OPLS-2005>
222.101898193359

> <r_mmod_Improper_Torsional_Energy-OPLS-2005>
2.13048529624939

> <r_mmod_Van_der_Waal_Energy-OPLS-2005>
163.63542175293

> <r_mmod_Electrostatic_Energy-OPLS-2005>
-486.739532470703

> <r_mmod_Solvation_Energy-OPLS-2005>
-214.965682983398

> <b_mmod_Minimization_Converged-OPLS-2005>
0

> <r_mmod_RMS_Derivative-OPLS-2005>
1.18753504753113

$$$$
38
                    3D
 Structure written by MMmdl.
152160  0  0  1  0            999 V2000
  -30.5919  -14.8686   20.4234 C   0  0  0  0  0  0
  -30.4283  -12.5332   19.4936 C   0  0  0  0  0  0
  -29.5133  -12.5129   18.2499 C   0  0  0  0  0  0
  -28.0445  -12.3160   18.6672 C   0  0  0  0  0  0
  -27.6300  -13.2458   19.8382 C   0  0  2  0  0  0
  -28.6732  -13.2618   20.9751 C   0  0  0  0  0  0
  -25.2443  -13.8208   20.5688 C   0  0  0  0  0  0
  -24.1762  -13.0430   20.9216 C   0  0  0  0  0  0
  -24.6388  -11.6920   20.8764 C   0  0  0  0  0  0
  -23.9069  -10.4292   21.0414 C   0  0  0  0  0  0
  -24.3621   -9.4204   21.9192 C   0  0  0  0  0  0
  -23.6292   -8.2240   22.0754 C   0  0  0  0  0  0
  -22.4275   -8.0279   21.3540 C   0  0  0  0  0  0
  -21.9919   -9.0256   20.4640 C   0  0  0  0  0  0
  -22.7246  -10.2133   20.3053 C   0  0  0  0  0  0
  -21.6850   -6.0737   22.5280 C   0  0  0  0  0  0
  -21.4013   -6.5641   23.8214 C   0  0  0  0  0  0
  -21.3660   -5.6796   24.9179 C   0  0  0  0  0  0
  -21.6048   -4.3060   24.7236 C   0  0  0  0  0  0
  -21.8818   -3.8145   23.4358 C   0  0  0  0  0  0
  -21.9190   -4.6962   22.3410 C   0  0  0  0  0  0
  -22.7785  -13.5200   21.1877 C   0  0  0  0  0  0
  -22.1666   -4.2146   21.0989 F   0  0  0  0  0  0
  -21.5622   -3.4546   25.7749 F   0  0  0  0  0  0
  -29.9579  -13.6358   20.3748 N   0  0  0  0  0  0
  -26.2884  -12.9445   20.3253 N   0  0  0  0  0  0
  -25.9325  -11.6577   20.5768 N   0  0  0  0  0  0
  -22.0432  -12.8172   22.0431 N   0  0  0  0  0  0
  -25.4080  -15.1936   20.4075 N   0  0  0  0  0  0
  -31.7966  -14.9046   20.1578 O   0  0  0  0  0  0
  -21.6635   -6.8876   21.4239 O   0  0  0  0  0  0
  -22.3476  -14.5509   20.6723 O   0  0  0  0  0  0
  -24.6395  -31.8468   23.1907 C   0  0  0  0  0  0
  -25.9188  -32.4710   23.8283 C   0  0  1  0  0  0
  -27.2175  -27.1794   20.1539 C   0  0  0  0  0  0
  -25.5951  -33.8513   24.2217 N   0  0  0  0  0  0
  -23.4398  -30.4660   21.5352 C   0  0  2  0  0  0
  -24.8887  -28.8937   20.1153 C   0  0  0  0  0  0
  -22.7542  -29.4564   22.4883 C   0  0  0  0  0  0
  -18.0291  -28.1393   22.8477 C   0  0  0  0  0  0
  -24.1492  -36.7258   23.2642 C   0  0  0  0  0  0
  -25.9902  -30.7364   21.3798 C   0  0  0  0  0  0
  -26.0635  -29.3483   20.7285 C   0  0  0  0  0  0
  -27.2326  -28.5074   20.7265 C   0  0  0  0  0  0
  -26.0201  -26.8093   19.5086 C   0  0  0  0  0  0
  -24.8764  -27.6370   19.4903 C   0  0  0  0  0  0
  -23.6641  -29.7925   20.1549 C   0  0  0  0  0  0
  -25.4123  -36.3039   24.0325 C   0  0  1  0  0  0
  -20.5903  -28.3712   23.1251 C   0  0  2  0  0  0
  -20.6779  -26.9420   22.5409 C   0  0  0  0  0  0
  -19.5758  -26.6388   21.5207 C   0  0  0  0  0  0
  -18.1940  -26.7929   22.1622 C   0  0  0  0  0  0
  -19.1548  -28.8870   23.2855 C   0  0  0  0  0  0
  -18.9469  -30.1465   23.8883 C   0  0  0  0  0  0
  -17.6469  -30.6590   24.0564 C   0  0  0  0  0  0
  -25.9073  -34.9411   23.5077 C   0  0  0  0  0  0
  -16.5362  -29.9086   23.6331 C   0  0  0  0  0  0
  -16.7278  -28.6504   23.0352 C   0  0  0  0  0  0
  -26.4522  -31.6552   25.0696 C   0  0  0  0  0  0
  -25.3718  -31.3729   26.1401 C   0  0  0  0  0  0
  -27.0367  -30.2953   24.6226 C   0  0  0  0  0  0
  -27.6065  -32.4288   25.7486 C   0  0  0  0  0  0
  -27.5581  -37.1795   24.8472 C   0  0  0  0  0  0
  -21.4239  -29.3045   22.3633 N   0  0  0  0  0  0
  -26.4293  -37.3744   23.9405 N   0  0  0  0  0  0
  -24.7089  -31.0371   22.0914 N   0  0  0  0  0  0
  -23.4194  -28.8121   23.3031 O   0  0  0  0  0  0
  -28.2989  -26.2439   20.1677 O   0  0  0  0  0  0
  -26.5650  -34.8896   22.4652 O   0  0  0  0  0  0
  -23.5531  -32.1337   23.7159 O   0  0  0  0  0  0
  -28.4813  -19.4458   19.9414 C   0  0  0  0  0  0
  -30.5341  -20.1523   20.8262 C   0  0  0  0  0  0
  -29.7532  -19.0173   20.4332 C   0  0  0  0  0  0
  -28.1198  -20.8528   19.8234 C   0  0  0  0  0  0
  -29.0099  -21.9197   20.1973 C   0  0  0  0  0  0
  -26.7702  -21.1985   19.2210 C   0  0  0  0  0  0
  -30.4433  -17.5226   20.4197 C   0  0  0  0  0  0
  -28.8816  -23.5023   19.7641 C   0  0  0  0  0  0
  -28.1009  -24.7536   20.5197 C   0  0  0  0  0  0
  -30.1982  -21.4913   20.7186 N   0  0  0  0  0  0
  -29.8691  -16.0771   20.5469 N   0  0  0  0  0  0
  -31.4683  -12.6606   19.1873 H   0  0  0  0  0  0
  -30.3873  -11.5790   20.0214 H   0  0  0  0  0  0
  -29.8176  -11.7195   17.5660 H   0  0  0  0  0  0
  -29.6165  -13.4504   17.7017 H   0  0  0  0  0  0
  -27.9275  -11.2739   18.9676 H   0  0  0  0  0  0
  -27.3831  -12.4628   17.8129 H   0  0  0  0  0  0
  -27.5990  -14.2503   19.4160 H   0  0  0  0  0  0
  -28.7372  -12.2903   21.4663 H   0  0  0  0  0  0
  -28.3889  -13.9810   21.7444 H   0  0  0  0  0  0
  -25.2760   -9.5680   22.4783 H   0  0  0  0  0  0
  -24.0003   -7.4632   22.7475 H   0  0  0  0  0  0
  -21.0850   -8.8779   19.8955 H   0  0  0  0  0  0
  -22.3702  -10.9676   19.6165 H   0  0  0  0  0  0
  -21.2002   -7.6150   23.9722 H   0  0  0  0  0  0
  -21.1486   -6.0525   25.9080 H   0  0  0  0  0  0
  -22.0589   -2.7604   23.2862 H   0  0  0  0  0  0
  -22.4051  -11.9829   22.4809 H   0  0  0  0  0  0
  -21.1041  -13.1175   22.2622 H   0  0  0  0  0  0
  -24.6292  -15.8389   20.4860 H   0  0  0  0  0  0
  -26.2509  -15.6339   20.0624 H   0  0  0  0  0  0
  -26.7247  -32.5334   23.1014 H   0  0  0  0  0  0
  -25.0071  -33.9629   25.0346 H   0  0  0  0  0  0
  -22.7395  -31.2901   21.3828 H   0  0  0  0  0  0
  -23.3750  -35.9595   23.3301 H   0  0  0  0  0  0
  -24.3584  -36.8881   22.2055 H   0  0  0  0  0  0
  -23.7238  -37.6456   23.6665 H   0  0  0  0  0  0
  -26.1350  -31.4901   20.6046 H   0  0  0  0  0  0
  -26.8639  -30.7922   22.0168 H   0  0  0  0  0  0
  -28.1341  -28.8532   21.2121 H   0  0  0  0  0  0
  -25.9579  -25.8495   19.0163 H   0  0  0  0  0  0
  -23.9798  -27.2856   18.9974 H   0  0  0  0  0  0
  -23.8000  -30.5642   19.3963 H   0  0  0  0  0  0
  -22.7787  -29.2326   19.8473 H   0  0  0  0  0  0
  -25.1305  -36.1885   25.0815 H   0  0  0  0  0  0
  -20.9986  -28.3290   24.1375 H   0  0  0  0  0  0
  -20.5660  -26.2322   23.3621 H   0  0  0  0  0  0
  -21.6650  -26.7429   22.1219 H   0  0  0  0  0  0
  -19.6913  -25.6294   21.1245 H   0  0  0  0  0  0
  -19.6688  -27.3192   20.6730 H   0  0  0  0  0  0
  -17.4208  -26.6670   21.4029 H   0  0  0  0  0  0
  -18.0344  -26.0076   22.9024 H   0  0  0  0  0  0
  -19.7950  -30.7278   24.2252 H   0  0  0  0  0  0
  -17.5027  -31.6266   24.5167 H   0  0  0  0  0  0
  -15.5365  -30.2985   23.7663 H   0  0  0  0  0  0
  -15.8681  -28.0821   22.7070 H   0  0  0  0  0  0
  -24.5908  -30.7058   25.7730 H   0  0  0  0  0  0
  -24.8898  -32.2901   26.4790 H   0  0  0  0  0  0
  -25.8022  -30.8936   27.0198 H   0  0  0  0  0  0
  -26.2964  -29.6692   24.1228 H   0  0  0  0  0  0
  -27.3987  -29.7231   25.4773 H   0  0  0  0  0  0
  -27.8864  -30.4195   23.9506 H   0  0  0  0  0  0
  -27.2675  -33.3596   26.2044 H   0  0  0  0  0  0
  -28.3900  -32.6833   25.0334 H   0  0  0  0  0  0
  -28.0694  -31.8412   26.5424 H   0  0  0  0  0  0
  -28.2606  -38.0086   24.7502 H   0  0  0  0  0  0
  -28.1065  -36.2614   24.6317 H   0  0  0  0  0  0
  -27.2299  -37.1469   25.8876 H   0  0  0  0  0  0
  -20.9452  -29.8752   21.6810 H   0  0  0  0  0  0
  -26.0168  -38.2815   24.1394 H   0  0  0  0  0  0
  -27.7899  -18.6924   19.5920 H   0  0  0  0  0  0
  -31.5335  -19.9847   21.2020 H   0  0  0  0  0  0
  -26.0621  -20.3780   19.3457 H   0  0  0  0  0  0
  -26.8688  -21.4037   18.1545 H   0  0  0  0  0  0
  -26.3400  -22.0762   19.7055 H   0  0  0  0  0  0
  -31.2228  -17.5676   21.1825 H   0  0  0  0  0  0
  -30.9995  -17.5096   19.4814 H   0  0  0  0  0  0
  -28.5154  -23.4918   18.7375 H   0  0  0  0  0  0
  -29.9131  -23.8399   19.6663 H   0  0  0  0  0  0
  -28.3835  -24.6893   21.5706 H   0  0  0  0  0  0
  -27.0366  -24.5210   20.5144 H   0  0  0  0  0  0
  -28.8765  -15.9888   20.7010 H   0  0  0  0  0  0
  1 25  1  0  0  0
  1 30  2  0  0  0
  1 81  1  0  0  0
  2  3  1  0  0  0
  2 25  1  0  0  0
  2 82  1  0  0  0
  2 83  1  0  0  0
  3  4  1  0  0  0
  3 84  1  0  0  0
  3 85  1  0  0  0
  4  5  1  0  0  0
  4 86  1  0  0  0
  4 87  1  0  0  0
  5  6  1  0  0  0
  5 26  1  0  0  0
  5 88  1  0  0  0
  6 25  1  0  0  0
  6 89  1  0  0  0
  6 90  1  0  0  0
  7  8  2  0  0  0
  7 26  1  0  0  0
  7 29  1  0  0  0
  8  9  1  0  0  0
  8 22  1  0  0  0
  9 10  1  0  0  0
  9 27  2  0  0  0
 10 11  2  0  0  0
 10 15  1  0  0  0
 11 12  1  0  0  0
 11 91  1  0  0  0
 12 13  2  0  0  0
 12 92  1  0  0  0
 13 14  1  0  0  0
 13 31  1  0  0  0
 14 15  2  0  0  0
 14 93  1  0  0  0
 15 94  1  0  0  0
 16 17  2  0  0  0
 16 21  1  0  0  0
 16 31  1  0  0  0
 17 18  1  0  0  0
 17 95  1  0  0  0
 18 19  2  0  0  0
 18 96  1  0  0  0
 19 20  1  0  0  0
 19 24  1  0  0  0
 20 21  2  0  0  0
 20 97  1  0  0  0
 21 23  1  0  0  0
 22 28  1  0  0  0
 22 32  2  0  0  0
 26 27  1  0  0  0
 28 98  1  0  0  0
 28 99  1  0  0  0
 29100  1  0  0  0
 29101  1  0  0  0
 33 34  1  0  0  0
 33 66  1  0  0  0
 33 70  2  0  0  0
 34 36  1  0  0  0
 34 59  1  0  0  0
 34102  1  0  0  0
 35 44  2  0  0  0
 35 45  1  0  0  0
 35 68  1  0  0  0
 36 56  1  0  0  0
 36103  1  0  0  0
 37 39  1  0  0  0
 37 47  1  0  0  0
 37 66  1  0  0  0
 37104  1  0  0  0
 38 43  2  0  0  0
 38 46  1  0  0  0
 38 47  1  0  0  0
 39 64  1  0  0  0
 39 67  2  0  0  0
 40 52  1  0  0  0
 40 53  2  0  0  0
 40 58  1  0  0  0
 41105  1  0  0  0
 41106  1  0  0  0
 41107  1  0  0  0
 41 48  1  0  0  0
 42 43  1  0  0  0
 42 66  1  0  0  0
 42108  1  0  0  0
 42109  1  0  0  0
 43 44  1  0  0  0
 44110  1  0  0  0
 45 46  2  0  0  0
 45111  1  0  0  0
 46112  1  0  0  0
 47113  1  0  0  0
 47114  1  0  0  0
 48 56  1  0  0  0
 48 65  1  0  0  0
 48115  1  0  0  0
 49 50  1  0  0  0
 49 53  1  0  0  0
 49 64  1  0  0  0
 49116  1  0  0  0
 50 51  1  0  0  0
 50117  1  0  0  0
 50118  1  0  0  0
 51 52  1  0  0  0
 51119  1  0  0  0
 51120  1  0  0  0
 52121  1  0  0  0
 52122  1  0  0  0
 53 54  1  0  0  0
 54 55  2  0  0  0
 54123  1  0  0  0
 55 57  1  0  0  0
 55124  1  0  0  0
 56 69  2  0  0  0
 57 58  2  0  0  0
 57125  1  0  0  0
 58126  1  0  0  0
 59 60  1  0  0  0
 59 61  1  0  0  0
 59 62  1  0  0  0
 60127  1  0  0  0
 60128  1  0  0  0
 60129  1  0  0  0
 61130  1  0  0  0
 61131  1  0  0  0
 61132  1  0  0  0
 62133  1  0  0  0
 62134  1  0  0  0
 62135  1  0  0  0
 63 65  1  0  0  0
 63136  1  0  0  0
 63137  1  0  0  0
 63138  1  0  0  0
 64139  1  0  0  0
 65140  1  0  0  0
 68 79  1  0  0  0
 71 73  2  0  0  0
 71 74  1  0  0  0
 71141  1  0  0  0
 72 73  1  0  0  0
 72 80  2  0  0  0
 72142  1  0  0  0
 73 77  1  0  0  0
 74 75  2  0  0  0
 74 76  1  0  0  0
 75 78  1  0  0  0
 75 80  1  0  0  0
 76143  1  0  0  0
 76144  1  0  0  0
 76145  1  0  0  0
 77 81  1  0  0  0
 77146  1  0  0  0
 77147  1  0  0  0
 78 79  1  0  0  0
 78148  1  0  0  0
 78149  1  0  0  0
 79150  1  0  0  0
 79151  1  0  0  0
 81152  1  0  0  0
M  ISO  4   1 100  68 101  79 101  81 100
M  END
> <chiral flag>
0

> <version>
0

> <s_m_source_file>
/data/baiqing/PycharmProjects/Reinvent-master-3.2/result/LINK_invent/BTK/process_docking_weight1_custom_sum_contain_oxygen_bond_distance_aromatic_linkinvent_7_9_3/rearranged_h_0038.sdf

> <i_m_source_file_index>
39

> <r_mmod_Potential_Energy-OPLS-2005>
241.6279296875

> <r_mmod_Stretch_Energy-OPLS-2005>
193.418899536133

> <r_mmod_Bend_Energy-OPLS-2005>
253.684478759766

> <r_mmod_Torsional_Energy-OPLS-2005>
219.21208190918

> <r_mmod_Improper_Torsional_Energy-OPLS-2005>
7.36066579818726

> <r_mmod_Van_der_Waal_Energy-OPLS-2005>
133.822280883789

> <r_mmod_Electrostatic_Energy-OPLS-2005>
-481.009246826172

> <r_mmod_Solvation_Energy-OPLS-2005>
-229.88525390625

> <b_mmod_Minimization_Converged-OPLS-2005>
0

> <r_mmod_RMS_Derivative-OPLS-2005>
1.55219376087189

$$$$
39
                    3D
 Structure written by MMmdl.
156164  0  0  1  0            999 V2000
  -30.7096  -14.5059   20.5689 C   0  0  0  0  0  0
  -30.4294  -12.3294   19.4300 C   0  0  0  0  0  0
  -29.5086  -12.5199   18.2088 C   0  0  0  0  0  0
  -28.0259  -12.3859   18.6116 C   0  0  0  0  0  0
  -27.6645  -13.2188   19.8723 C   0  0  2  0  0  0
  -28.7082  -13.0169   20.9947 C   0  0  0  0  0  0
  -25.2615  -13.8199   20.5708 C   0  0  0  0  0  0
  -24.1877  -13.0457   20.9212 C   0  0  0  0  0  0
  -24.6444  -11.6931   20.8729 C   0  0  0  0  0  0
  -23.9116  -10.4314   21.0380 C   0  0  0  0  0  0
  -24.3659   -9.4224   21.9164 C   0  0  0  0  0  0
  -23.6326   -8.2266   22.0750 C   0  0  0  0  0  0
  -22.4300   -8.0311   21.3558 C   0  0  0  0  0  0
  -21.9951   -9.0280   20.4655 C   0  0  0  0  0  0
  -22.7286  -10.2157   20.3047 C   0  0  0  0  0  0
  -21.6868   -6.0760   22.5285 C   0  0  0  0  0  0
  -21.3993   -6.5634   23.8228 C   0  0  0  0  0  0
  -21.3678   -5.6783   24.9178 C   0  0  0  0  0  0
  -21.6075   -4.3057   24.7223 C   0  0  0  0  0  0
  -21.8805   -3.8161   23.4336 C   0  0  0  0  0  0
  -21.9198   -4.6980   22.3399 C   0  0  0  0  0  0
  -22.7892  -13.5236   21.1872 C   0  0  0  0  0  0
  -22.1664   -4.2179   21.0971 F   0  0  0  0  0  0
  -21.5664   -3.4536   25.7724 F   0  0  0  0  0  0
  -30.0341  -13.3292   20.4352 N   0  0  0  0  0  0
  -26.3057  -12.9396   20.3347 N   0  0  0  0  0  0
  -25.9381  -11.6546   20.5734 N   0  0  0  0  0  0
  -22.0524  -12.8227   22.0426 N   0  0  0  0  0  0
  -25.4329  -15.1922   20.4141 N   0  0  0  0  0  0
  -31.8465  -14.6727   20.1213 O   0  0  0  0  0  0
  -21.6660   -6.8909   21.4249 O   0  0  0  0  0  0
  -22.3581  -14.5565   20.6741 O   0  0  0  0  0  0
  -24.6202  -31.8654   23.2024 C   0  0  0  0  0  0
  -25.9076  -32.4795   23.8337 C   0  0  1  0  0  0
  -27.2487  -27.3868   20.0993 C   0  0  0  0  0  0
  -25.5894  -33.8594   24.2273 N   0  0  0  0  0  0
  -23.4099  -30.4889   21.5430 C   0  0  2  0  0  0
  -24.8584  -28.9449   20.1110 C   0  0  0  0  0  0
  -22.7432  -29.4670   22.4930 C   0  0  0  0  0  0
  -18.0265  -28.1385   22.8473 C   0  0  0  0  0  0
  -24.1487  -36.7324   23.2643 C   0  0  0  0  0  0
  -25.9449  -30.8153   21.3613 C   0  0  0  0  0  0
  -26.0216  -29.4454   20.7071 C   0  0  0  0  0  0
  -27.2165  -28.6786   20.6912 C   0  0  0  0  0  0
  -26.0557  -26.9094   19.5056 C   0  0  0  0  0  0
  -24.8743  -27.6746   19.5064 C   0  0  0  0  0  0
  -23.6220  -29.8199   20.1579 C   0  0  0  0  0  0
  -25.4106  -36.3109   24.0336 C   0  0  1  0  0  0
  -20.5862  -28.3700   23.1265 C   0  0  2  0  0  0
  -20.6749  -26.9423   22.5402 C   0  0  0  0  0  0
  -19.5723  -26.6383   21.5205 C   0  0  0  0  0  0
  -18.1904  -26.7918   22.1626 C   0  0  0  0  0  0
  -19.1515  -28.8845   23.2868 C   0  0  0  0  0  0
  -18.9471  -30.1433   23.8907 C   0  0  0  0  0  0
  -17.6480  -30.6595   24.0565 C   0  0  0  0  0  0
  -25.9042  -34.9472   23.5121 C   0  0  0  0  0  0
  -16.5363  -29.9126   23.6298 C   0  0  0  0  0  0
  -16.7255  -28.6529   23.0334 C   0  0  0  0  0  0
  -26.4462  -31.6578   25.0690 C   0  0  0  0  0  0
  -25.3713  -31.3720   26.1432 C   0  0  0  0  0  0
  -27.0270  -30.2987   24.6115 C   0  0  0  0  0  0
  -27.6003  -32.4322   25.7473 C   0  0  0  0  0  0
  -27.5580  -37.1816   24.8465 C   0  0  0  0  0  0
  -21.4148  -29.3076   22.3675 N   0  0  0  0  0  0
  -26.4286  -37.3803   23.9413 N   0  0  0  0  0  0
  -24.6767  -31.0723   22.0932 N   0  0  0  0  0  0
  -23.4173  -28.8203   23.3002 O   0  0  0  0  0  0
  -28.4207  -26.6313   20.1144 O   0  0  0  0  0  0
  -26.5650  -34.8951   22.4705 O   0  0  0  0  0  0
  -23.5378  -32.1426   23.7387 O   0  0  0  0  0  0
  -30.1169  -22.0284   21.1222 C   0  0  0  0  0  0
  -29.6979  -22.9052   20.1473 C   0  0  0  0  0  0
  -29.3790  -22.0173   19.0712 C   0  0  0  0  0  0
  -28.9303  -22.3579   17.6791 C   0  0  0  0  0  0
  -29.6964  -24.4505   20.2016 C   0  0  0  0  0  0
  -30.0165  -18.1025   20.7176 C   0  0  0  0  0  0
  -30.4364  -19.4770   21.3449 C   0  0  0  0  0  0
  -30.5565  -16.8615   21.5104 C   0  0  0  0  0  0
  -28.3561  -25.1934   19.8789 C   0  0  0  0  0  0
  -29.5622  -20.7317   19.3834 N   0  0  0  0  0  0
  -30.0273  -20.7236   20.6531 N   0  0  0  0  0  0
  -30.0246  -15.5319   21.1188 N   0  0  0  0  0  0
  -31.4730  -12.4306   19.1318 H   0  0  0  0  0  0
  -30.3283  -11.3225   19.8375 H   0  0  0  0  0  0
  -29.7572  -11.7898   17.4372 H   0  0  0  0  0  0
  -29.6886  -13.5048   17.7721 H   0  0  0  0  0  0
  -27.8213  -11.3301   18.7891 H   0  0  0  0  0  0
  -27.3868  -12.6794   17.7779 H   0  0  0  0  0  0
  -27.7033  -14.2671   19.5794 H   0  0  0  0  0  0
  -28.6953  -11.9849   21.3483 H   0  0  0  0  0  0
  -28.4680  -13.6298   21.8632 H   0  0  0  0  0  0
  -25.2792   -9.5717   22.4738 H   0  0  0  0  0  0
  -24.0058   -7.4659   22.7450 H   0  0  0  0  0  0
  -21.0895   -8.8795   19.8954 H   0  0  0  0  0  0
  -22.3732  -10.9696   19.6165 H   0  0  0  0  0  0
  -21.1937   -7.6135   23.9727 H   0  0  0  0  0  0
  -21.1536   -6.0504   25.9082 H   0  0  0  0  0  0
  -22.0576   -2.7620   23.2811 H   0  0  0  0  0  0
  -22.4087  -11.9830   22.4753 H   0  0  0  0  0  0
  -21.1154  -13.1293   22.2662 H   0  0  0  0  0  0
  -24.6658  -15.8450   20.5313 H   0  0  0  0  0  0
  -26.2858  -15.6381   20.1002 H   0  0  0  0  0  0
  -26.7155  -32.5482   23.1097 H   0  0  0  0  0  0
  -24.9956  -33.9710   25.0356 H   0  0  0  0  0  0
  -22.7012  -31.3078   21.3999 H   0  0  0  0  0  0
  -23.3746  -35.9661   23.3303 H   0  0  0  0  0  0
  -24.3599  -36.8948   22.2063 H   0  0  0  0  0  0
  -23.7243  -37.6527   23.6662 H   0  0  0  0  0  0
  -26.0701  -31.5769   20.5893 H   0  0  0  0  0  0
  -26.8289  -30.8643   21.9858 H   0  0  0  0  0  0
  -28.1127  -29.0721   21.1494 H   0  0  0  0  0  0
  -26.0208  -25.9376   19.0389 H   0  0  0  0  0  0
  -23.9837  -27.2731   19.0438 H   0  0  0  0  0  0
  -23.7405  -30.5978   19.4030 H   0  0  0  0  0  0
  -22.7417  -29.2509   19.8553 H   0  0  0  0  0  0
  -25.1280  -36.1971   25.0830 H   0  0  0  0  0  0
  -20.9949  -28.3305   24.1387 H   0  0  0  0  0  0
  -20.5623  -26.2346   23.3623 H   0  0  0  0  0  0
  -21.6625  -26.7442   22.1218 H   0  0  0  0  0  0
  -19.6895  -25.6296   21.1236 H   0  0  0  0  0  0
  -19.6640  -27.3190   20.6727 H   0  0  0  0  0  0
  -17.4167  -26.6634   21.4042 H   0  0  0  0  0  0
  -18.0323  -26.0060   22.9027 H   0  0  0  0  0  0
  -19.7960  -30.7211   24.2304 H   0  0  0  0  0  0
  -17.5067  -31.6274   24.5179 H   0  0  0  0  0  0
  -15.5374  -30.3078   23.7578 H   0  0  0  0  0  0
  -15.8642  -28.0871   22.7050 H   0  0  0  0  0  0
  -24.5877  -30.7066   25.7794 H   0  0  0  0  0  0
  -24.8917  -32.2891   26.4862 H   0  0  0  0  0  0
  -25.8059  -30.8913   27.0204 H   0  0  0  0  0  0
  -26.2822  -29.6775   24.1122 H   0  0  0  0  0  0
  -27.3932  -29.7197   25.4606 H   0  0  0  0  0  0
  -27.8712  -30.4242   23.9329 H   0  0  0  0  0  0
  -27.2557  -33.3593   26.2063 H   0  0  0  0  0  0
  -28.3797  -32.6941   25.0308 H   0  0  0  0  0  0
  -28.0684  -31.8459   26.5385 H   0  0  0  0  0  0
  -28.2597  -38.0112   24.7506 H   0  0  0  0  0  0
  -28.1066  -36.2645   24.6278 H   0  0  0  0  0  0
  -27.2308  -37.1464   25.8869 H   0  0  0  0  0  0
  -20.9312  -29.8867   21.6946 H   0  0  0  0  0  0
  -26.0175  -38.2877   24.1418 H   0  0  0  0  0  0
  -30.5029  -22.2291   22.1126 H   0  0  0  0  0  0
  -29.3109  -23.3278   17.3647 H   0  0  0  0  0  0
  -27.8437  -22.3848   17.6037 H   0  0  0  0  0  0
  -29.2960  -21.6300   16.9535 H   0  0  0  0  0  0
  -30.4617  -24.8376   19.5286 H   0  0  0  0  0  0
  -30.0155  -24.7676   21.1961 H   0  0  0  0  0  0
  -30.3810  -18.0525   19.6916 H   0  0  0  0  0  0
  -28.9296  -18.0729   20.6606 H   0  0  0  0  0  0
  -31.5190  -19.5051   21.4512 H   0  0  0  0  0  0
  -30.0462  -19.5319   22.3611 H   0  0  0  0  0  0
  -30.2981  -16.9862   22.5628 H   0  0  0  0  0  0
  -31.6488  -16.8491   21.4806 H   0  0  0  0  0  0
  -27.5697  -24.7631   20.4981 H   0  0  0  0  0  0
  -28.0867  -25.0142   18.8372 H   0  0  0  0  0  0
  -29.0757  -15.3239   21.3911 H   0  0  0  0  0  0
  1 25  1  0  0  0
  1 30  2  0  0  0
  1 82  1  0  0  0
  2  3  1  0  0  0
  2 25  1  0  0  0
  2 83  1  0  0  0
  2 84  1  0  0  0
  3  4  1  0  0  0
  3 85  1  0  0  0
  3 86  1  0  0  0
  4  5  1  0  0  0
  4 87  1  0  0  0
  4 88  1  0  0  0
  5  6  1  0  0  0
  5 26  1  0  0  0
  5 89  1  0  0  0
  6 25  1  0  0  0
  6 90  1  0  0  0
  6 91  1  0  0  0
  7  8  2  0  0  0
  7 26  1  0  0  0
  7 29  1  0  0  0
  8  9  1  0  0  0
  8 22  1  0  0  0
  9 10  1  0  0  0
  9 27  2  0  0  0
 10 11  2  0  0  0
 10 15  1  0  0  0
 11 12  1  0  0  0
 11 92  1  0  0  0
 12 13  2  0  0  0
 12 93  1  0  0  0
 13 14  1  0  0  0
 13 31  1  0  0  0
 14 15  2  0  0  0
 14 94  1  0  0  0
 15 95  1  0  0  0
 16 17  2  0  0  0
 16 21  1  0  0  0
 16 31  1  0  0  0
 17 18  1  0  0  0
 17 96  1  0  0  0
 18 19  2  0  0  0
 18 97  1  0  0  0
 19 20  1  0  0  0
 19 24  1  0  0  0
 20 21  2  0  0  0
 20 98  1  0  0  0
 21 23  1  0  0  0
 22 28  1  0  0  0
 22 32  2  0  0  0
 26 27  1  0  0  0
 28 99  1  0  0  0
 28100  1  0  0  0
 29101  1  0  0  0
 29102  1  0  0  0
 33 34  1  0  0  0
 33 66  1  0  0  0
 33 70  2  0  0  0
 34 36  1  0  0  0
 34 59  1  0  0  0
 34103  1  0  0  0
 35 44  2  0  0  0
 35 45  1  0  0  0
 35 68  1  0  0  0
 36 56  1  0  0  0
 36104  1  0  0  0
 37 39  1  0  0  0
 37 47  1  0  0  0
 37 66  1  0  0  0
 37105  1  0  0  0
 38 43  2  0  0  0
 38 46  1  0  0  0
 38 47  1  0  0  0
 39 64  1  0  0  0
 39 67  2  0  0  0
 40 52  1  0  0  0
 40 53  2  0  0  0
 40 58  1  0  0  0
 41106  1  0  0  0
 41107  1  0  0  0
 41108  1  0  0  0
 41 48  1  0  0  0
 42 43  1  0  0  0
 42 66  1  0  0  0
 42109  1  0  0  0
 42110  1  0  0  0
 43 44  1  0  0  0
 44111  1  0  0  0
 45 46  2  0  0  0
 45112  1  0  0  0
 46113  1  0  0  0
 47114  1  0  0  0
 47115  1  0  0  0
 48 56  1  0  0  0
 48 65  1  0  0  0
 48116  1  0  0  0
 49 50  1  0  0  0
 49 53  1  0  0  0
 49 64  1  0  0  0
 49117  1  0  0  0
 50 51  1  0  0  0
 50118  1  0  0  0
 50119  1  0  0  0
 51 52  1  0  0  0
 51120  1  0  0  0
 51121  1  0  0  0
 52122  1  0  0  0
 52123  1  0  0  0
 53 54  1  0  0  0
 54 55  2  0  0  0
 54124  1  0  0  0
 55 57  1  0  0  0
 55125  1  0  0  0
 56 69  2  0  0  0
 57 58  2  0  0  0
 57126  1  0  0  0
 58127  1  0  0  0
 59 60  1  0  0  0
 59 61  1  0  0  0
 59 62  1  0  0  0
 60128  1  0  0  0
 60129  1  0  0  0
 60130  1  0  0  0
 61131  1  0  0  0
 61132  1  0  0  0
 61133  1  0  0  0
 62134  1  0  0  0
 62135  1  0  0  0
 62136  1  0  0  0
 63 65  1  0  0  0
 63137  1  0  0  0
 63138  1  0  0  0
 63139  1  0  0  0
 64140  1  0  0  0
 65141  1  0  0  0
 68 79  1  0  0  0
 71 72  2  0  0  0
 71 81  1  0  0  0
 71142  1  0  0  0
 72 73  1  0  0  0
 72 75  1  0  0  0
 73 74  1  0  0  0
 73 80  2  0  0  0
 74143  1  0  0  0
 74144  1  0  0  0
 74145  1  0  0  0
 75 79  1  0  0  0
 75146  1  0  0  0
 75147  1  0  0  0
 76 77  1  0  0  0
 76 78  1  0  0  0
 76148  1  0  0  0
 76149  1  0  0  0
 77 81  1  0  0  0
 77150  1  0  0  0
 77151  1  0  0  0
 78 82  1  0  0  0
 78152  1  0  0  0
 78153  1  0  0  0
 79154  1  0  0  0
 79155  1  0  0  0
 80 81  1  0  0  0
 82156  1  0  0  0
M  ISO  4   1 100  68 101  79 101  82 100
M  END
> <chiral flag>
0

> <version>
0

> <s_m_source_file>
/data/baiqing/PycharmProjects/Reinvent-master-3.2/result/LINK_invent/BTK/process_docking_weight1_custom_sum_contain_oxygen_bond_distance_aromatic_linkinvent_7_9_3/rearranged_h_0038.sdf

> <i_m_source_file_index>
40

> <r_mmod_Potential_Energy-OPLS-2005>
-126.004264831543

> <r_mmod_Stretch_Energy-OPLS-2005>
49.4194221496582

> <r_mmod_Bend_Energy-OPLS-2005>
111.01197052002

> <r_mmod_Torsional_Energy-OPLS-2005>
198.936676025391

> <r_mmod_Improper_Torsional_Energy-OPLS-2005>
3.2601113319397

> <r_mmod_Van_der_Waal_Energy-OPLS-2005>
122.269218444824

> <r_mmod_Electrostatic_Energy-OPLS-2005>
-403.939453125

> <r_mmod_Solvation_Energy-OPLS-2005>
-225.911056518555

> <b_mmod_Minimization_Converged-OPLS-2005>
0

> <r_mmod_RMS_Derivative-OPLS-2005>
3.73625612258911

$$$$
40
                    3D
 Structure written by MMmdl.
174184  0  0  1  0            999 V2000
  -30.8270  -14.2991   20.7572 C   0  0  0  0  0  0
  -30.4154  -12.2913   19.3773 C   0  0  0  0  0  0
  -29.4784  -12.5569   18.1874 C   0  0  0  0  0  0
  -28.0056  -12.4061   18.6044 C   0  0  0  0  0  0
  -27.6740  -13.2082   19.8875 C   0  0  2  0  0  0
  -28.7146  -12.9358   20.9968 C   0  0  0  0  0  0
  -25.2622  -13.8198   20.5685 C   0  0  0  0  0  0
  -24.1855  -13.0475   20.9146 C   0  0  0  0  0  0
  -24.6416  -11.6933   20.8757 C   0  0  0  0  0  0
  -23.9084  -10.4311   21.0427 C   0  0  0  0  0  0
  -24.3627   -9.4231   21.9218 C   0  0  0  0  0  0
  -23.6297   -8.2267   22.0774 C   0  0  0  0  0  0
  -22.4285   -8.0304   21.3551 C   0  0  0  0  0  0
  -21.9936   -9.0276   20.4650 C   0  0  0  0  0  0
  -22.7266  -10.2150   20.3063 C   0  0  0  0  0  0
  -21.6840   -6.0774   22.5292 C   0  0  0  0  0  0
  -21.3999   -6.5662   23.8228 C   0  0  0  0  0  0
  -21.3647   -5.6802   24.9189 C   0  0  0  0  0  0
  -21.6036   -4.3067   24.7226 C   0  0  0  0  0  0
  -21.8813   -3.8182   23.4343 C   0  0  0  0  0  0
  -21.9182   -4.7007   22.3405 C   0  0  0  0  0  0
  -22.7869  -13.5258   21.1802 C   0  0  0  0  0  0
  -22.1647   -4.2200   21.0981 F   0  0  0  0  0  0
  -21.5618   -3.4544   25.7735 F   0  0  0  0  0  0
  -30.0704  -13.2036   20.4760 N   0  0  0  0  0  0
  -26.3091  -12.9379   20.3438 N   0  0  0  0  0  0
  -25.9349  -11.6538   20.5799 N   0  0  0  0  0  0
  -22.0491  -12.8261   22.0348 N   0  0  0  0  0  0
  -25.4378  -15.1916   20.4036 N   0  0  0  0  0  0
  -31.7047  -14.7210   19.9938 O   0  0  0  0  0  0
  -21.6632   -6.8913   21.4242 O   0  0  0  0  0  0
  -22.3560  -14.5577   20.6650 O   0  0  0  0  0  0
  -24.6091  -31.8707   23.2129 C   0  0  0  0  0  0
  -25.9003  -32.4834   23.8423 C   0  0  1  0  0  0
  -27.2491  -27.4755   20.1089 C   0  0  0  0  0  0
  -25.5873  -33.8633   24.2363 N   0  0  0  0  0  0
  -23.3960  -30.4915   21.5518 C   0  0  2  0  0  0
  -24.8493  -28.9631   20.1145 C   0  0  0  0  0  0
  -22.7381  -29.4668   22.5029 C   0  0  0  0  0  0
  -18.0257  -28.1372   22.8502 C   0  0  0  0  0  0
  -24.1458  -36.7278   23.2646 C   0  0  0  0  0  0
  -25.9165  -30.8539   21.3548 C   0  0  0  0  0  0
  -26.0016  -29.4869   20.7143 C   0  0  0  0  0  0
  -27.2034  -28.7505   20.7168 C   0  0  0  0  0  0
  -26.0893  -26.9650   19.4911 C   0  0  0  0  0  0
  -24.8858  -27.6983   19.4997 C   0  0  0  0  0  0
  -23.6042  -29.8202   20.1666 C   0  0  0  0  0  0
  -25.4087  -36.3117   24.0358 C   0  0  1  0  0  0
  -20.5848  -28.3655   23.1339 C   0  0  2  0  0  0
  -20.6738  -26.9391   22.5435 C   0  0  0  0  0  0
  -19.5726  -26.6397   21.5210 C   0  0  0  0  0  0
  -18.1897  -26.7935   22.1597 C   0  0  0  0  0  0
  -19.1506  -28.8830   23.2914 C   0  0  0  0  0  0
  -18.9446  -30.1442   23.8933 C   0  0  0  0  0  0
  -17.6449  -30.6577   24.0585 C   0  0  0  0  0  0
  -25.9030  -34.9482   23.5160 C   0  0  0  0  0  0
  -16.5345  -29.9087   23.6333 C   0  0  0  0  0  0
  -16.7254  -28.6498   23.0368 C   0  0  0  0  0  0
  -26.4454  -31.6582   25.0714 C   0  0  0  0  0  0
  -25.3722  -31.3591   26.1434 C   0  0  0  0  0  0
  -27.0323  -30.3070   24.6002 C   0  0  0  0  0  0
  -27.6010  -32.4301   25.7512 C   0  0  0  0  0  0
  -27.5572  -37.1789   24.8474 C   0  0  0  0  0  0
  -21.4114  -29.3024   22.3754 N   0  0  0  0  0  0
  -26.4260  -37.3813   23.9450 N   0  0  0  0  0  0
  -24.6585  -31.0862   22.0995 N   0  0  0  0  0  0
  -23.4169  -28.8217   23.3064 O   0  0  0  0  0  0
  -28.3799  -26.6951   20.0961 O   0  0  0  0  0  0
  -26.5595  -34.8929   22.4722 O   0  0  0  0  0  0
  -23.5286  -32.1442   23.7532 O   0  0  0  0  0  0
  -29.9478  -22.0681   23.3245 C   0  0  0  0  0  0
  -30.5343  -20.8014   23.1748 C   0  0  0  0  0  0
  -30.8251  -25.0306   20.4456 C   0  0  0  0  0  0
  -30.2534  -23.0998   22.4051 C   0  0  0  0  0  0
  -29.8736  -25.3252   21.4386 C   0  0  0  0  0  0
  -31.4953  -23.7929   20.4209 C   0  0  0  0  0  0
  -29.6253  -24.3806   22.4734 C   0  0  0  0  0  0
  -31.1917  -22.7935   21.3768 C   0  0  0  0  0  0
  -31.4519  -20.5883   22.1322 C   0  0  0  0  0  0
  -32.2360  -14.3869   23.6980 C   0  0  0  0  0  0
  -32.5099  -15.8882   23.8905 C   0  0  0  0  0  0
  -30.7940  -14.1569   23.2119 C   0  0  0  0  0  0
  -30.7159  -16.3378   22.1466 C   0  0  0  0  0  0
  -32.1340  -16.7325   22.6482 C   0  0  1  0  0  0
  -32.5265  -23.5449   19.3292 C   0  0  0  0  0  0
  -28.6780  -24.7432   23.6204 C   0  0  0  0  0  0
  -29.1283  -26.6563   21.3131 C   0  0  0  0  0  0
  -32.0202  -19.2080   21.7984 C   0  0  0  0  0  0
  -32.2339  -18.2383   22.9902 C   0  0  0  0  0  0
  -31.7805  -21.5736   21.2730 N   0  0  0  0  0  0
  -30.5915  -14.8881   21.9546 N   0  0  0  0  0  0
  -31.4571  -12.3932   19.0675 H   0  0  0  0  0  0
  -30.3105  -11.2601   19.7161 H   0  0  0  0  0  0
  -29.7050  -11.8725   17.3686 H   0  0  0  0  0  0
  -29.6498  -13.5640   17.8052 H   0  0  0  0  0  0
  -27.8000  -11.3472   18.7628 H   0  0  0  0  0  0
  -27.3525  -12.7261   17.7900 H   0  0  0  0  0  0
  -27.7387  -14.2669   19.6347 H   0  0  0  0  0  0
  -28.6693  -11.8950   21.3194 H   0  0  0  0  0  0
  -28.4634  -13.5271   21.8763 H   0  0  0  0  0  0
  -25.2765   -9.5703   22.4803 H   0  0  0  0  0  0
  -24.0009   -7.4666   22.7500 H   0  0  0  0  0  0
  -21.0888   -8.8781   19.8965 H   0  0  0  0  0  0
  -22.3736  -10.9679   19.6154 H   0  0  0  0  0  0
  -21.1993   -7.6164   23.9735 H   0  0  0  0  0  0
  -21.1446   -6.0541   25.9080 H   0  0  0  0  0  0
  -22.0601   -2.7659   23.2820 H   0  0  0  0  0  0
  -22.4025  -11.9860   22.4688 H   0  0  0  0  0  0
  -21.1115  -13.1302   22.2560 H   0  0  0  0  0  0
  -24.6780  -15.8586   20.4932 H   0  0  0  0  0  0
  -26.3135  -15.6251   20.1354 H   0  0  0  0  0  0
  -26.7093  -32.5610   23.1216 H   0  0  0  0  0  0
  -25.0010  -33.9810   25.0504 H   0  0  0  0  0  0
  -22.6819  -31.3051   21.4132 H   0  0  0  0  0  0
  -23.3755  -35.9566   23.3273 H   0  0  0  0  0  0
  -24.3563  -36.8929   22.2068 H   0  0  0  0  0  0
  -23.7146  -37.6439   23.6685 H   0  0  0  0  0  0
  -26.0098  -31.6145   20.5775 H   0  0  0  0  0  0
  -26.8115  -30.9262   21.9604 H   0  0  0  0  0  0
  -28.0854  -29.1676   21.1812 H   0  0  0  0  0  0
  -26.1165  -25.9895   19.0237 H   0  0  0  0  0  0
  -24.0003  -27.2868   19.0335 H   0  0  0  0  0  0
  -23.7018  -30.5925   19.4034 H   0  0  0  0  0  0
  -22.7311  -29.2326   19.8774 H   0  0  0  0  0  0
  -25.1244  -36.1971   25.0848 H   0  0  0  0  0  0
  -20.9943  -28.3213   24.1455 H   0  0  0  0  0  0
  -20.5618  -26.2255   23.3613 H   0  0  0  0  0  0
  -21.6612  -26.7413   22.1258 H   0  0  0  0  0  0
  -19.6882  -25.6316   21.1218 H   0  0  0  0  0  0
  -19.6666  -27.3228   20.6757 H   0  0  0  0  0  0
  -17.4174  -26.6729   21.3980 H   0  0  0  0  0  0
  -18.0250  -26.0059   22.8968 H   0  0  0  0  0  0
  -19.7924  -30.7249   24.2309 H   0  0  0  0  0  0
  -17.5010  -31.6254   24.5183 H   0  0  0  0  0  0
  -15.5355  -30.3009   23.7631 H   0  0  0  0  0  0
  -15.8645  -28.0835   22.7079 H   0  0  0  0  0  0
  -24.5996  -30.6832   25.7752 H   0  0  0  0  0  0
  -24.8770  -32.2680   26.4860 H   0  0  0  0  0  0
  -25.8110  -30.8808   27.0200 H   0  0  0  0  0  0
  -26.2867  -29.6800   24.1093 H   0  0  0  0  0  0
  -27.4221  -29.7311   25.4410 H   0  0  0  0  0  0
  -27.8624  -30.4483   23.9069 H   0  0  0  0  0  0
  -27.2637  -33.3622   26.2057 H   0  0  0  0  0  0
  -28.3844  -32.6814   25.0355 H   0  0  0  0  0  0
  -28.0620  -31.8420   26.5452 H   0  0  0  0  0  0
  -28.2544  -38.0129   24.7596 H   0  0  0  0  0  0
  -28.1103  -36.2665   24.6193 H   0  0  0  0  0  0
  -27.2304  -37.1316   25.8875 H   0  0  0  0  0  0
  -20.9265  -29.8744   21.6985 H   0  0  0  0  0  0
  -26.0131  -38.2867   24.1517 H   0  0  0  0  0  0
  -29.2297  -22.1889   24.1184 H   0  0  0  0  0  0
  -30.2269  -20.0138   23.8489 H   0  0  0  0  0  0
  -31.0272  -25.7683   19.6789 H   0  0  0  0  0  0
  -32.4036  -13.8547   24.6347 H   0  0  0  0  0  0
  -32.9420  -13.9704   22.9770 H   0  0  0  0  0  0
  -33.5578  -16.0434   24.1536 H   0  0  0  0  0  0
  -31.9312  -16.2311   24.7488 H   0  0  0  0  0  0
  -30.0823  -14.5147   23.9572 H   0  0  0  0  0  0
  -30.6058  -13.0882   23.1016 H   0  0  0  0  0  0
  -30.4655  -16.8400   21.2114 H   0  0  0  0  0  0
  -29.9565  -16.6565   22.8619 H   0  0  0  0  0  0
  -32.8528  -16.5129   21.8574 H   0  0  0  0  0  0
  -32.5720  -24.3719   18.6182 H   0  0  0  0  0  0
  -32.2988  -22.6374   18.7691 H   0  0  0  0  0  0
  -33.5170  -23.4327   19.7716 H   0  0  0  0  0  0
  -27.6382  -24.6446   23.3081 H   0  0  0  0  0  0
  -28.8439  -25.7636   23.9638 H   0  0  0  0  0  0
  -28.8204  -24.1497   24.5199 H   0  0  0  0  0  0
  -29.8537  -27.4720   21.3184 H   0  0  0  0  0  0
  -28.4664  -26.8306   22.1605 H   0  0  0  0  0  0
  -32.9678  -19.3199   21.2679 H   0  0  0  0  0  0
  -31.3371  -18.7845   21.0666 H   0  0  0  0  0  0
  -33.2009  -18.4616   23.4447 H   0  0  0  0  0  0
  -31.5091  -18.4104   23.7800 H   0  0  0  0  0  0
  1 25  1  0  0  0
  1 30  2  0  0  0
  1 91  1  0  0  0
  2  3  1  0  0  0
  2 25  1  0  0  0
  2 92  1  0  0  0
  2 93  1  0  0  0
  3  4  1  0  0  0
  3 94  1  0  0  0
  3 95  1  0  0  0
  4  5  1  0  0  0
  4 96  1  0  0  0
  4 97  1  0  0  0
  5  6  1  0  0  0
  5 26  1  0  0  0
  5 98  1  0  0  0
  6 25  1  0  0  0
  6 99  1  0  0  0
  6100  1  0  0  0
  7  8  2  0  0  0
  7 26  1  0  0  0
  7 29  1  0  0  0
  8  9  1  0  0  0
  8 22  1  0  0  0
  9 10  1  0  0  0
  9 27  2  0  0  0
 10 11  2  0  0  0
 10 15  1  0  0  0
 11 12  1  0  0  0
 11101  1  0  0  0
 12 13  2  0  0  0
 12102  1  0  0  0
 13 14  1  0  0  0
 13 31  1  0  0  0
 14 15  2  0  0  0
 14103  1  0  0  0
 15104  1  0  0  0
 16 17  2  0  0  0
 16 21  1  0  0  0
 16 31  1  0  0  0
 17 18  1  0  0  0
 17105  1  0  0  0
 18 19  2  0  0  0
 18106  1  0  0  0
 19 20  1  0  0  0
 19 24  1  0  0  0
 20 21  2  0  0  0
 20107  1  0  0  0
 21 23  1  0  0  0
 22 28  1  0  0  0
 22 32  2  0  0  0
 26 27  1  0  0  0
 28108  1  0  0  0
 28109  1  0  0  0
 29110  1  0  0  0
 29111  1  0  0  0
 33 34  1  0  0  0
 33 66  1  0  0  0
 33 70  2  0  0  0
 34 36  1  0  0  0
 34 59  1  0  0  0
 34112  1  0  0  0
 35 44  2  0  0  0
 35 45  1  0  0  0
 35 68  1  0  0  0
 36 56  1  0  0  0
 36113  1  0  0  0
 37 39  1  0  0  0
 37 47  1  0  0  0
 37 66  1  0  0  0
 37114  1  0  0  0
 38 43  2  0  0  0
 38 46  1  0  0  0
 38 47  1  0  0  0
 39 64  1  0  0  0
 39 67  2  0  0  0
 40 52  1  0  0  0
 40 53  2  0  0  0
 40 58  1  0  0  0
 41115  1  0  0  0
 41116  1  0  0  0
 41117  1  0  0  0
 41 48  1  0  0  0
 42 43  1  0  0  0
 42 66  1  0  0  0
 42118  1  0  0  0
 42119  1  0  0  0
 43 44  1  0  0  0
 44120  1  0  0  0
 45 46  2  0  0  0
 45121  1  0  0  0
 46122  1  0  0  0
 47123  1  0  0  0
 47124  1  0  0  0
 48 56  1  0  0  0
 48 65  1  0  0  0
 48125  1  0  0  0
 49 50  1  0  0  0
 49 53  1  0  0  0
 49 64  1  0  0  0
 49126  1  0  0  0
 50 51  1  0  0  0
 50127  1  0  0  0
 50128  1  0  0  0
 51 52  1  0  0  0
 51129  1  0  0  0
 51130  1  0  0  0
 52131  1  0  0  0
 52132  1  0  0  0
 53 54  1  0  0  0
 54 55  2  0  0  0
 54133  1  0  0  0
 55 57  1  0  0  0
 55134  1  0  0  0
 56 69  2  0  0  0
 57 58  2  0  0  0
 57135  1  0  0  0
 58136  1  0  0  0
 59 60  1  0  0  0
 59 61  1  0  0  0
 59 62  1  0  0  0
 60137  1  0  0  0
 60138  1  0  0  0
 60139  1  0  0  0
 61140  1  0  0  0
 61141  1  0  0  0
 61142  1  0  0  0
 62143  1  0  0  0
 62144  1  0  0  0
 62145  1  0  0  0
 63 65  1  0  0  0
 63146  1  0  0  0
 63147  1  0  0  0
 63148  1  0  0  0
 64149  1  0  0  0
 65150  1  0  0  0
 68 87  1  0  0  0
 71 72  2  0  0  0
 71 74  1  0  0  0
 71151  1  0  0  0
 72 79  1  0  0  0
 72152  1  0  0  0
 73 75  2  0  0  0
 73 76  1  0  0  0
 73153  1  0  0  0
 74 77  2  0  0  0
 74 78  1  0  0  0
 75 77  1  0  0  0
 75 87  1  0  0  0
 76 78  2  0  0  0
 76 85  1  0  0  0
 77 86  1  0  0  0
 78 90  1  0  0  0
 79 88  1  0  0  0
 79 90  2  0  0  0
 80 81  1  0  0  0
 80 82  1  0  0  0
 80154  1  0  0  0
 80155  1  0  0  0
 81 84  1  0  0  0
 81156  1  0  0  0
 81157  1  0  0  0
 82 91  1  0  0  0
 82158  1  0  0  0
 82159  1  0  0  0
 83 84  1  0  0  0
 83 91  1  0  0  0
 83160  1  0  0  0
 83161  1  0  0  0
 84 89  1  0  0  0
 84162  1  0  0  0
 85163  1  0  0  0
 85164  1  0  0  0
 85165  1  0  0  0
 86166  1  0  0  0
 86167  1  0  0  0
 86168  1  0  0  0
 87169  1  0  0  0
 87170  1  0  0  0
 88 89  1  0  0  0
 88171  1  0  0  0
 88172  1  0  0  0
 89173  1  0  0  0
 89174  1  0  0  0
M  ISO  4   1 100  68 101  87 101  91 100
M  END
> <chiral flag>
0

> <version>
0

> <s_m_source_file>
/data/baiqing/PycharmProjects/Reinvent-master-3.2/result/LINK_invent/BTK/process_docking_weight1_custom_sum_contain_oxygen_bond_distance_aromatic_linkinvent_7_9_3/rearranged_h_0038.sdf

> <i_m_source_file_index>
41

> <r_mmod_Potential_Energy-OPLS-2005>
123.617454528809

> <r_mmod_Stretch_Energy-OPLS-2005>
41.6690711975098

> <r_mmod_Bend_Energy-OPLS-2005>
103.765426635742

> <r_mmod_Torsional_Energy-OPLS-2005>
334.91943359375

> <r_mmod_Improper_Torsional_Energy-OPLS-2005>
4.09912919998169

> <r_mmod_Van_der_Waal_Energy-OPLS-2005>
195.288101196289

> <r_mmod_Electrostatic_Energy-OPLS-2005>
-363.015960693359

> <r_mmod_Solvation_Energy-OPLS-2005>
-202.503799438477

> <b_mmod_Minimization_Converged-OPLS-2005>
0

> <r_mmod_RMS_Derivative-OPLS-2005>
2.7879593372345

$$$$
41
                    3D
 Structure written by MMmdl.
167175  0  0  1  0            999 V2000
  -30.6772  -14.4278   20.6190 C   0  0  0  0  0  0
  -30.4327  -12.2987   19.4034 C   0  0  0  0  0  0
  -29.4949  -12.5144   18.1978 C   0  0  0  0  0  0
  -28.0144  -12.3746   18.6095 C   0  0  0  0  0  0
  -27.6664  -13.1958   19.8802 C   0  0  2  0  0  0
  -28.7015  -12.9228   20.9942 C   0  0  0  0  0  0
  -25.2623  -13.8135   20.5647 C   0  0  0  0  0  0
  -24.1860  -13.0441   20.9162 C   0  0  0  0  0  0
  -24.6397  -11.6897   20.8714 C   0  0  0  0  0  0
  -23.9067  -10.4292   21.0407 C   0  0  0  0  0  0
  -24.3611   -9.4200   21.9188 C   0  0  0  0  0  0
  -23.6291   -8.2234   22.0761 C   0  0  0  0  0  0
  -22.4270   -8.0276   21.3552 C   0  0  0  0  0  0
  -21.9901   -9.0248   20.4655 C   0  0  0  0  0  0
  -22.7236  -10.2135   20.3063 C   0  0  0  0  0  0
  -21.6858   -6.0736   22.5284 C   0  0  0  0  0  0
  -21.4014   -6.5646   23.8216 C   0  0  0  0  0  0
  -21.3651   -5.6800   24.9176 C   0  0  0  0  0  0
  -21.6049   -4.3060   24.7229 C   0  0  0  0  0  0
  -21.8822   -3.8149   23.4352 C   0  0  0  0  0  0
  -21.9194   -4.6964   22.3406 C   0  0  0  0  0  0
  -22.7890  -13.5250   21.1826 C   0  0  0  0  0  0
  -22.1666   -4.2149   21.0984 F   0  0  0  0  0  0
  -21.5623   -3.4546   25.7740 F   0  0  0  0  0  0
  -30.0396  -13.2407   20.4601 N   0  0  0  0  0  0
  -26.3040  -12.9281   20.3359 N   0  0  0  0  0  0
  -25.9317  -11.6444   20.5749 N   0  0  0  0  0  0
  -22.0531  -12.8234   22.0374 N   0  0  0  0  0  0
  -25.4361  -15.1853   20.4038 N   0  0  0  0  0  0
  -31.7643  -14.6968   20.0936 O   0  0  0  0  0  0
  -21.6645   -6.8870   21.4239 O   0  0  0  0  0  0
  -22.3572  -14.5547   20.6676 O   0  0  0  0  0  0
  -24.6115  -31.8684   23.2072 C   0  0  0  0  0  0
  -25.9019  -32.4811   23.8353 C   0  0  1  0  0  0
  -27.2538  -27.4671   20.0881 C   0  0  0  0  0  0
  -25.5899  -33.8619   24.2319 N   0  0  0  0  0  0
  -23.3996  -30.4898   21.5438 C   0  0  2  0  0  0
  -24.8470  -28.9486   20.1175 C   0  0  0  0  0  0
  -22.7388  -29.4706   22.4979 C   0  0  0  0  0  0
  -18.0270  -28.1414   22.8505 C   0  0  0  0  0  0
  -24.1482  -36.7301   23.2639 C   0  0  0  0  0  0
  -25.9230  -30.8409   21.3568 C   0  0  0  0  0  0
  -26.0013  -29.4771   20.7060 C   0  0  0  0  0  0
  -27.2019  -28.7426   20.6866 C   0  0  0  0  0  0
  -26.0828  -26.9400   19.4948 C   0  0  0  0  0  0
  -24.8809  -27.6786   19.5109 C   0  0  0  0  0  0
  -23.6059  -29.8092   20.1625 C   0  0  0  0  0  0
  -25.4105  -36.3107   24.0345 C   0  0  1  0  0  0
  -20.5851  -28.3709   23.1298 C   0  0  2  0  0  0
  -20.6768  -26.9448   22.5403 C   0  0  0  0  0  0
  -19.5751  -26.6425   21.5212 C   0  0  0  0  0  0
  -18.1928  -26.7967   22.1626 C   0  0  0  0  0  0
  -19.1513  -28.8877   23.2900 C   0  0  0  0  0  0
  -18.9460  -30.1472   23.8936 C   0  0  0  0  0  0
  -17.6463  -30.6616   24.0588 C   0  0  0  0  0  0
  -25.9043  -34.9472   23.5131 C   0  0  0  0  0  0
  -16.5346  -29.9128   23.6329 C   0  0  0  0  0  0
  -16.7263  -28.6534   23.0365 C   0  0  0  0  0  0
  -26.4460  -31.6588   25.0696 C   0  0  0  0  0  0
  -25.3711  -31.3691   26.1431 C   0  0  0  0  0  0
  -27.0283  -30.3016   24.6071 C   0  0  0  0  0  0
  -27.6048  -32.4302   25.7436 C   0  0  0  0  0  0
  -27.5584  -37.1800   24.8476 C   0  0  0  0  0  0
  -21.4121  -29.3072   22.3696 N   0  0  0  0  0  0
  -26.4301  -37.3789   23.9420 N   0  0  0  0  0  0
  -24.6624  -31.0806   22.0949 N   0  0  0  0  0  0
  -23.4156  -28.8289   23.3054 O   0  0  0  0  0  0
  -28.4790  -26.8425   20.0938 O   0  0  0  0  0  0
  -26.5596  -34.8938   22.4691 O   0  0  0  0  0  0
  -23.5315  -32.1438   23.7492 O   0  0  0  0  0  0
  -27.3011  -22.0434   21.4838 C   0  0  0  0  0  0
  -29.6600  -20.6946   21.0639 C   0  0  0  0  0  0
  -27.2367  -20.7028   21.0563 C   0  0  0  0  0  0
  -28.4507  -20.0190   20.8205 C   0  0  0  0  0  0
  -28.5625  -22.6390   21.6766 C   0  0  0  0  0  0
  -25.8892  -20.0373   20.8455 C   0  0  0  0  0  0
  -29.6533  -23.8244   18.1567 C   0  0  0  0  0  0
  -28.4948  -18.5983   20.2745 C   0  0  0  0  0  0
  -28.6914  -24.0859   22.1221 C   0  0  0  0  0  0
  -29.3506  -25.2754   18.5578 C   0  0  0  0  0  0
  -28.7555  -17.5167   21.3485 C   0  0  0  0  0  0
  -29.4633  -24.9603   21.1166 C   0  0  0  0  0  0
  -30.1262  -16.7998   21.2215 C   0  0  0  0  0  0
  -28.6255  -25.4386   19.9077 C   0  0  1  0  0  0
  -29.7198  -21.9668   21.4997 N   0  0  0  0  0  0
  -29.9582  -15.3490   21.2801 N   0  0  0  0  0  0
  -31.4734  -12.4276   19.1015 H   0  0  0  0  0  0
  -30.3527  -11.2758   19.7717 H   0  0  0  0  0  0
  -29.7288  -11.7998   17.4057 H   0  0  0  0  0  0
  -29.6610  -13.5059   17.7760 H   0  0  0  0  0  0
  -27.8184  -11.3152   18.7853 H   0  0  0  0  0  0
  -27.3629  -12.6668   17.7824 H   0  0  0  0  0  0
  -27.7256  -14.2502   19.6097 H   0  0  0  0  0  0
  -28.6753  -11.8745   21.2911 H   0  0  0  0  0  0
  -28.4509  -13.4740   21.9018 H   0  0  0  0  0  0
  -25.2763   -9.5686   22.4744 H   0  0  0  0  0  0
  -24.0012   -7.4640   22.7488 H   0  0  0  0  0  0
  -21.0834   -8.8776   19.8962 H   0  0  0  0  0  0
  -22.3703  -10.9668   19.6162 H   0  0  0  0  0  0
  -21.2006   -7.6154   23.9711 H   0  0  0  0  0  0
  -21.1469   -6.0536   25.9082 H   0  0  0  0  0  0
  -22.0602   -2.7611   23.2858 H   0  0  0  0  0  0
  -22.4149  -11.9903   22.4744 H   0  0  0  0  0  0
  -21.1158  -13.1259   22.2602 H   0  0  0  0  0  0
  -24.6658  -15.8378   20.5056 H   0  0  0  0  0  0
  -26.2867  -15.6191   20.0667 H   0  0  0  0  0  0
  -26.7107  -32.5539   23.1127 H   0  0  0  0  0  0
  -25.0055  -33.9745   25.0465 H   0  0  0  0  0  0
  -22.6899  -31.3070   21.3962 H   0  0  0  0  0  0
  -23.3759  -35.9623   23.3330 H   0  0  0  0  0  0
  -24.3581  -36.8885   22.2051 H   0  0  0  0  0  0
  -23.7219  -37.6517   23.6622 H   0  0  0  0  0  0
  -26.0334  -31.6069   20.5886 H   0  0  0  0  0  0
  -26.8126  -30.8915   21.9727 H   0  0  0  0  0  0
  -28.1004  -29.1608   21.1223 H   0  0  0  0  0  0
  -26.0855  -25.9811   18.9964 H   0  0  0  0  0  0
  -23.9911  -27.2693   19.0520 H   0  0  0  0  0  0
  -23.7091  -30.5730   19.3904 H   0  0  0  0  0  0
  -22.7358  -29.2144   19.8788 H   0  0  0  0  0  0
  -25.1277  -36.1983   25.0840 H   0  0  0  0  0  0
  -20.9945  -28.3311   24.1418 H   0  0  0  0  0  0
  -20.5704  -26.2336   23.3607 H   0  0  0  0  0  0
  -21.6645  -26.7531   22.1187 H   0  0  0  0  0  0
  -19.6923  -25.6345   21.1241 H   0  0  0  0  0  0
  -19.6684  -27.3248   20.6756 H   0  0  0  0  0  0
  -17.4195  -26.6719   21.4022 H   0  0  0  0  0  0
  -18.0330  -26.0092   22.9010 H   0  0  0  0  0  0
  -19.7927  -30.7264   24.2339 H   0  0  0  0  0  0
  -17.5026  -31.6310   24.5190 H   0  0  0  0  0  0
  -15.5356  -30.3064   23.7644 H   0  0  0  0  0  0
  -15.8651  -28.0875   22.7084 H   0  0  0  0  0  0
  -24.5904  -30.7036   25.7753 H   0  0  0  0  0  0
  -24.8886  -32.2843   26.4850 H   0  0  0  0  0  0
  -25.8051  -30.8878   27.0191 H   0  0  0  0  0  0
  -26.2822  -29.6793   24.1115 H   0  0  0  0  0  0
  -27.4054  -29.7251   25.4532 H   0  0  0  0  0  0
  -27.8664  -30.4351   23.9218 H   0  0  0  0  0  0
  -27.2685  -33.3596   26.2039 H   0  0  0  0  0  0
  -28.3825  -32.6861   25.0227 H   0  0  0  0  0  0
  -28.0739  -31.8402   26.5314 H   0  0  0  0  0  0
  -28.2621  -38.0076   24.7521 H   0  0  0  0  0  0
  -28.1050  -36.2618   24.6302 H   0  0  0  0  0  0
  -27.2295  -37.1452   25.8872 H   0  0  0  0  0  0
  -20.9320  -29.8712   21.6829 H   0  0  0  0  0  0
  -26.0202  -38.2880   24.1402 H   0  0  0  0  0  0
  -26.3957  -22.6121   21.6647 H   0  0  0  0  0  0
  -30.6053  -20.1990   20.9008 H   0  0  0  0  0  0
  -25.8376  -19.0927   21.3886 H   0  0  0  0  0  0
  -25.7209  -19.8402   19.7864 H   0  0  0  0  0  0
  -25.0747  -20.6685   21.1981 H   0  0  0  0  0  0
  -28.7547  -23.2096   18.1924 H   0  0  0  0  0  0
  -30.3991  -23.3665   18.8096 H   0  0  0  0  0  0
  -30.0401  -23.7838   17.1373 H   0  0  0  0  0  0
  -29.2528  -18.5661   19.4938 H   0  0  0  0  0  0
  -27.5694  -18.3756   19.7438 H   0  0  0  0  0  0
  -29.2038  -24.0915   23.0837 H   0  0  0  0  0  0
  -27.7071  -24.5186   22.3060 H   0  0  0  0  0  0
  -30.2838  -25.8409   18.5731 H   0  0  0  0  0  0
  -28.7476  -25.7339   17.7727 H   0  0  0  0  0  0
  -27.9454  -16.7872   21.2837 H   0  0  0  0  0  0
  -28.6536  -17.9418   22.3493 H   0  0  0  0  0  0
  -30.3715  -24.4493   20.8014 H   0  0  0  0  0  0
  -29.8393  -25.8290   21.6602 H   0  0  0  0  0  0
  -30.6253  -17.0737   20.2916 H   0  0  0  0  0  0
  -30.7943  -17.1145   22.0243 H   0  0  0  0  0  0
  -27.6767  -24.9029   19.8901 H   0  0  0  0  0  0
  -29.0988  -15.0119   21.6896 H   0  0  0  0  0  0
  1 25  1  0  0  0
  1 30  2  0  0  0
  1 86  1  0  0  0
  2  3  1  0  0  0
  2 25  1  0  0  0
  2 87  1  0  0  0
  2 88  1  0  0  0
  3  4  1  0  0  0
  3 89  1  0  0  0
  3 90  1  0  0  0
  4  5  1  0  0  0
  4 91  1  0  0  0
  4 92  1  0  0  0
  5  6  1  0  0  0
  5 26  1  0  0  0
  5 93  1  0  0  0
  6 25  1  0  0  0
  6 94  1  0  0  0
  6 95  1  0  0  0
  7  8  2  0  0  0
  7 26  1  0  0  0
  7 29  1  0  0  0
  8  9  1  0  0  0
  8 22  1  0  0  0
  9 10  1  0  0  0
  9 27  2  0  0  0
 10 11  2  0  0  0
 10 15  1  0  0  0
 11 12  1  0  0  0
 11 96  1  0  0  0
 12 13  2  0  0  0
 12 97  1  0  0  0
 13 14  1  0  0  0
 13 31  1  0  0  0
 14 15  2  0  0  0
 14 98  1  0  0  0
 15 99  1  0  0  0
 16 17  2  0  0  0
 16 21  1  0  0  0
 16 31  1  0  0  0
 17 18  1  0  0  0
 17100  1  0  0  0
 18 19  2  0  0  0
 18101  1  0  0  0
 19 20  1  0  0  0
 19 24  1  0  0  0
 20 21  2  0  0  0
 20102  1  0  0  0
 21 23  1  0  0  0
 22 28  1  0  0  0
 22 32  2  0  0  0
 26 27  1  0  0  0
 28103  1  0  0  0
 28104  1  0  0  0
 29105  1  0  0  0
 29106  1  0  0  0
 33 34  1  0  0  0
 33 66  1  0  0  0
 33 70  2  0  0  0
 34 36  1  0  0  0
 34 59  1  0  0  0
 34107  1  0  0  0
 35 44  2  0  0  0
 35 45  1  0  0  0
 35 68  1  0  0  0
 36 56  1  0  0  0
 36108  1  0  0  0
 37 39  1  0  0  0
 37 47  1  0  0  0
 37 66  1  0  0  0
 37109  1  0  0  0
 38 43  2  0  0  0
 38 46  1  0  0  0
 38 47  1  0  0  0
 39 64  1  0  0  0
 39 67  2  0  0  0
 40 52  1  0  0  0
 40 53  2  0  0  0
 40 58  1  0  0  0
 41110  1  0  0  0
 41111  1  0  0  0
 41112  1  0  0  0
 41 48  1  0  0  0
 42 43  1  0  0  0
 42 66  1  0  0  0
 42113  1  0  0  0
 42114  1  0  0  0
 43 44  1  0  0  0
 44115  1  0  0  0
 45 46  2  0  0  0
 45116  1  0  0  0
 46117  1  0  0  0
 47118  1  0  0  0
 47119  1  0  0  0
 48 56  1  0  0  0
 48 65  1  0  0  0
 48120  1  0  0  0
 49 50  1  0  0  0
 49 53  1  0  0  0
 49 64  1  0  0  0
 49121  1  0  0  0
 50 51  1  0  0  0
 50122  1  0  0  0
 50123  1  0  0  0
 51 52  1  0  0  0
 51124  1  0  0  0
 51125  1  0  0  0
 52126  1  0  0  0
 52127  1  0  0  0
 53 54  1  0  0  0
 54 55  2  0  0  0
 54128  1  0  0  0
 55 57  1  0  0  0
 55129  1  0  0  0
 56 69  2  0  0  0
 57 58  2  0  0  0
 57130  1  0  0  0
 58131  1  0  0  0
 59 60  1  0  0  0
 59 61  1  0  0  0
 59 62  1  0  0  0
 60132  1  0  0  0
 60133  1  0  0  0
 60134  1  0  0  0
 61135  1  0  0  0
 61136  1  0  0  0
 61137  1  0  0  0
 62138  1  0  0  0
 62139  1  0  0  0
 62140  1  0  0  0
 63 65  1  0  0  0
 63141  1  0  0  0
 63142  1  0  0  0
 63143  1  0  0  0
 64144  1  0  0  0
 65145  1  0  0  0
 68 84  1  0  0  0
 71 73  2  0  0  0
 71 75  1  0  0  0
 71146  1  0  0  0
 72 74  2  0  0  0
 72 85  1  0  0  0
 72147  1  0  0  0
 73 74  1  0  0  0
 73 76  1  0  0  0
 74 78  1  0  0  0
 75 79  1  0  0  0
 75 85  2  0  0  0
 76148  1  0  0  0
 76149  1  0  0  0
 76150  1  0  0  0
 77 80  1  0  0  0
 77151  1  0  0  0
 77152  1  0  0  0
 77153  1  0  0  0
 78 81  1  0  0  0
 78154  1  0  0  0
 78155  1  0  0  0
 79 82  1  0  0  0
 79156  1  0  0  0
 79157  1  0  0  0
 80158  1  0  0  0
 80159  1  0  0  0
 80 84  1  0  0  0
 81 83  1  0  0  0
 81160  1  0  0  0
 81161  1  0  0  0
 82 84  1  0  0  0
 82162  1  0  0  0
 82163  1  0  0  0
 83 86  1  0  0  0
 83164  1  0  0  0
 83165  1  0  0  0
 84166  1  0  0  0
 86167  1  0  0  0
M  ISO  4   1 100  68 101  84 101  86 100
M  END
> <chiral flag>
0

> <version>
0

> <s_m_source_file>
/data/baiqing/PycharmProjects/Reinvent-master-3.2/result/LINK_invent/BTK/process_docking_weight1_custom_sum_contain_oxygen_bond_distance_aromatic_linkinvent_7_9_3/rearranged_h_0038.sdf

> <i_m_source_file_index>
42

> <r_mmod_Potential_Energy-OPLS-2005>
-211.289001464844

> <r_mmod_Stretch_Energy-OPLS-2005>
32.8286247253418

> <r_mmod_Bend_Energy-OPLS-2005>
104.683555603027

> <r_mmod_Torsional_Energy-OPLS-2005>
235.458847045898

> <r_mmod_Improper_Torsional_Energy-OPLS-2005>
4.00923156738281

> <r_mmod_Van_der_Waal_Energy-OPLS-2005>
152.99201965332

> <r_mmod_Electrostatic_Energy-OPLS-2005>
-537.747253417969

> <r_mmod_Solvation_Energy-OPLS-2005>
-214.330902099609

> <b_mmod_Minimization_Converged-OPLS-2005>
0

> <r_mmod_RMS_Derivative-OPLS-2005>
4.23667287826538

$$$$
43
                    3D
 Structure written by MMmdl.
182191  0  0  1  0            999 V2000
  -30.7318  -14.4355   20.6494 C   0  0  0  0  0  0
  -30.4345  -12.3099   19.4193 C   0  0  0  0  0  0
  -29.5010  -12.5041   18.2060 C   0  0  0  0  0  0
  -28.0197  -12.3636   18.6160 C   0  0  0  0  0  0
  -27.6646  -13.2030   19.8715 C   0  0  2  0  0  0
  -28.7044  -12.9860   20.9963 C   0  0  0  0  0  0
  -25.2586  -13.8181   20.5621 C   0  0  0  0  0  0
  -24.1818  -13.0444   20.9123 C   0  0  0  0  0  0
  -24.6358  -11.6911   20.8663 C   0  0  0  0  0  0
  -23.9002  -10.4299   21.0370 C   0  0  0  0  0  0
  -24.3560   -9.4235   21.9174 C   0  0  0  0  0  0
  -23.6264   -8.2248   22.0749 C   0  0  0  0  0  0
  -22.4262   -8.0259   21.3532 C   0  0  0  0  0  0
  -21.9871   -9.0212   20.4630 C   0  0  0  0  0  0
  -22.7158  -10.2117   20.3036 C   0  0  0  0  0  0
  -21.6849   -6.0702   22.5258 C   0  0  0  0  0  0
  -21.4008   -6.5602   23.8184 C   0  0  0  0  0  0
  -21.3677   -5.6769   24.9152 C   0  0  0  0  0  0
  -21.6053   -4.3029   24.7230 C   0  0  0  0  0  0
  -21.8819   -3.8114   23.4347 C   0  0  0  0  0  0
  -21.9197   -4.6926   22.3399 C   0  0  0  0  0  0
  -22.7838  -13.5248   21.1792 C   0  0  0  0  0  0
  -22.1658   -4.2099   21.0980 F   0  0  0  0  0  0
  -21.5662   -3.4531   25.7756 F   0  0  0  0  0  0
  -30.0427  -13.2789   20.4524 N   0  0  0  0  0  0
  -26.3011  -12.9325   20.3295 N   0  0  0  0  0  0
  -25.9282  -11.6479   20.5680 N   0  0  0  0  0  0
  -22.0481  -12.8243   22.0376 N   0  0  0  0  0  0
  -25.4339  -15.1891   20.4025 N   0  0  0  0  0  0
  -31.8141  -14.6637   20.1000 O   0  0  0  0  0  0
  -21.6637   -6.8843   21.4224 O   0  0  0  0  0  0
  -22.3498  -14.5530   20.6637 O   0  0  0  0  0  0
  -24.6125  -31.8688   23.2116 C   0  0  0  0  0  0
  -25.9031  -32.4808   23.8400 C   0  0  1  0  0  0
  -27.2092  -27.4283   20.0863 C   0  0  0  0  0  0
  -25.5897  -33.8606   24.2331 N   0  0  0  0  0  0
  -23.3981  -30.4946   21.5504 C   0  0  2  0  0  0
  -24.8419  -28.9744   20.0953 C   0  0  0  0  0  0
  -22.7405  -29.4643   22.4957 C   0  0  0  0  0  0
  -18.0269  -28.1364   22.8470 C   0  0  0  0  0  0
  -24.1494  -36.7316   23.2629 C   0  0  0  0  0  0
  -25.9260  -30.8278   21.3724 C   0  0  0  0  0  0
  -25.9957  -29.4637   20.7182 C   0  0  0  0  0  0
  -27.1738  -28.6846   20.7335 C   0  0  0  0  0  0
  -26.0686  -27.0044   19.3790 C   0  0  0  0  0  0
  -24.8718  -27.7417   19.4237 C   0  0  0  0  0  0
  -23.6028  -29.8373   20.1588 C   0  0  0  0  0  0
  -25.4112  -36.3108   24.0326 C   0  0  1  0  0  0
  -20.5867  -28.3647   23.1298 C   0  0  2  0  0  0
  -20.6773  -26.9382   22.5412 C   0  0  0  0  0  0
  -19.5753  -26.6367   21.5195 C   0  0  0  0  0  0
  -18.1917  -26.7919   22.1595 C   0  0  0  0  0  0
  -19.1524  -28.8820   23.2880 C   0  0  0  0  0  0
  -18.9467  -30.1420   23.8905 C   0  0  0  0  0  0
  -17.6467  -30.6565   24.0563 C   0  0  0  0  0  0
  -25.9038  -34.9464   23.5137 C   0  0  0  0  0  0
  -16.5359  -29.9077   23.6310 C   0  0  0  0  0  0
  -16.7267  -28.6493   23.0333 C   0  0  0  0  0  0
  -26.4458  -31.6578   25.0726 C   0  0  0  0  0  0
  -25.3700  -31.3689   26.1464 C   0  0  0  0  0  0
  -27.0283  -30.3016   24.6104 C   0  0  0  0  0  0
  -27.6081  -32.4271   25.7465 C   0  0  0  0  0  0
  -27.5586  -37.1804   24.8449 C   0  0  0  0  0  0
  -21.4138  -29.3019   22.3703 N   0  0  0  0  0  0
  -26.4294  -37.3799   23.9403 N   0  0  0  0  0  0
  -24.6627  -31.0791   22.1026 N   0  0  0  0  0  0
  -23.4175  -28.8170   23.2988 O   0  0  0  0  0  0
  -28.3518  -26.6672   20.2093 O   0  0  0  0  0  0
  -26.5605  -34.8904   22.4701 O   0  0  0  0  0  0
  -23.5332  -32.1469   23.7503 O   0  0  0  0  0  0
  -29.5107  -22.9956   18.5318 C   0  0  0  0  0  0
  -29.8865  -25.3062   19.1264 C   0  0  0  0  0  0
  -28.2438  -23.0334   19.1399 C   0  0  0  0  0  0
  -27.7705  -24.2337   19.7461 C   0  0  0  0  0  0
  -30.3851  -24.0813   18.6538 C   0  0  0  0  0  0
  -28.5829  -25.4201   19.6518 C   0  0  0  0  0  0
  -27.5189  -21.6978   19.2660 C   0  0  0  0  0  0
  -26.4953  -24.1527   20.5983 C   0  0  0  0  0  0
  -26.1222  -21.6534   18.6426 C   0  0  0  0  0  0
  -25.2081  -23.7259   19.8430 C   0  0  0  0  0  0
  -25.0559  -22.2198   19.5805 C   0  0  0  0  0  0
  -32.3692  -16.3998   23.2916 C   0  0  0  0  0  0
  -31.8777  -23.8806   18.4253 C   0  0  0  0  0  0
  -30.1240  -15.5418   21.5338 C   0  0  0  0  0  0
  -32.5564  -23.1415   19.6137 C   0  0  0  0  0  0
  -32.1629  -21.6539   19.7462 C   0  0  0  0  0  0
  -32.8198  -20.8589   20.8923 C   0  0  0  0  0  0
  -32.3477  -19.3877   20.8364 C   0  0  0  0  0  0
  -30.7935  -16.9460   21.4328 C   0  0  0  0  0  0
  -32.6502  -18.5210   22.0836 C   0  0  0  0  0  0
  -32.1746  -17.1011   21.9971 N   0  3  1  0  0  0
  -31.4772  -12.4269   19.1142 H   0  0  0  0  0  0
  -30.3566  -11.2949   19.8124 H   0  0  0  0  0  0
  -29.7478  -11.7718   17.4356 H   0  0  0  0  0  0
  -29.6664  -13.4898   17.7657 H   0  0  0  0  0  0
  -27.8225  -11.3077   18.8079 H   0  0  0  0  0  0
  -27.3719  -12.6433   17.7845 H   0  0  0  0  0  0
  -27.7106  -14.2500   19.5700 H   0  0  0  0  0  0
  -28.6697  -11.9549   21.3500 H   0  0  0  0  0  0
  -28.4509  -13.5929   21.8663 H   0  0  0  0  0  0
  -25.2725   -9.5726   22.4723 H   0  0  0  0  0  0
  -24.0000   -7.4655   22.7462 H   0  0  0  0  0  0
  -21.0812   -8.8671   19.8928 H   0  0  0  0  0  0
  -22.3604  -10.9615   19.6110 H   0  0  0  0  0  0
  -21.1977   -7.6108   23.9660 H   0  0  0  0  0  0
  -21.1511   -6.0511   25.9054 H   0  0  0  0  0  0
  -22.0607   -2.7573   23.2854 H   0  0  0  0  0  0
  -22.4112  -11.9920   22.4764 H   0  0  0  0  0  0
  -21.1055  -13.1188   22.2516 H   0  0  0  0  0  0
  -24.6776  -15.8550   20.5206 H   0  0  0  0  0  0
  -26.2909  -15.6200   20.0791 H   0  0  0  0  0  0
  -26.7095  -32.5536   23.1159 H   0  0  0  0  0  0
  -25.0030  -33.9771   25.0468 H   0  0  0  0  0  0
  -22.6837  -31.3104   21.4185 H   0  0  0  0  0  0
  -23.3750  -35.9657   23.3304 H   0  0  0  0  0  0
  -24.3592  -36.8955   22.2046 H   0  0  0  0  0  0
  -23.7261  -37.6521   23.6657 H   0  0  0  0  0  0
  -26.0415  -31.5961   20.6065 H   0  0  0  0  0  0
  -26.8136  -30.8810   21.9908 H   0  0  0  0  0  0
  -28.0551  -29.0313   21.2542 H   0  0  0  0  0  0
  -26.0952  -26.0999   18.7975 H   0  0  0  0  0  0
  -23.9958  -27.3789   18.9039 H   0  0  0  0  0  0
  -23.7032  -30.6193   19.4049 H   0  0  0  0  0  0
  -22.7251  -29.2597   19.8641 H   0  0  0  0  0  0
  -25.1296  -36.1976   25.0821 H   0  0  0  0  0  0
  -20.9937  -28.3259   24.1424 H   0  0  0  0  0  0
  -20.5672  -26.2264   23.3599 H   0  0  0  0  0  0
  -21.6652  -26.7423   22.1224 H   0  0  0  0  0  0
  -19.6926  -25.6274   21.1219 H   0  0  0  0  0  0
  -19.6702  -27.3188   20.6731 H   0  0  0  0  0  0
  -17.4187  -26.6648   21.3993 H   0  0  0  0  0  0
  -18.0328  -26.0055   22.8993 H   0  0  0  0  0  0
  -19.7952  -30.7225   24.2285 H   0  0  0  0  0  0
  -17.5041  -31.6256   24.5161 H   0  0  0  0  0  0
  -15.5369  -30.2992   23.7624 H   0  0  0  0  0  0
  -15.8671  -28.0824   22.7031 H   0  0  0  0  0  0
  -24.5898  -30.7006   25.7792 H   0  0  0  0  0  0
  -24.8828  -32.2841   26.4856 H   0  0  0  0  0  0
  -25.8030  -30.8891   27.0253 H   0  0  0  0  0  0
  -26.2832  -29.6773   24.1156 H   0  0  0  0  0  0
  -27.4068  -29.7250   25.4558 H   0  0  0  0  0  0
  -27.8667  -30.4334   23.9253 H   0  0  0  0  0  0
  -27.2785  -33.3628   26.1992 H   0  0  0  0  0  0
  -28.3904  -32.6722   25.0264 H   0  0  0  0  0  0
  -28.0715  -31.8389   26.5401 H   0  0  0  0  0  0
  -28.2574  -38.0124   24.7552 H   0  0  0  0  0  0
  -28.1113  -36.2665   24.6221 H   0  0  0  0  0  0
  -27.2304  -37.1428   25.8847 H   0  0  0  0  0  0
  -20.9275  -29.8764   21.6965 H   0  0  0  0  0  0
  -26.0181  -38.2871   24.1442 H   0  0  0  0  0  0
  -29.8847  -22.0698   18.1172 H   0  0  0  0  0  0
  -30.5435  -26.1621   19.1821 H   0  0  0  0  0  0
  -27.4762  -21.4207   20.3199 H   0  0  0  0  0  0
  -28.1190  -20.9186   18.7929 H   0  0  0  0  0  0
  -26.3165  -25.0964   21.1058 H   0  0  0  0  0  0
  -26.6821  -23.4561   21.4151 H   0  0  0  0  0  0
  -25.8682  -20.6079   18.4592 H   0  0  0  0  0  0
  -26.1061  -22.1383   17.6652 H   0  0  0  0  0  0
  -25.0981  -24.2612   18.9002 H   0  0  0  0  0  0
  -24.3515  -24.0232   20.4520 H   0  0  0  0  0  0
  -25.0572  -21.6682   20.5217 H   0  0  0  0  0  0
  -24.0763  -22.0366   19.1346 H   0  0  0  0  0  0
  -32.2999  -15.3204   23.1614 H   0  0  0  0  0  0
  -31.6211  -16.7007   24.0283 H   0  0  0  0  0  0
  -33.3589  -16.5981   23.7071 H   0  0  0  0  0  0
  -32.3494  -24.8569   18.3016 H   0  0  0  0  0  0
  -32.0445  -23.3462   17.4878 H   0  0  0  0  0  0
  -29.0930  -15.6799   21.2050 H   0  0  0  0  0  0
  -30.0574  -15.2041   22.5675 H   0  0  0  0  0  0
  -32.3263  -23.6656   20.5432 H   0  0  0  0  0  0
  -33.6371  -23.2039   19.4904 H   0  0  0  0  0  0
  -32.3632  -21.1480   18.8012 H   0  0  0  0  0  0
  -31.0911  -21.5844   19.9191 H   0  0  0  0  0  0
  -32.5371  -21.3042   21.8480 H   0  0  0  0  0  0
  -33.9069  -20.9170   20.8300 H   0  0  0  0  0  0
  -32.7687  -18.9125   19.9491 H   0  0  0  0  0  0
  -31.2699  -19.4131   20.6910 H   0  0  0  0  0  0
  -30.1361  -17.6708   21.9153 H   0  0  0  0  0  0
  -30.8210  -17.2268   20.3785 H   0  0  0  0  0  0
  -32.2075  -18.9976   22.9605 H   0  0  0  0  0  0
  -33.7284  -18.5157   22.2546 H   0  0  0  0  0  0
  -32.7969  -16.6372   21.3491 H   0  0  0  0  0  0
  1 25  1  0  0  0
  1 30  2  0  0  0
  1 84  1  0  0  0
  2  3  1  0  0  0
  2 25  1  0  0  0
  2 92  1  0  0  0
  2 93  1  0  0  0
  3  4  1  0  0  0
  3 94  1  0  0  0
  3 95  1  0  0  0
  4  5  1  0  0  0
  4 96  1  0  0  0
  4 97  1  0  0  0
  5  6  1  0  0  0
  5 26  1  0  0  0
  5 98  1  0  0  0
  6 25  1  0  0  0
  6 99  1  0  0  0
  6100  1  0  0  0
  7  8  2  0  0  0
  7 26  1  0  0  0
  7 29  1  0  0  0
  8  9  1  0  0  0
  8 22  1  0  0  0
  9 10  1  0  0  0
  9 27  2  0  0  0
 10 11  2  0  0  0
 10 15  1  0  0  0
 11 12  1  0  0  0
 11101  1  0  0  0
 12 13  2  0  0  0
 12102  1  0  0  0
 13 14  1  0  0  0
 13 31  1  0  0  0
 14 15  2  0  0  0
 14103  1  0  0  0
 15104  1  0  0  0
 16 17  2  0  0  0
 16 21  1  0  0  0
 16 31  1  0  0  0
 17 18  1  0  0  0
 17105  1  0  0  0
 18 19  2  0  0  0
 18106  1  0  0  0
 19 20  1  0  0  0
 19 24  1  0  0  0
 20 21  2  0  0  0
 20107  1  0  0  0
 21 23  1  0  0  0
 22 28  1  0  0  0
 22 32  2  0  0  0
 26 27  1  0  0  0
 28108  1  0  0  0
 28109  1  0  0  0
 29110  1  0  0  0
 29111  1  0  0  0
 33 34  1  0  0  0
 33 66  1  0  0  0
 33 70  2  0  0  0
 34 36  1  0  0  0
 34 59  1  0  0  0
 34112  1  0  0  0
 35 44  2  0  0  0
 35 45  1  0  0  0
 35 68  1  0  0  0
 36 56  1  0  0  0
 36113  1  0  0  0
 37 39  1  0  0  0
 37 47  1  0  0  0
 37 66  1  0  0  0
 37114  1  0  0  0
 38 43  2  0  0  0
 38 46  1  0  0  0
 38 47  1  0  0  0
 39 64  1  0  0  0
 39 67  2  0  0  0
 40 52  1  0  0  0
 40 53  2  0  0  0
 40 58  1  0  0  0
 41115  1  0  0  0
 41116  1  0  0  0
 41117  1  0  0  0
 41 48  1  0  0  0
 42 43  1  0  0  0
 42 66  1  0  0  0
 42118  1  0  0  0
 42119  1  0  0  0
 43 44  1  0  0  0
 44120  1  0  0  0
 45 46  2  0  0  0
 45121  1  0  0  0
 46122  1  0  0  0
 47123  1  0  0  0
 47124  1  0  0  0
 48 56  1  0  0  0
 48 65  1  0  0  0
 48125  1  0  0  0
 49 50  1  0  0  0
 49 53  1  0  0  0
 49 64  1  0  0  0
 49126  1  0  0  0
 50 51  1  0  0  0
 50127  1  0  0  0
 50128  1  0  0  0
 51 52  1  0  0  0
 51129  1  0  0  0
 51130  1  0  0  0
 52131  1  0  0  0
 52132  1  0  0  0
 53 54  1  0  0  0
 54 55  2  0  0  0
 54133  1  0  0  0
 55 57  1  0  0  0
 55134  1  0  0  0
 56 69  2  0  0  0
 57 58  2  0  0  0
 57135  1  0  0  0
 58136  1  0  0  0
 59 60  1  0  0  0
 59 61  1  0  0  0
 59 62  1  0  0  0
 60137  1  0  0  0
 60138  1  0  0  0
 60139  1  0  0  0
 61140  1  0  0  0
 61141  1  0  0  0
 61142  1  0  0  0
 62143  1  0  0  0
 62144  1  0  0  0
 62145  1  0  0  0
 63 65  1  0  0  0
 63146  1  0  0  0
 63147  1  0  0  0
 63148  1  0  0  0
 64149  1  0  0  0
 65150  1  0  0  0
 68 76  1  0  0  0
 71 73  2  0  0  0
 71 75  1  0  0  0
 71151  1  0  0  0
 72 75  2  0  0  0
 72 76  1  0  0  0
 72152  1  0  0  0
 73 74  1  0  0  0
 73 77  1  0  0  0
 74 76  2  0  0  0
 74 78  1  0  0  0
 75 83  1  0  0  0
 77 79  1  0  0  0
 77153  1  0  0  0
 77154  1  0  0  0
 78 80  1  0  0  0
 78155  1  0  0  0
 78156  1  0  0  0
 79 81  1  0  0  0
 79157  1  0  0  0
 79158  1  0  0  0
 80 81  1  0  0  0
 80159  1  0  0  0
 80160  1  0  0  0
 81161  1  0  0  0
 81162  1  0  0  0
 82163  1  0  0  0
 82164  1  0  0  0
 82165  1  0  0  0
 82 91  1  0  0  0
 83 85  1  0  0  0
 83166  1  0  0  0
 83167  1  0  0  0
 84 89  1  0  0  0
 84168  1  0  0  0
 84169  1  0  0  0
 85 86  1  0  0  0
 85170  1  0  0  0
 85171  1  0  0  0
 86 87  1  0  0  0
 86172  1  0  0  0
 86173  1  0  0  0
 87 88  1  0  0  0
 87174  1  0  0  0
 87175  1  0  0  0
 88 90  1  0  0  0
 88176  1  0  0  0
 88177  1  0  0  0
 89 91  1  0  0  0
 89178  1  0  0  0
 89179  1  0  0  0
 90 91  1  0  0  0
 90180  1  0  0  0
 90181  1  0  0  0
 91182  1  0  0  0
M  CHG  1  91   1
M  ISO  4   1 100  68 101  76 101  84 100
M  END
> <chiral flag>
0

> <version>
0

> <s_m_source_file>
/data/baiqing/PycharmProjects/Reinvent-master-3.2/result/LINK_invent/BTK/process_docking_weight1_custom_sum_contain_oxygen_bond_distance_aromatic_linkinvent_7_9_3/rearranged_h_0038.sdf

> <i_m_source_file_index>
43

> <r_mmod_Potential_Energy-OPLS-2005>
-66.2385711669922

> <r_mmod_Stretch_Energy-OPLS-2005>
43.4525680541992

> <r_mmod_Bend_Energy-OPLS-2005>
137.869857788086

> <r_mmod_Torsional_Energy-OPLS-2005>
204.689971923828

> <r_mmod_Improper_Torsional_Energy-OPLS-2005>
5.31294393539429

> <r_mmod_Van_der_Waal_Energy-OPLS-2005>
163.006790161133

> <r_mmod_Electrostatic_Energy-OPLS-2005>
-236.998092651367

> <r_mmod_Solvation_Energy-OPLS-2005>
-401.41455078125

> <b_mmod_Minimization_Converged-OPLS-2005>
0

> <r_mmod_RMS_Derivative-OPLS-2005>
3.74343061447144

$$$$
44
                    3D
 Structure written by MMmdl.
157165  0  0  1  0            999 V2000
  -30.5807  -14.8042   20.4853 C   0  0  0  0  0  0
  -30.4426  -12.4921   19.4851 C   0  0  0  0  0  0
  -29.5158  -12.5234   18.2469 C   0  0  0  0  0  0
  -28.0446  -12.3317   18.6604 C   0  0  0  0  0  0
  -27.6462  -13.2345   19.8572 C   0  0  2  0  0  0
  -28.6905  -13.1732   20.9933 C   0  0  0  0  0  0
  -25.2529  -13.8204   20.5711 C   0  0  0  0  0  0
  -24.1815  -13.0439   20.9198 C   0  0  0  0  0  0
  -24.6408  -11.6914   20.8738 C   0  0  0  0  0  0
  -23.9081  -10.4292   21.0404 C   0  0  0  0  0  0
  -24.3627   -9.4204   21.9183 C   0  0  0  0  0  0
  -23.6294   -8.2247   22.0760 C   0  0  0  0  0  0
  -22.4276   -8.0284   21.3546 C   0  0  0  0  0  0
  -21.9916   -9.0261   20.4649 C   0  0  0  0  0  0
  -22.7250  -10.2137   20.3056 C   0  0  0  0  0  0
  -21.6858   -6.0735   22.5274 C   0  0  0  0  0  0
  -21.4016   -6.5643   23.8204 C   0  0  0  0  0  0
  -21.3657   -5.6795   24.9168 C   0  0  0  0  0  0
  -21.6049   -4.3058   24.7218 C   0  0  0  0  0  0
  -21.8817   -3.8145   23.4342 C   0  0  0  0  0  0
  -21.9190   -4.6963   22.3395 C   0  0  0  0  0  0
  -22.7833  -13.5220   21.1850 C   0  0  0  0  0  0
  -22.1661   -4.2149   21.0973 F   0  0  0  0  0  0
  -21.5628   -3.4538   25.7733 F   0  0  0  0  0  0
  -29.9902  -13.5520   20.4232 N   0  0  0  0  0  0
  -26.2970  -12.9414   20.3322 N   0  0  0  0  0  0
  -25.9347  -11.6551   20.5769 N   0  0  0  0  0  0
  -22.0493  -12.8205   22.0418 N   0  0  0  0  0  0
  -25.4220  -15.1925   20.4142 N   0  0  0  0  0  0
  -31.7397  -14.9185   20.0738 O   0  0  0  0  0  0
  -21.6639   -6.8880   21.4236 O   0  0  0  0  0  0
  -22.3507  -14.5520   20.6697 O   0  0  0  0  0  0
  -24.6372  -31.8526   23.1980 C   0  0  0  0  0  0
  -25.9166  -32.4738   23.8348 C   0  0  1  0  0  0
  -27.2111  -27.2006   20.1262 C   0  0  0  0  0  0
  -25.5930  -33.8544   24.2251 N   0  0  0  0  0  0
  -23.4383  -30.4778   21.5440 C   0  0  2  0  0  0
  -24.8843  -28.9287   20.1093 C   0  0  0  0  0  0
  -22.7556  -29.4580   22.4891 C   0  0  0  0  0  0
  -18.0301  -28.1396   22.8484 C   0  0  0  0  0  0
  -24.1483  -36.7283   23.2646 C   0  0  0  0  0  0
  -25.9926  -30.7439   21.3945 C   0  0  0  0  0  0
  -26.0603  -29.3647   20.7313 C   0  0  0  0  0  0
  -27.2200  -28.5110   20.7356 C   0  0  0  0  0  0
  -26.0078  -26.8687   19.4546 C   0  0  0  0  0  0
  -24.8679  -27.6902   19.4616 C   0  0  0  0  0  0
  -23.6597  -29.8222   20.1584 C   0  0  0  0  0  0
  -25.4113  -36.3057   24.0323 C   0  0  1  0  0  0
  -20.5917  -28.3718   23.1246 C   0  0  2  0  0  0
  -20.6799  -26.9427   22.5408 C   0  0  0  0  0  0
  -19.5755  -26.6379   21.5228 C   0  0  0  0  0  0
  -18.1936  -26.7940   22.1634 C   0  0  0  0  0  0
  -19.1562  -28.8873   23.2863 C   0  0  0  0  0  0
  -18.9474  -30.1474   23.8879 C   0  0  0  0  0  0
  -17.6467  -30.6594   24.0564 C   0  0  0  0  0  0
  -25.9058  -34.9430   23.5094 C   0  0  0  0  0  0
  -16.5359  -29.9083   23.6338 C   0  0  0  0  0  0
  -16.7287  -28.6505   23.0354 C   0  0  0  0  0  0
  -26.4504  -31.6580   25.0766 C   0  0  0  0  0  0
  -25.3689  -31.3752   26.1460 C   0  0  0  0  0  0
  -27.0385  -30.2979   24.6334 C   0  0  0  0  0  0
  -27.6040  -32.4362   25.7530 C   0  0  0  0  0  0
  -27.5581  -37.1787   24.8465 C   0  0  0  0  0  0
  -21.4257  -29.3054   22.3631 N   0  0  0  0  0  0
  -26.4295  -37.3752   23.9408 N   0  0  0  0  0  0
  -24.7086  -31.0437   22.1005 N   0  0  0  0  0  0
  -23.4224  -28.8107   23.3006 O   0  0  0  0  0  0
  -28.2784  -26.2478   20.2384 O   0  0  0  0  0  0
  -26.5649  -34.8908   22.4674 O   0  0  0  0  0  0
  -23.5496  -32.1387   23.7207 O   0  0  0  0  0  0
  -30.1068  -21.3091   19.9653 C   0  0  0  0  0  0
  -28.1401  -21.2371   21.2814 C   0  0  0  0  0  0
  -29.2455  -20.4957   20.7593 C   0  0  0  0  0  0
  -29.8575  -22.7105   19.6829 C   0  0  0  0  0  0
  -27.8766  -22.6308   21.0138 C   0  0  0  0  0  0
  -28.7158  -23.4387   20.1804 C   0  0  0  0  0  0
  -30.8504  -23.4170   18.7778 C   0  0  0  0  0  0
  -26.6198  -23.2395   21.6146 C   0  0  0  0  0  0
  -29.5058  -18.9652   21.2354 C   0  0  0  0  0  0
  -28.2226  -24.8703   19.5820 C   0  0  0  0  0  0
  -29.8195  -16.1483   20.9984 C   0  0  0  0  0  0
  -30.0089  -17.6649   20.3673 C   0  0  0  0  0  0
  -31.4819  -12.6258   19.1794 H   0  0  0  0  0  0
  -30.4016  -11.5147   19.9698 H   0  0  0  0  0  0
  -29.8082  -11.7509   17.5349 H   0  0  0  0  0  0
  -29.6295  -13.4771   17.7299 H   0  0  0  0  0  0
  -27.9129  -11.2832   18.9311 H   0  0  0  0  0  0
  -27.3831  -12.5110   17.8126 H   0  0  0  0  0  0
  -27.6397  -14.2556   19.4751 H   0  0  0  0  0  0
  -28.7384  -12.1706   21.4214 H   0  0  0  0  0  0
  -28.4145  -13.8364   21.8133 H   0  0  0  0  0  0
  -25.2770   -9.5678   22.4756 H   0  0  0  0  0  0
  -23.9994   -7.4642   22.7487 H   0  0  0  0  0  0
  -21.0843   -8.8780   19.8958 H   0  0  0  0  0  0
  -22.3703  -10.9676   19.6166 H   0  0  0  0  0  0
  -21.2016   -7.6149   23.9704 H   0  0  0  0  0  0
  -21.1485   -6.0528   25.9069 H   0  0  0  0  0  0
  -22.0601   -2.7610   23.2838 H   0  0  0  0  0  0
  -22.4133  -11.9864   22.4785 H   0  0  0  0  0  0
  -21.1119  -13.1227   22.2657 H   0  0  0  0  0  0
  -24.6560  -15.8476   20.5272 H   0  0  0  0  0  0
  -26.2771  -15.6343   20.1016 H   0  0  0  0  0  0
  -26.7252  -32.5367   23.1108 H   0  0  0  0  0  0
  -25.0013  -33.9677   25.0350 H   0  0  0  0  0  0
  -22.7389  -31.3031   21.4002 H   0  0  0  0  0  0
  -23.3739  -35.9618   23.3296 H   0  0  0  0  0  0
  -24.3564  -36.8926   22.2063 H   0  0  0  0  0  0
  -23.7242  -37.6480   23.6687 H   0  0  0  0  0  0
  -26.1471  -31.5046   20.6279 H   0  0  0  0  0  0
  -26.8643  -30.7876   22.0361 H   0  0  0  0  0  0
  -28.1127  -28.8321   21.2539 H   0  0  0  0  0  0
  -25.8622  -25.9474   18.9211 H   0  0  0  0  0  0
  -23.9691  -27.3545   18.9610 H   0  0  0  0  0  0
  -23.7912  -30.6041   19.4088 H   0  0  0  0  0  0
  -22.7754  -29.2631   19.8469 H   0  0  0  0  0  0
  -25.1289  -36.1911   25.0815 H   0  0  0  0  0  0
  -21.0009  -28.3307   24.1368 H   0  0  0  0  0  0
  -20.5720  -26.2333   23.3627 H   0  0  0  0  0  0
  -21.6656  -26.7455   22.1187 H   0  0  0  0  0  0
  -19.6916  -25.6284   21.1272 H   0  0  0  0  0  0
  -19.6679  -27.3182   20.6747 H   0  0  0  0  0  0
  -17.4216  -26.6704   21.4028 H   0  0  0  0  0  0
  -18.0305  -26.0082   22.9023 H   0  0  0  0  0  0
  -19.7948  -30.7305   24.2229 H   0  0  0  0  0  0
  -17.5018  -31.6263   24.5185 H   0  0  0  0  0  0
  -15.5360  -30.2974   23.7671 H   0  0  0  0  0  0
  -15.8696  -28.0820   22.7068 H   0  0  0  0  0  0
  -24.5873  -30.7106   25.7762 H   0  0  0  0  0  0
  -24.8870  -32.2931   26.4840 H   0  0  0  0  0  0
  -25.7964  -30.8944   27.0268 H   0  0  0  0  0  0
  -26.3008  -29.6684   24.1354 H   0  0  0  0  0  0
  -27.4019  -29.7292   25.4904 H   0  0  0  0  0  0
  -27.8902  -30.4220   23.9644 H   0  0  0  0  0  0
  -27.2636  -33.3694   26.2028 H   0  0  0  0  0  0
  -28.3864  -32.6881   25.0359 H   0  0  0  0  0  0
  -28.0700  -31.8562   26.5502 H   0  0  0  0  0  0
  -28.2578  -38.0101   24.7516 H   0  0  0  0  0  0
  -28.1096  -36.2630   24.6284 H   0  0  0  0  0  0
  -27.2300  -37.1421   25.8869 H   0  0  0  0  0  0
  -20.9460  -29.8788   21.6836 H   0  0  0  0  0  0
  -26.0171  -38.2823   24.1408 H   0  0  0  0  0  0
  -30.9929  -20.8443   19.5557 H   0  0  0  0  0  0
  -27.4514  -20.7128   21.9301 H   0  0  0  0  0  0
  -31.8306  -22.9421   18.8256 H   0  0  0  0  0  0
  -30.9833  -24.4595   19.0681 H   0  0  0  0  0  0
  -30.5075  -23.3839   17.7436 H   0  0  0  0  0  0
  -26.2819  -22.6743   22.4838 H   0  0  0  0  0  0
  -25.8109  -23.2494   20.8841 H   0  0  0  0  0  0
  -26.8003  -24.2635   21.9423 H   0  0  0  0  0  0
  -28.5736  -18.6542   21.7075 H   0  0  0  0  0  0
  -30.2013  -19.0575   22.0701 H   0  0  0  0  0  0
  -27.2113  -24.6062   19.3118 H   0  0  0  0  0  0
  -28.7055  -25.0060   18.6154 H   0  0  0  0  0  0
  -28.7504  -15.9437   20.9866 H   0  0  0  0  0  0
  -30.0748  -16.2152   22.0561 H   0  0  0  0  0  0
  -31.0610  -17.8079   20.1146 H   0  0  0  0  0  0
  -29.4831  -17.6785   19.4124 H   0  0  0  0  0  0
  1 25  1  0  0  0
  1 30  2  0  0  0
  1 81  1  0  0  0
  2  3  1  0  0  0
  2 25  1  0  0  0
  2 83  1  0  0  0
  2 84  1  0  0  0
  3  4  1  0  0  0
  3 85  1  0  0  0
  3 86  1  0  0  0
  4  5  1  0  0  0
  4 87  1  0  0  0
  4 88  1  0  0  0
  5  6  1  0  0  0
  5 26  1  0  0  0
  5 89  1  0  0  0
  6 25  1  0  0  0
  6 90  1  0  0  0
  6 91  1  0  0  0
  7  8  2  0  0  0
  7 26  1  0  0  0
  7 29  1  0  0  0
  8  9  1  0  0  0
  8 22  1  0  0  0
  9 10  1  0  0  0
  9 27  2  0  0  0
 10 11  2  0  0  0
 10 15  1  0  0  0
 11 12  1  0  0  0
 11 92  1  0  0  0
 12 13  2  0  0  0
 12 93  1  0  0  0
 13 14  1  0  0  0
 13 31  1  0  0  0
 14 15  2  0  0  0
 14 94  1  0  0  0
 15 95  1  0  0  0
 16 17  2  0  0  0
 16 21  1  0  0  0
 16 31  1  0  0  0
 17 18  1  0  0  0
 17 96  1  0  0  0
 18 19  2  0  0  0
 18 97  1  0  0  0
 19 20  1  0  0  0
 19 24  1  0  0  0
 20 21  2  0  0  0
 20 98  1  0  0  0
 21 23  1  0  0  0
 22 28  1  0  0  0
 22 32  2  0  0  0
 26 27  1  0  0  0
 28 99  1  0  0  0
 28100  1  0  0  0
 29101  1  0  0  0
 29102  1  0  0  0
 33 34  1  0  0  0
 33 66  1  0  0  0
 33 70  2  0  0  0
 34 36  1  0  0  0
 34 59  1  0  0  0
 34103  1  0  0  0
 35 44  2  0  0  0
 35 45  1  0  0  0
 35 68  1  0  0  0
 36 56  1  0  0  0
 36104  1  0  0  0
 37 39  1  0  0  0
 37 47  1  0  0  0
 37 66  1  0  0  0
 37105  1  0  0  0
 38 43  2  0  0  0
 38 46  1  0  0  0
 38 47  1  0  0  0
 39 64  1  0  0  0
 39 67  2  0  0  0
 40 52  1  0  0  0
 40 53  2  0  0  0
 40 58  1  0  0  0
 41106  1  0  0  0
 41107  1  0  0  0
 41108  1  0  0  0
 41 48  1  0  0  0
 42 43  1  0  0  0
 42 66  1  0  0  0
 42109  1  0  0  0
 42110  1  0  0  0
 43 44  1  0  0  0
 44111  1  0  0  0
 45 46  2  0  0  0
 45112  1  0  0  0
 46113  1  0  0  0
 47114  1  0  0  0
 47115  1  0  0  0
 48 56  1  0  0  0
 48 65  1  0  0  0
 48116  1  0  0  0
 49 50  1  0  0  0
 49 53  1  0  0  0
 49 64  1  0  0  0
 49117  1  0  0  0
 50 51  1  0  0  0
 50118  1  0  0  0
 50119  1  0  0  0
 51 52  1  0  0  0
 51120  1  0  0  0
 51121  1  0  0  0
 52122  1  0  0  0
 52123  1  0  0  0
 53 54  1  0  0  0
 54 55  2  0  0  0
 54124  1  0  0  0
 55 57  1  0  0  0
 55125  1  0  0  0
 56 69  2  0  0  0
 57 58  2  0  0  0
 57126  1  0  0  0
 58127  1  0  0  0
 59 60  1  0  0  0
 59 61  1  0  0  0
 59 62  1  0  0  0
 60128  1  0  0  0
 60129  1  0  0  0
 60130  1  0  0  0
 61131  1  0  0  0
 61132  1  0  0  0
 61133  1  0  0  0
 62134  1  0  0  0
 62135  1  0  0  0
 62136  1  0  0  0
 63 65  1  0  0  0
 63137  1  0  0  0
 63138  1  0  0  0
 63139  1  0  0  0
 64140  1  0  0  0
 65141  1  0  0  0
 68 80  1  0  0  0
 71 73  2  0  0  0
 71 74  1  0  0  0
 71142  1  0  0  0
 72 73  1  0  0  0
 72 75  2  0  0  0
 72143  1  0  0  0
 73 79  1  0  0  0
 74 76  2  0  0  0
 74 77  1  0  0  0
 75 76  1  0  0  0
 75 78  1  0  0  0
 76 80  1  0  0  0
 77144  1  0  0  0
 77145  1  0  0  0
 77146  1  0  0  0
 78147  1  0  0  0
 78148  1  0  0  0
 78149  1  0  0  0
 79 82  1  0  0  0
 79150  1  0  0  0
 79151  1  0  0  0
 80152  1  0  0  0
 80153  1  0  0  0
 81 82  1  0  0  0
 81154  1  0  0  0
 81155  1  0  0  0
 82156  1  0  0  0
 82157  1  0  0  0
M  ISO  4   1 100  68 101  80 101  81 100
M  END
> <chiral flag>
0

> <version>
0

> <s_m_source_file>
/data/baiqing/PycharmProjects/Reinvent-master-3.2/result/LINK_invent/BTK/process_docking_weight1_custom_sum_contain_oxygen_bond_distance_aromatic_linkinvent_7_9_3/rearranged_h_0038.sdf

> <i_m_source_file_index>
44

> <r_mmod_Potential_Energy-OPLS-2005>
350.417633056641

> <r_mmod_Stretch_Energy-OPLS-2005>
171.396484375

> <r_mmod_Bend_Energy-OPLS-2005>
226.962387084961

> <r_mmod_Torsional_Energy-OPLS-2005>
190.996231079102

> <r_mmod_Improper_Torsional_Energy-OPLS-2005>
5.55408668518066

> <r_mmod_Van_der_Waal_Energy-OPLS-2005>
141.356536865234

> <r_mmod_Electrostatic_Energy-OPLS-2005>
-314.932983398438

> <r_mmod_Solvation_Energy-OPLS-2005>
-190.938369750977

> <b_mmod_Minimization_Converged-OPLS-2005>
0

> <r_mmod_RMS_Derivative-OPLS-2005>
1.54265201091766

$$$$
45
                    3D
 Structure written by MMmdl.
162170  0  0  1  0            999 V2000
  -30.6971  -14.5887   20.5215 C   0  0  0  0  0  0
  -30.4195  -12.3703   19.4492 C   0  0  0  0  0  0
  -29.4969  -12.4972   18.2197 C   0  0  0  0  0  0
  -28.0219  -12.3445   18.6359 C   0  0  0  0  0  0
  -27.6502  -13.2239   19.8600 C   0  0  2  0  0  0
  -28.6962  -13.1008   20.9908 C   0  0  0  0  0  0
  -25.2537  -13.8194   20.5697 C   0  0  0  0  0  0
  -24.1814  -13.0446   20.9199 C   0  0  0  0  0  0
  -24.6396  -11.6922   20.8747 C   0  0  0  0  0  0
  -23.9068  -10.4295   21.0407 C   0  0  0  0  0  0
  -24.3617   -9.4210   21.9183 C   0  0  0  0  0  0
  -23.6294   -8.2245   22.0753 C   0  0  0  0  0  0
  -22.4277   -8.0281   21.3541 C   0  0  0  0  0  0
  -21.9915   -9.0255   20.4643 C   0  0  0  0  0  0
  -22.7242  -10.2135   20.3054 C   0  0  0  0  0  0
  -21.6852   -6.0737   22.5277 C   0  0  0  0  0  0
  -21.4017   -6.5638   23.8210 C   0  0  0  0  0  0
  -21.3661   -5.6791   24.9174 C   0  0  0  0  0  0
  -21.6044   -4.3055   24.7227 C   0  0  0  0  0  0
  -21.8817   -3.8148   23.4345 C   0  0  0  0  0  0
  -21.9193   -4.6965   22.3402 C   0  0  0  0  0  0
  -22.7835  -13.5226   21.1867 C   0  0  0  0  0  0
  -22.1659   -4.2151   21.0981 F   0  0  0  0  0  0
  -21.5632   -3.4539   25.7739 F   0  0  0  0  0  0
  -30.0133  -13.4089   20.4164 N   0  0  0  0  0  0
  -26.2978  -12.9395   20.3331 N   0  0  0  0  0  0
  -25.9327  -11.6539   20.5773 N   0  0  0  0  0  0
  -22.0486  -12.8204   22.0422 N   0  0  0  0  0  0
  -25.4236  -15.1920   20.4114 N   0  0  0  0  0  0
  -31.8644  -14.6862   20.1374 O   0  0  0  0  0  0
  -21.6639   -6.8880   21.4237 O   0  0  0  0  0  0
  -22.3515  -14.5535   20.6724 O   0  0  0  0  0  0
  -24.6268  -31.8644   23.2082 C   0  0  0  0  0  0
  -25.9126  -32.4800   23.8392 C   0  0  1  0  0  0
  -27.2054  -27.3251   20.0951 C   0  0  0  0  0  0
  -25.5947  -33.8600   24.2309 N   0  0  0  0  0  0
  -23.4176  -30.4962   21.5523 C   0  0  2  0  0  0
  -24.8592  -28.9695   20.1087 C   0  0  0  0  0  0
  -22.7477  -29.4656   22.4937 C   0  0  0  0  0  0
  -18.0288  -28.1385   22.8488 C   0  0  0  0  0  0
  -24.1495  -36.7299   23.2635 C   0  0  0  0  0  0
  -25.9641  -30.7932   21.3859 C   0  0  0  0  0  0
  -26.0331  -29.4261   20.7212 C   0  0  0  0  0  0
  -27.2083  -28.6127   20.7155 C   0  0  0  0  0  0
  -26.0042  -26.9497   19.4345 C   0  0  0  0  0  0
  -24.8465  -27.7343   19.4595 C   0  0  0  0  0  0
  -23.6300  -29.8481   20.1632 C   0  0  0  0  0  0
  -25.4116  -36.3091   24.0330 C   0  0  1  0  0  0
  -20.5890  -28.3695   23.1276 C   0  0  2  0  0  0
  -20.6782  -26.9418   22.5396 C   0  0  0  0  0  0
  -19.5749  -26.6382   21.5209 C   0  0  0  0  0  0
  -18.1929  -26.7929   22.1621 C   0  0  0  0  0  0
  -19.1542  -28.8854   23.2877 C   0  0  0  0  0  0
  -18.9467  -30.1456   23.8899 C   0  0  0  0  0  0
  -17.6467  -30.6592   24.0564 C   0  0  0  0  0  0
  -25.9054  -34.9462   23.5110 C   0  0  0  0  0  0
  -16.5357  -29.9089   23.6334 C   0  0  0  0  0  0
  -16.7277  -28.6505   23.0358 C   0  0  0  0  0  0
  -26.4504  -31.6601   25.0756 C   0  0  0  0  0  0
  -25.3728  -31.3736   26.1472 C   0  0  0  0  0  0
  -27.0355  -30.3027   24.6211 C   0  0  0  0  0  0
  -27.6058  -32.4349   25.7523 C   0  0  0  0  0  0
  -27.5585  -37.1800   24.8461 C   0  0  0  0  0  0
  -21.4189  -29.3066   22.3681 N   0  0  0  0  0  0
  -26.4293  -37.3786   23.9412 N   0  0  0  0  0  0
  -24.6885  -31.0666   22.1047 N   0  0  0  0  0  0
  -23.4207  -28.8169   23.2991 O   0  0  0  0  0  0
  -28.2922  -26.4267   20.1624 O   0  0  0  0  0  0
  -26.5605  -34.8926   22.4665 O   0  0  0  0  0  0
  -23.5430  -32.1447   23.7405 O   0  0  0  0  0  0
  -29.8162  -22.1645   21.6652 C   0  0  0  0  0  0
  -29.3554  -21.3949   19.4373 C   0  0  0  0  0  0
  -29.8303  -21.0970   20.7292 C   0  0  0  0  0  0
  -29.3122  -23.4616   21.3453 C   0  0  0  0  0  0
  -28.8562  -22.6828   19.0929 C   0  0  0  0  0  0
  -28.8090  -23.7557   20.0469 C   0  0  0  0  0  0
  -29.2817  -24.5233   22.4306 C   0  0  0  0  0  0
  -26.8191  -22.6349   17.5616 C   0  0  0  0  0  0
  -30.4686  -19.7146   21.0785 C   0  0  0  0  0  0
  -28.3379  -22.8343   17.6650 C   0  0  0  0  0  0
  -27.9728  -25.0486   19.7325 C   0  0  0  0  0  0
  -29.7282  -18.3520   20.7580 C   0  0  0  0  0  0
  -30.6029  -17.0725   21.0863 C   0  0  0  0  0  0
  -30.0099  -15.7049   20.9051 N   0  0  0  0  0  0
  -31.4637  -12.4629   19.1462 H   0  0  0  0  0  0
  -30.3275  -11.3808   19.8994 H   0  0  0  0  0  0
  -29.7542  -11.7424   17.4753 H   0  0  0  0  0  0
  -29.6466  -13.4656   17.7393 H   0  0  0  0  0  0
  -27.8563  -11.2931   18.8737 H   0  0  0  0  0  0
  -27.3656  -12.5712   17.7948 H   0  0  0  0  0  0
  -27.6643  -14.2567   19.5109 H   0  0  0  0  0  0
  -28.6973  -12.0930   21.4082 H   0  0  0  0  0  0
  -28.4526  -13.7689   21.8181 H   0  0  0  0  0  0
  -25.2761   -9.5688   22.4758 H   0  0  0  0  0  0
  -24.0005   -7.4638   22.7471 H   0  0  0  0  0  0
  -21.0850   -8.8770   19.8945 H   0  0  0  0  0  0
  -22.3698  -10.9673   19.6164 H   0  0  0  0  0  0
  -21.2003   -7.6145   23.9717 H   0  0  0  0  0  0
  -21.1489   -6.0521   25.9077 H   0  0  0  0  0  0
  -22.0594   -2.7610   23.2848 H   0  0  0  0  0  0
  -22.4105  -11.9852   22.4783 H   0  0  0  0  0  0
  -21.1110  -13.1226   22.2656 H   0  0  0  0  0  0
  -24.6567  -15.8463   20.5216 H   0  0  0  0  0  0
  -26.2735  -15.6318   20.0819 H   0  0  0  0  0  0
  -26.7189  -32.5475   23.1133 H   0  0  0  0  0  0
  -25.0138  -33.9757   25.0482 H   0  0  0  0  0  0
  -22.7108  -31.3179   21.4166 H   0  0  0  0  0  0
  -23.3765  -35.9622   23.3288 H   0  0  0  0  0  0
  -24.3590  -36.8926   22.2050 H   0  0  0  0  0  0
  -23.7241  -37.6496   23.6665 H   0  0  0  0  0  0
  -26.1029  -31.5601   20.6227 H   0  0  0  0  0  0
  -26.8421  -30.8323   22.0185 H   0  0  0  0  0  0
  -28.1024  -28.9513   21.2203 H   0  0  0  0  0  0
  -25.8904  -26.0271   18.8884 H   0  0  0  0  0  0
  -23.9514  -27.3838   18.9649 H   0  0  0  0  0  0
  -23.7499  -30.6318   19.4142 H   0  0  0  0  0  0
  -22.7479  -29.2828   19.8568 H   0  0  0  0  0  0
  -25.1291  -36.1936   25.0822 H   0  0  0  0  0  0
  -20.9980  -28.3260   24.1397 H   0  0  0  0  0  0
  -20.5696  -26.2303   23.3595 H   0  0  0  0  0  0
  -21.6648  -26.7454   22.1181 H   0  0  0  0  0  0
  -19.6916  -25.6291   21.1243 H   0  0  0  0  0  0
  -19.6686  -27.3189   20.6736 H   0  0  0  0  0  0
  -17.4198  -26.6687   21.4024 H   0  0  0  0  0  0
  -18.0327  -26.0063   22.9010 H   0  0  0  0  0  0
  -19.7942  -30.7269   24.2267 H   0  0  0  0  0  0
  -17.5025  -31.6275   24.5157 H   0  0  0  0  0  0
  -15.5360  -30.2993   23.7662 H   0  0  0  0  0  0
  -15.8674  -28.0827   22.7076 H   0  0  0  0  0  0
  -24.5914  -30.7072   25.7799 H   0  0  0  0  0  0
  -24.8910  -32.2902   26.4885 H   0  0  0  0  0  0
  -25.8045  -30.8924   27.0256 H   0  0  0  0  0  0
  -26.2941  -29.6776   24.1220 H   0  0  0  0  0  0
  -27.4044  -29.7278   25.4714 H   0  0  0  0  0  0
  -27.8814  -30.4324   23.9456 H   0  0  0  0  0  0
  -27.2665  -33.3656   26.2081 H   0  0  0  0  0  0
  -28.3871  -32.6898   25.0352 H   0  0  0  0  0  0
  -28.0723  -31.8494   26.5453 H   0  0  0  0  0  0
  -28.2574  -38.0125   24.7542 H   0  0  0  0  0  0
  -28.1114  -36.2655   24.6246 H   0  0  0  0  0  0
  -27.2310  -37.1391   25.8866 H   0  0  0  0  0  0
  -20.9348  -29.8831   21.6941 H   0  0  0  0  0  0
  -26.0173  -38.2858   24.1430 H   0  0  0  0  0  0
  -30.1997  -21.9832   22.6601 H   0  0  0  0  0  0
  -29.3742  -20.6142   18.6894 H   0  0  0  0  0  0
  -29.6984  -24.1534   23.3673 H   0  0  0  0  0  0
  -28.2591  -24.8487   22.6252 H   0  0  0  0  0  0
  -29.8673  -25.3922   22.1287 H   0  0  0  0  0  0
  -26.4856  -22.7408   16.5290 H   0  0  0  0  0  0
  -26.2677  -23.3583   18.1614 H   0  0  0  0  0  0
  -26.5326  -21.6383   17.8985 H   0  0  0  0  0  0
  -30.7088  -19.7210   22.1426 H   0  0  0  0  0  0
  -31.4362  -19.6960   20.5749 H   0  0  0  0  0  0
  -28.8268  -22.0951   17.0291 H   0  0  0  0  0  0
  -28.6431  -23.7898   17.2403 H   0  0  0  0  0  0
  -27.0169  -24.7664   20.1766 H   0  0  0  0  0  0
  -27.8247  -25.1227   18.6602 H   0  0  0  0  0  0
  -29.4550  -18.3313   19.7023 H   0  0  0  0  0  0
  -28.7936  -18.3121   21.3184 H   0  0  0  0  0  0
  -30.9259  -17.1335   22.1265 H   0  0  0  0  0  0
  -31.5199  -17.1464   20.4991 H   0  0  0  0  0  0
  -29.0383  -15.5793   21.1484 H   0  0  0  0  0  0
  1 25  1  0  0  0
  1 30  2  0  0  0
  1 84  1  0  0  0
  2  3  1  0  0  0
  2 25  1  0  0  0
  2 85  1  0  0  0
  2 86  1  0  0  0
  3  4  1  0  0  0
  3 87  1  0  0  0
  3 88  1  0  0  0
  4  5  1  0  0  0
  4 89  1  0  0  0
  4 90  1  0  0  0
  5  6  1  0  0  0
  5 26  1  0  0  0
  5 91  1  0  0  0
  6 25  1  0  0  0
  6 92  1  0  0  0
  6 93  1  0  0  0
  7  8  2  0  0  0
  7 26  1  0  0  0
  7 29  1  0  0  0
  8  9  1  0  0  0
  8 22  1  0  0  0
  9 10  1  0  0  0
  9 27  2  0  0  0
 10 11  2  0  0  0
 10 15  1  0  0  0
 11 12  1  0  0  0
 11 94  1  0  0  0
 12 13  2  0  0  0
 12 95  1  0  0  0
 13 14  1  0  0  0
 13 31  1  0  0  0
 14 15  2  0  0  0
 14 96  1  0  0  0
 15 97  1  0  0  0
 16 17  2  0  0  0
 16 21  1  0  0  0
 16 31  1  0  0  0
 17 18  1  0  0  0
 17 98  1  0  0  0
 18 19  2  0  0  0
 18 99  1  0  0  0
 19 20  1  0  0  0
 19 24  1  0  0  0
 20 21  2  0  0  0
 20100  1  0  0  0
 21 23  1  0  0  0
 22 28  1  0  0  0
 22 32  2  0  0  0
 26 27  1  0  0  0
 28101  1  0  0  0
 28102  1  0  0  0
 29103  1  0  0  0
 29104  1  0  0  0
 33 34  1  0  0  0
 33 66  1  0  0  0
 33 70  2  0  0  0
 34 36  1  0  0  0
 34 59  1  0  0  0
 34105  1  0  0  0
 35 44  2  0  0  0
 35 45  1  0  0  0
 35 68  1  0  0  0
 36 56  1  0  0  0
 36106  1  0  0  0
 37 39  1  0  0  0
 37 47  1  0  0  0
 37 66  1  0  0  0
 37107  1  0  0  0
 38 43  2  0  0  0
 38 46  1  0  0  0
 38 47  1  0  0  0
 39 64  1  0  0  0
 39 67  2  0  0  0
 40 52  1  0  0  0
 40 53  2  0  0  0
 40 58  1  0  0  0
 41108  1  0  0  0
 41109  1  0  0  0
 41110  1  0  0  0
 41 48  1  0  0  0
 42 43  1  0  0  0
 42 66  1  0  0  0
 42111  1  0  0  0
 42112  1  0  0  0
 43 44  1  0  0  0
 44113  1  0  0  0
 45 46  2  0  0  0
 45114  1  0  0  0
 46115  1  0  0  0
 47116  1  0  0  0
 47117  1  0  0  0
 48 56  1  0  0  0
 48 65  1  0  0  0
 48118  1  0  0  0
 49 50  1  0  0  0
 49 53  1  0  0  0
 49 64  1  0  0  0
 49119  1  0  0  0
 50 51  1  0  0  0
 50120  1  0  0  0
 50121  1  0  0  0
 51 52  1  0  0  0
 51122  1  0  0  0
 51123  1  0  0  0
 52124  1  0  0  0
 52125  1  0  0  0
 53 54  1  0  0  0
 54 55  2  0  0  0
 54126  1  0  0  0
 55 57  1  0  0  0
 55127  1  0  0  0
 56 69  2  0  0  0
 57 58  2  0  0  0
 57128  1  0  0  0
 58129  1  0  0  0
 59 60  1  0  0  0
 59 61  1  0  0  0
 59 62  1  0  0  0
 60130  1  0  0  0
 60131  1  0  0  0
 60132  1  0  0  0
 61133  1  0  0  0
 61134  1  0  0  0
 61135  1  0  0  0
 62136  1  0  0  0
 62137  1  0  0  0
 62138  1  0  0  0
 63 65  1  0  0  0
 63139  1  0  0  0
 63140  1  0  0  0
 63141  1  0  0  0
 64142  1  0  0  0
 65143  1  0  0  0
 68 81  1  0  0  0
 71 73  2  0  0  0
 71 74  1  0  0  0
 71144  1  0  0  0
 72 73  1  0  0  0
 72 75  2  0  0  0
 72145  1  0  0  0
 73 79  1  0  0  0
 74 76  2  0  0  0
 74 77  1  0  0  0
 75 76  1  0  0  0
 75 80  1  0  0  0
 76 81  1  0  0  0
 77146  1  0  0  0
 77147  1  0  0  0
 77148  1  0  0  0
 78 80  1  0  0  0
 78149  1  0  0  0
 78150  1  0  0  0
 78151  1  0  0  0
 79 82  1  0  0  0
 79152  1  0  0  0
 79153  1  0  0  0
 80154  1  0  0  0
 80155  1  0  0  0
 81156  1  0  0  0
 81157  1  0  0  0
 82 83  1  0  0  0
 82158  1  0  0  0
 82159  1  0  0  0
 83 84  1  0  0  0
 83160  1  0  0  0
 83161  1  0  0  0
 84162  1  0  0  0
M  ISO  4   1 100  68 101  81 101  84 100
M  END
> <chiral flag>
0

> <version>
0

> <s_m_source_file>
/data/baiqing/PycharmProjects/Reinvent-master-3.2/result/LINK_invent/BTK/process_docking_weight1_custom_sum_contain_oxygen_bond_distance_aromatic_linkinvent_7_9_3/rearranged_h_0038.sdf

> <i_m_source_file_index>
45

> <r_mmod_Potential_Energy-OPLS-2005>
72.0172958374023

> <r_mmod_Stretch_Energy-OPLS-2005>
73.4119873046875

> <r_mmod_Bend_Energy-OPLS-2005>
144.299758911133

> <r_mmod_Torsional_Energy-OPLS-2005>
206.849472045898

> <r_mmod_Improper_Torsional_Energy-OPLS-2005>
5.66824197769165

> <r_mmod_Van_der_Waal_Energy-OPLS-2005>
161.806869506836

> <r_mmod_Electrostatic_Energy-OPLS-2005>
-364.178558349609

> <r_mmod_Solvation_Energy-OPLS-2005>
-203.184921264648

> <b_mmod_Minimization_Converged-OPLS-2005>
0

> <r_mmod_RMS_Derivative-OPLS-2005>
0.887065768241882

$$$$
46
                    3D
 Structure written by MMmdl.
169177  0  0  1  0            999 V2000
  -30.4100  -14.9846   20.5837 C   0  0  0  0  0  0
  -30.4513  -12.6457   19.5319 C   0  0  0  0  0  0
  -29.5379  -12.5474   18.2807 C   0  0  0  0  0  0
  -28.0690  -12.3022   18.6784 C   0  0  0  0  0  0
  -27.6160  -13.2421   19.8304 C   0  0  2  0  0  0
  -28.6257  -13.2258   20.9896 C   0  0  0  0  0  0
  -25.2343  -13.8180   20.5635 C   0  0  0  0  0  0
  -24.1668  -13.0425   20.9224 C   0  0  0  0  0  0
  -24.6268  -11.6915   20.8737 C   0  0  0  0  0  0
  -23.8999  -10.4274   21.0400 C   0  0  0  0  0  0
  -24.3560   -9.4208   21.9181 C   0  0  0  0  0  0
  -23.6254   -8.2237   22.0757 C   0  0  0  0  0  0
  -22.4237   -8.0257   21.3553 C   0  0  0  0  0  0
  -21.9846   -9.0222   20.4656 C   0  0  0  0  0  0
  -22.7174  -10.2102   20.3057 C   0  0  0  0  0  0
  -21.6829   -6.0732   22.5302 C   0  0  0  0  0  0
  -21.4024   -6.5641   23.8239 C   0  0  0  0  0  0
  -21.3650   -5.6781   24.9193 C   0  0  0  0  0  0
  -21.6028   -4.3044   24.7239 C   0  0  0  0  0  0
  -21.8817   -3.8148   23.4359 C   0  0  0  0  0  0
  -21.9190   -4.6967   22.3422 C   0  0  0  0  0  0
  -22.7705  -13.5214   21.1929 C   0  0  0  0  0  0
  -22.1648   -4.2134   21.0999 F   0  0  0  0  0  0
  -21.5612   -3.4537   25.7758 F   0  0  0  0  0  0
  -29.8931  -13.6969   20.4395 N   0  0  0  0  0  0
  -26.2717  -12.9387   20.3084 N   0  0  0  0  0  0
  -25.9168  -11.6534   20.5641 N   0  0  0  0  0  0
  -22.0291  -12.8229   22.0481 N   0  0  0  0  0  0
  -25.4031  -15.1922   20.4126 N   0  0  0  0  0  0
  -31.6126  -15.1217   20.3173 O   0  0  0  0  0  0
  -21.6618   -6.8848   21.4250 O   0  0  0  0  0  0
  -22.3401  -14.5512   20.6761 O   0  0  0  0  0  0
  -24.5464  -32.0318   23.4903 C   0  0  0  0  0  0
  -25.8401  -32.6184   24.1359 C   0  0  1  0  0  0
  -27.5041  -27.1065   19.6058 C   0  0  0  0  0  0
  -25.5599  -34.0078   24.4378 N   0  0  0  0  0  0
  -23.3635  -30.3404   21.7119 C   0  0  2  0  0  0
  -25.0046  -28.4406   19.4817 C   0  0  0  0  0  0
  -22.6274  -29.5144   22.7185 C   0  0  0  0  0  0
  -18.0072  -28.1191   22.8535 C   0  0  0  0  0  0
  -24.1450  -36.7976   23.2400 C   0  0  0  0  0  0
  -26.3762  -31.1384   21.9696 C   0  0  0  0  0  0
  -26.4971  -29.0252   19.7561 C   0  0  0  0  0  0
  -27.5563  -28.3856   19.2302 C   0  0  0  0  0  0
  -26.2839  -26.4329   19.3168 C   0  0  0  0  0  0
  -25.0403  -27.1091   19.1440 C   0  0  0  0  0  0
  -23.4769  -29.1235   20.2313 C   0  0  0  0  0  0
  -25.3901  -36.4057   24.0483 C   0  0  1  0  0  0
  -20.5405  -28.3203   23.1760 C   0  0  2  0  0  0
  -20.6520  -26.9102   22.5495 C   0  0  0  0  0  0
  -19.5575  -26.6313   21.5187 C   0  0  0  0  0  0
  -18.1819  -26.7727   22.1718 C   0  0  0  0  0  0
  -19.1243  -28.8567   23.3098 C   0  0  0  0  0  0
  -18.9255  -30.1290   23.8915 C   0  0  0  0  0  0
  -17.6300  -30.6469   24.0450 C   0  0  0  0  0  0
  -25.8564  -35.0185   23.6011 C   0  0  0  0  0  0
  -16.5191  -29.8957   23.6217 C   0  0  0  0  0  0
  -16.7098  -28.6372   23.0242 C   0  0  0  0  0  0
  -26.4037  -31.7348   25.3103 C   0  0  0  0  0  0
  -25.3234  -31.4558   26.3548 C   0  0  0  0  0  0
  -26.9591  -30.3303   24.9320 C   0  0  0  0  0  0
  -27.5936  -32.4830   25.9380 C   0  0  0  0  0  0
  -27.5623  -37.2193   24.8458 C   0  0  0  0  0  0
  -21.3569  -29.2631   22.4432 N   0  0  0  0  0  0
  -26.4405  -37.4369   23.9317 N   0  0  0  0  0  0
  -24.7014  -31.2323   22.4667 N   0  0  0  0  0  0
  -23.2292  -29.0026   23.6587 O   0  0  0  0  0  0
  -28.6945  -26.6109   20.0786 O   0  0  0  0  0  0
  -26.4814  -34.8929   22.5383 O   0  0  0  0  0  0
  -23.4306  -32.2758   23.9328 O   0  0  0  0  0  0
  -27.1537  -28.9181   22.0858 C   0  0  0  0  0  0
  -27.9477  -30.9399   20.1662 C   0  0  0  0  0  0
  -28.2776  -29.7732   21.2948 C   0  0  0  0  0  0
  -25.5573  -29.0950   21.7470 C   0  0  0  0  0  0
  -29.6062  -28.9870   21.2349 C   0  0  0  0  0  0
  -25.0949  -27.4642   22.0959 C   0  0  0  0  0  0
  -26.1299  -26.0768   22.2870 C   0  0  0  0  0  0
  -26.0007  -24.4269   21.8628 C   0  0  0  0  0  0
  -27.1833  -23.2187   22.0676 C   0  0  0  0  0  0
  -27.3334  -21.7177   21.2649 C   0  0  0  0  0  0
  -28.3194  -20.3927   21.7034 C   0  0  0  0  0  0
  -28.4943  -18.8794   20.9153 C   0  0  0  0  0  0
  -29.6408  -17.6462   21.2446 C   0  0  0  0  0  0
  -29.4665  -27.3854   21.0970 C   0  0  0  0  0  0
  -26.5129  -31.3841   19.6342 N   0  0  0  0  0  0
  -25.2045  -30.7001   20.2248 N   0  0  0  0  0  0
  -29.5289  -16.0896   20.8767 N   0  0  0  0  0  0
  -31.4732  -12.8900   19.2318 H   0  0  0  0  0  0
  -30.5114  -11.6892   20.0520 H   0  0  0  0  0  0
  -29.8863  -11.7546   17.6124 H   0  0  0  0  0  0
  -29.6022  -13.4830   17.7191 H   0  0  0  0  0  0
  -27.9824  -11.2627   18.9963 H   0  0  0  0  0  0
  -27.4140  -12.4141   17.8129 H   0  0  0  0  0  0
  -27.5896  -14.2513   19.4130 H   0  0  0  0  0  0
  -28.7036  -12.2200   21.4113 H   0  0  0  0  0  0
  -28.2920  -13.8766   21.8007 H   0  0  0  0  0  0
  -25.2680   -9.5693   22.4780 H   0  0  0  0  0  0
  -23.9936   -7.4622   22.7486 H   0  0  0  0  0  0
  -21.0761   -8.8742   19.8977 H   0  0  0  0  0  0
  -22.3609  -10.9621   19.6167 H   0  0  0  0  0  0
  -21.2039   -7.6148   23.9744 H   0  0  0  0  0  0
  -21.1452   -6.0514   25.9089 H   0  0  0  0  0  0
  -22.0599   -2.7605   23.2883 H   0  0  0  0  0  0
  -22.3853  -11.9903   22.4891 H   0  0  0  0  0  0
  -21.0912  -13.1310   22.2679 H   0  0  0  0  0  0
  -24.6357  -15.8416   20.5491 H   0  0  0  0  0  0
  -26.2430  -15.6372   20.0687 H   0  0  0  0  0  0
  -26.7316  -32.8051   23.5652 H   0  0  0  0  0  0
  -25.0460  -34.2054   25.2839 H   0  0  0  0  0  0
  -22.6666  -31.1221   21.4057 H   0  0  0  0  0  0
  -23.3584  -36.0459   23.3390 H   0  0  0  0  0  0
  -24.3745  -36.9007   22.1773 H   0  0  0  0  0  0
  -23.7235  -37.7432   23.5842 H   0  0  0  0  0  0
  -26.5612  -32.1928   21.6997 H   0  0  0  0  0  0
  -27.1027  -31.1005   22.7521 H   0  0  0  0  0  0
  -28.5301  -28.8164   19.0790 H   0  0  0  0  0  0
  -26.3104  -25.3592   19.2623 H   0  0  0  0  0  0
  -24.1261  -26.5450   19.0257 H   0  0  0  0  0  0
  -23.0199  -29.6531   19.3922 H   0  0  0  0  0  0
  -22.7907  -28.2896   20.3855 H   0  0  0  0  0  0
  -25.0846  -36.3567   25.0953 H   0  0  0  0  0  0
  -20.9210  -28.2391   24.1993 H   0  0  0  0  0  0
  -20.5271  -26.1764   23.3465 H   0  0  0  0  0  0
  -21.6436  -26.7257   22.1351 H   0  0  0  0  0  0
  -19.6652  -25.6276   21.1078 H   0  0  0  0  0  0
  -19.6544  -27.3290   20.6856 H   0  0  0  0  0  0
  -17.4080  -26.6381   21.4144 H   0  0  0  0  0  0
  -18.0377  -25.9864   22.9176 H   0  0  0  0  0  0
  -19.7740  -30.7095   24.2247 H   0  0  0  0  0  0
  -17.4872  -31.6176   24.5006 H   0  0  0  0  0  0
  -15.5167  -30.2845   23.7461 H   0  0  0  0  0  0
  -15.8564  -28.0638   22.6884 H   0  0  0  0  0  0
  -24.5411  -30.7931   25.9822 H   0  0  0  0  0  0
  -24.8506  -32.3775   26.6878 H   0  0  0  0  0  0
  -25.7415  -30.9898   27.2470 H   0  0  0  0  0  0
  -26.2386  -29.7564   24.3562 H   0  0  0  0  0  0
  -27.1246  -29.7345   25.8285 H   0  0  0  0  0  0
  -27.9343  -30.3620   24.4435 H   0  0  0  0  0  0
  -27.3016  -33.4505   26.3469 H   0  0  0  0  0  0
  -28.3936  -32.6641   25.2197 H   0  0  0  0  0  0
  -28.0194  -31.9177   26.7671 H   0  0  0  0  0  0
  -28.2880  -38.0295   24.7448 H   0  0  0  0  0  0
  -28.0906  -36.2872   24.6369 H   0  0  0  0  0  0
  -27.2358  -37.2021   25.8887 H   0  0  0  0  0  0
  -20.9491  -29.6929   21.6240 H   0  0  0  0  0  0
  -26.0602  -38.3623   24.1122 H   0  0  0  0  0  0
  -27.4688  -28.1574   22.7786 H   0  0  0  0  0  0
  -28.7678  -31.3393   19.5902 H   0  0  0  0  0  0
  -30.1730  -29.2176   22.1397 H   0  0  0  0  0  0
  -30.2113  -29.3809   20.4186 H   0  0  0  0  0  0
  -24.1571  -27.1440   21.6480 H   0  0  0  0  0  0
  -24.8376  -27.5343   23.1459 H   0  0  0  0  0  0
  -26.3101  -26.0461   23.3640 H   0  0  0  0  0  0
  -27.1035  -26.3185   21.9162 H   0  0  0  0  0  0
  -25.6403  -24.3368   20.8487 H   0  0  0  0  0  0
  -25.1417  -24.0659   22.4213 H   0  0  0  0  0  0
  -27.1224  -22.9840   23.1327 H   0  0  0  0  0  0
  -28.1561  -23.7067   21.9549 H   0  0  0  0  0  0
  -27.6346  -21.9815   20.2479 H   0  0  0  0  0  0
  -26.3209  -21.3242   21.1476 H   0  0  0  0  0  0
  -27.9881  -20.1297   22.7125 H   0  0  0  0  0  0
  -29.3232  -20.7959   21.8494 H   0  0  0  0  0  0
  -28.6375  -19.1195   19.8595 H   0  0  0  0  0  0
  -27.5109  -18.4080   20.9490 H   0  0  0  0  0  0
  -29.7376  -17.6463   22.3316 H   0  0  0  0  0  0
  -30.6173  -17.9929   20.8897 H   0  0  0  0  0  0
  -29.1576  -27.0128   22.0720 H   0  0  0  0  0  0
  -30.4841  -27.0036   21.0238 H   0  0  0  0  0  0
  -28.5823  -15.7607   20.9839 H   0  0  0  0  0  0
  1 25  1  0  0  0
  1 30  2  0  0  0
  1 87  1  0  0  0
  2  3  1  0  0  0
  2 25  1  0  0  0
  2 88  1  0  0  0
  2 89  1  0  0  0
  3  4  1  0  0  0
  3 90  1  0  0  0
  3 91  1  0  0  0
  4  5  1  0  0  0
  4 92  1  0  0  0
  4 93  1  0  0  0
  5  6  1  0  0  0
  5 26  1  0  0  0
  5 94  1  0  0  0
  6 25  1  0  0  0
  6 95  1  0  0  0
  6 96  1  0  0  0
  7  8  2  0  0  0
  7 26  1  0  0  0
  7 29  1  0  0  0
  8  9  1  0  0  0
  8 22  1  0  0  0
  9 10  1  0  0  0
  9 27  2  0  0  0
 10 11  2  0  0  0
 10 15  1  0  0  0
 11 12  1  0  0  0
 11 97  1  0  0  0
 12 13  2  0  0  0
 12 98  1  0  0  0
 13 14  1  0  0  0
 13 31  1  0  0  0
 14 15  2  0  0  0
 14 99  1  0  0  0
 15100  1  0  0  0
 16 17  2  0  0  0
 16 21  1  0  0  0
 16 31  1  0  0  0
 17 18  1  0  0  0
 17101  1  0  0  0
 18 19  2  0  0  0
 18102  1  0  0  0
 19 20  1  0  0  0
 19 24  1  0  0  0
 20 21  2  0  0  0
 20103  1  0  0  0
 21 23  1  0  0  0
 22 28  1  0  0  0
 22 32  2  0  0  0
 26 27  1  0  0  0
 28104  1  0  0  0
 28105  1  0  0  0
 29106  1  0  0  0
 29107  1  0  0  0
 33 34  1  0  0  0
 33 66  1  0  0  0
 33 70  2  0  0  0
 34 36  1  0  0  0
 34 59  1  0  0  0
 34108  1  0  0  0
 35 44  2  0  0  0
 35 45  1  0  0  0
 35 68  1  0  0  0
 36 56  1  0  0  0
 36109  1  0  0  0
 37 39  1  0  0  0
 37 47  1  0  0  0
 37 66  1  0  0  0
 37110  1  0  0  0
 38 43  2  0  0  0
 38 46  1  0  0  0
 38 47  1  0  0  0
 39 64  1  0  0  0
 39 67  2  0  0  0
 40 52  1  0  0  0
 40 53  2  0  0  0
 40 58  1  0  0  0
 41111  1  0  0  0
 41112  1  0  0  0
 41113  1  0  0  0
 41 48  1  0  0  0
 42 43  1  0  0  0
 42 66  1  0  0  0
 42114  1  0  0  0
 42115  1  0  0  0
 43 44  1  0  0  0
 44116  1  0  0  0
 45 46  2  0  0  0
 45117  1  0  0  0
 46118  1  0  0  0
 47119  1  0  0  0
 47120  1  0  0  0
 48 56  1  0  0  0
 48 65  1  0  0  0
 48121  1  0  0  0
 49 50  1  0  0  0
 49 53  1  0  0  0
 49 64  1  0  0  0
 49122  1  0  0  0
 50 51  1  0  0  0
 50123  1  0  0  0
 50124  1  0  0  0
 51 52  1  0  0  0
 51125  1  0  0  0
 51126  1  0  0  0
 52127  1  0  0  0
 52128  1  0  0  0
 53 54  1  0  0  0
 54 55  2  0  0  0
 54129  1  0  0  0
 55 57  1  0  0  0
 55130  1  0  0  0
 56 69  2  0  0  0
 57 58  2  0  0  0
 57131  1  0  0  0
 58132  1  0  0  0
 59 60  1  0  0  0
 59 61  1  0  0  0
 59 62  1  0  0  0
 60133  1  0  0  0
 60134  1  0  0  0
 60135  1  0  0  0
 61136  1  0  0  0
 61137  1  0  0  0
 61138  1  0  0  0
 62139  1  0  0  0
 62140  1  0  0  0
 62141  1  0  0  0
 63 65  1  0  0  0
 63142  1  0  0  0
 63143  1  0  0  0
 63144  1  0  0  0
 64145  1  0  0  0
 65146  1  0  0  0
 68 84  1  0  0  0
 71 73  2  0  0  0
 71 74  1  0  0  0
 71147  1  0  0  0
 72 73  1  0  0  0
 72 85  2  0  0  0
 72148  1  0  0  0
 73 75  1  0  0  0
 74 76  1  0  0  0
 74 86  2  0  0  0
 75 84  1  0  0  0
 75149  1  0  0  0
 75150  1  0  0  0
 76 77  1  0  0  0
 76151  1  0  0  0
 76152  1  0  0  0
 77 78  1  0  0  0
 77153  1  0  0  0
 77154  1  0  0  0
 78 79  1  0  0  0
 78155  1  0  0  0
 78156  1  0  0  0
 79 80  1  0  0  0
 79157  1  0  0  0
 79158  1  0  0  0
 80 81  1  0  0  0
 80159  1  0  0  0
 80160  1  0  0  0
 81 82  1  0  0  0
 81161  1  0  0  0
 81162  1  0  0  0
 82 83  1  0  0  0
 82163  1  0  0  0
 82164  1  0  0  0
 83 87  1  0  0  0
 83165  1  0  0  0
 83166  1  0  0  0
 84167  1  0  0  0
 84168  1  0  0  0
 85 86  1  0  0  0
 87169  1  0  0  0
M  ISO  4   1 100  68 101  84 101  87 100
M  END
> <chiral flag>
0

> <version>
0

> <s_m_source_file>
/data/baiqing/PycharmProjects/Reinvent-master-3.2/result/LINK_invent/BTK/process_docking_weight1_custom_sum_contain_oxygen_bond_distance_aromatic_linkinvent_7_9_3/rearranged_h_0038.sdf

> <i_m_source_file_index>
46

> <r_mmod_Potential_Energy-OPLS-2005>
11553.1259765625

> <r_mmod_Stretch_Energy-OPLS-2005>
6608.71044921875

> <r_mmod_Bend_Energy-OPLS-2005>
679.142395019531

> <r_mmod_Torsional_Energy-OPLS-2005>
442.614837646484

> <r_mmod_Improper_Torsional_Energy-OPLS-2005>
43.1216430664062

> <r_mmod_Van_der_Waal_Energy-OPLS-2005>
3345.5068359375

> <r_mmod_Electrostatic_Energy-OPLS-2005>
-327.213195800781

> <r_mmod_Solvation_Energy-OPLS-2005>
-226.942901611328

> <b_mmod_Minimization_Converged-OPLS-2005>
0

> <r_mmod_RMS_Derivative-OPLS-2005>
12.2885885238647

$$$$
47
                    3D
 Structure written by MMmdl.
174182  0  0  1  0            999 V2000
  -30.7207  -14.4569   20.5202 C   0  0  0  0  0  0
  -30.4119  -12.2790   19.4361 C   0  0  0  0  0  0
  -29.4918  -12.4859   18.2122 C   0  0  0  0  0  0
  -28.0104  -12.3602   18.6199 C   0  0  0  0  0  0
  -27.6585  -13.2100   19.8698 C   0  0  2  0  0  0
  -28.7009  -13.0189   20.9979 C   0  0  0  0  0  0
  -25.2577  -13.8176   20.5679 C   0  0  0  0  0  0
  -24.1830  -13.0435   20.9180 C   0  0  0  0  0  0
  -24.6381  -11.6916   20.8728 C   0  0  0  0  0  0
  -23.9054  -10.4294   21.0419 C   0  0  0  0  0  0
  -24.3617   -9.4209   21.9196 C   0  0  0  0  0  0
  -23.6294   -8.2232   22.0748 C   0  0  0  0  0  0
  -22.4272   -8.0285   21.3538 C   0  0  0  0  0  0
  -21.9910   -9.0257   20.4623 C   0  0  0  0  0  0
  -22.7213  -10.2132   20.3052 C   0  0  0  0  0  0
  -21.6858   -6.0744   22.5274 C   0  0  0  0  0  0
  -21.3997   -6.5649   23.8202 C   0  0  0  0  0  0
  -21.3672   -5.6797   24.9180 C   0  0  0  0  0  0
  -21.6052   -4.3067   24.7222 C   0  0  0  0  0  0
  -21.8830   -3.8138   23.4336 C   0  0  0  0  0  0
  -21.9184   -4.6956   22.3394 C   0  0  0  0  0  0
  -22.7853  -13.5232   21.1842 C   0  0  0  0  0  0
  -22.1660   -4.2158   21.0974 F   0  0  0  0  0  0
  -21.5649   -3.4540   25.7728 F   0  0  0  0  0  0
  -30.0349  -13.2897   20.4387 N   0  0  0  0  0  0
  -26.2996  -12.9351   20.3343 N   0  0  0  0  0  0
  -25.9314  -11.6494   20.5782 N   0  0  0  0  0  0
  -22.0495  -12.8228   22.0408 N   0  0  0  0  0  0
  -25.4296  -15.1886   20.4090 N   0  0  0  0  0  0
  -31.8768  -14.5808   20.1221 O   0  0  0  0  0  0
  -21.6632   -6.8863   21.4232 O   0  0  0  0  0  0
  -22.3541  -14.5547   20.6711 O   0  0  0  0  0  0
  -24.6205  -31.8621   23.2043 C   0  0  0  0  0  0
  -25.9034  -32.4800   23.8388 C   0  0  1  0  0  0
  -27.2493  -27.4320   20.1267 C   0  0  0  0  0  0
  -25.5857  -33.8629   24.2338 N   0  0  0  0  0  0
  -23.4099  -30.4870   21.5411 C   0  0  2  0  0  0
  -24.8639  -28.9491   20.1096 C   0  0  0  0  0  0
  -22.7422  -29.4688   22.4916 C   0  0  0  0  0  0
  -18.0278  -28.1344   22.8540 C   0  0  0  0  0  0
  -24.1506  -36.7289   23.2639 C   0  0  0  0  0  0
  -25.9451  -30.8342   21.3434 C   0  0  0  0  0  0
  -26.0190  -29.4665   20.7048 C   0  0  0  0  0  0
  -27.2164  -28.7208   20.7039 C   0  0  0  0  0  0
  -26.0705  -26.9237   19.5223 C   0  0  0  0  0  0
  -24.8817  -27.6761   19.5131 C   0  0  0  0  0  0
  -23.6234  -29.8144   20.1599 C   0  0  0  0  0  0
  -25.4114  -36.3114   24.0352 C   0  0  1  0  0  0
  -20.5892  -28.3580   23.1324 C   0  0  2  0  0  0
  -20.6826  -26.9273   22.5440 C   0  0  0  0  0  0
  -19.5775  -26.6342   21.5199 C   0  0  0  0  0  0
  -18.1932  -26.7897   22.1636 C   0  0  0  0  0  0
  -19.1536  -28.8807   23.2943 C   0  0  0  0  0  0
  -18.9455  -30.1475   23.8889 C   0  0  0  0  0  0
  -17.6438  -30.6614   24.0552 C   0  0  0  0  0  0
  -25.9028  -34.9477   23.5161 C   0  0  0  0  0  0
  -16.5330  -29.9085   23.6329 C   0  0  0  0  0  0
  -16.7238  -28.6505   23.0341 C   0  0  0  0  0  0
  -26.4448  -31.6597   25.0767 C   0  0  0  0  0  0
  -25.3715  -31.3720   26.1499 C   0  0  0  0  0  0
  -27.0267  -30.3064   24.6098 C   0  0  0  0  0  0
  -27.6042  -32.4329   25.7488 C   0  0  0  0  0  0
  -27.5566  -37.1831   24.8470 C   0  0  0  0  0  0
  -21.4134  -29.3010   22.3685 N   0  0  0  0  0  0
  -26.4257  -37.3809   23.9399 N   0  0  0  0  0  0
  -24.6776  -31.0789   22.0849 N   0  0  0  0  0  0
  -23.4228  -28.8209   23.2919 O   0  0  0  0  0  0
  -28.4198  -26.6776   20.2073 O   0  0  0  0  0  0
  -26.5628  -34.8907   22.4760 O   0  0  0  0  0  0
  -23.5388  -32.1289   23.7482 O   0  0  0  0  0  0
  -30.0111  -24.9763   23.3760 C   0  0  0  0  0  0
  -30.2939  -22.3219   24.1805 C   0  0  0  0  0  0
  -30.3780  -24.6929   24.7075 C   0  0  0  0  0  0
  -29.7467  -23.9532   22.4327 C   0  0  0  0  0  0
  -30.5475  -23.3537   25.1026 C   0  0  0  0  0  0
  -29.8799  -22.5860   22.8495 C   0  0  0  0  0  0
  -30.5736  -25.8447   25.6879 C   0  0  0  0  0  0
  -33.0923  -22.6634   27.9712 C   0  0  0  0  0  0
  -31.0357  -22.9798   26.4987 C   0  0  0  0  0  0
  -29.6409  -21.4019   21.8970 C   0  0  0  0  0  0
  -29.4411  -24.3616   20.9766 C   0  0  0  0  0  0
  -32.5629  -22.8216   26.5431 C   0  0  0  0  0  0
  -29.4562  -20.0125   22.5692 C   0  0  0  0  0  0
  -29.2097  -18.8235   21.6148 C   0  0  0  0  0  0
  -30.4784  -17.9835   21.3534 C   0  0  0  0  0  0
  -30.3091  -16.8926   20.2789 C   0  0  0  0  0  0
  -28.2515  -25.3367   20.7423 C   0  0  0  0  0  0
  -29.9778  -15.5526   20.7899 N   0  0  0  0  0  0
  -31.4609  -12.3521   19.1364 H   0  0  0  0  0  0
  -30.2885  -11.2760   19.8523 H   0  0  0  0  0  0
  -29.7315  -11.7561   17.4360 H   0  0  0  0  0  0
  -29.6732  -13.4696   17.7757 H   0  0  0  0  0  0
  -27.8086  -11.3086   18.8230 H   0  0  0  0  0  0
  -27.3659  -12.6410   17.7863 H   0  0  0  0  0  0
  -27.6938  -14.2535   19.5557 H   0  0  0  0  0  0
  -28.6645  -11.9995   21.3826 H   0  0  0  0  0  0
  -28.4822  -13.6656   21.8481 H   0  0  0  0  0  0
  -25.2781   -9.5716   22.4753 H   0  0  0  0  0  0
  -24.0035   -7.4635   22.7485 H   0  0  0  0  0  0
  -21.0834   -8.8750   19.8938 H   0  0  0  0  0  0
  -22.3672  -10.9680   19.6160 H   0  0  0  0  0  0
  -21.1971   -7.6150   23.9707 H   0  0  0  0  0  0
  -21.1500   -6.0529   25.9090 H   0  0  0  0  0  0
  -22.0590   -2.7598   23.2821 H   0  0  0  0  0  0
  -22.4111  -11.9898   22.4803 H   0  0  0  0  0  0
  -21.1109  -13.1248   22.2594 H   0  0  0  0  0  0
  -24.6644  -15.8451   20.5211 H   0  0  0  0  0  0
  -26.2860  -15.6282   20.0945 H   0  0  0  0  0  0
  -26.7115  -32.5470   23.1143 H   0  0  0  0  0  0
  -25.0018  -33.9857   25.0497 H   0  0  0  0  0  0
  -22.6985  -31.3003   21.4032 H   0  0  0  0  0  0
  -23.3752  -35.9634   23.3316 H   0  0  0  0  0  0
  -24.3626  -36.8897   22.2056 H   0  0  0  0  0  0
  -23.7267  -37.6527   23.6661 H   0  0  0  0  0  0
  -26.0881  -31.5791   20.5557 H   0  0  0  0  0  0
  -26.8270  -30.8800   21.9686 H   0  0  0  0  0  0
  -28.1126  -29.1208   21.1627 H   0  0  0  0  0  0
  -26.0788  -25.9483   19.0578 H   0  0  0  0  0  0
  -23.9879  -27.2657   19.0665 H   0  0  0  0  0  0
  -23.7167  -30.5925   19.3947 H   0  0  0  0  0  0
  -22.7476  -29.2201   19.8782 H   0  0  0  0  0  0
  -25.1343  -36.1946   25.0841 H   0  0  0  0  0  0
  -21.0085  -28.3135   24.1390 H   0  0  0  0  0  0
  -20.5730  -26.2122   23.3643 H   0  0  0  0  0  0
  -21.6697  -26.7313   22.1149 H   0  0  0  0  0  0
  -19.6801  -25.6212   21.1229 H   0  0  0  0  0  0
  -19.6773  -27.3324   20.6824 H   0  0  0  0  0  0
  -17.4237  -26.6667   21.4013 H   0  0  0  0  0  0
  -18.0222  -26.0120   22.9099 H   0  0  0  0  0  0
  -19.7921  -30.7345   24.2252 H   0  0  0  0  0  0
  -17.4952  -31.6281   24.5178 H   0  0  0  0  0  0
  -15.5325  -30.2966   23.7690 H   0  0  0  0  0  0
  -15.8610  -28.0839   22.6974 H   0  0  0  0  0  0
  -24.5809  -30.7145   25.7796 H   0  0  0  0  0  0
  -24.8951  -32.2923   26.4950 H   0  0  0  0  0  0
  -25.7969  -30.8845   27.0248 H   0  0  0  0  0  0
  -26.2838  -29.6828   24.1099 H   0  0  0  0  0  0
  -27.4070  -29.7261   25.4482 H   0  0  0  0  0  0
  -27.8639  -30.4464   23.9218 H   0  0  0  0  0  0
  -27.2716  -33.3618   26.2087 H   0  0  0  0  0  0
  -28.3794  -32.6897   25.0252 H   0  0  0  0  0  0
  -28.0777  -31.8458   26.5343 H   0  0  0  0  0  0
  -28.2671  -38.0062   24.7581 H   0  0  0  0  0  0
  -28.1007  -36.2666   24.6258 H   0  0  0  0  0  0
  -27.2359  -37.1448   25.8890 H   0  0  0  0  0  0
  -20.9203  -29.8757   21.7007 H   0  0  0  0  0  0
  -26.0113  -38.2867   24.1347 H   0  0  0  0  0  0
  -29.9452  -26.0117   23.0814 H   0  0  0  0  0  0
  -30.4528  -21.3147   24.5389 H   0  0  0  0  0  0
  -30.4519  -26.8100   25.2050 H   0  0  0  0  0  0
  -31.5583  -25.8248   26.1585 H   0  0  0  0  0  0
  -29.8214  -25.7762   26.4778 H   0  0  0  0  0  0
  -34.1803  -22.5665   27.9764 H   0  0  0  0  0  0
  -32.6811  -21.7732   28.4428 H   0  0  0  0  0  0
  -32.8361  -23.5250   28.5955 H   0  0  0  0  0  0
  -30.5519  -22.0519   26.8149 H   0  0  0  0  0  0
  -30.7139  -23.7382   27.2117 H   0  0  0  0  0  0
  -30.4691  -21.3739   21.1880 H   0  0  0  0  0  0
  -28.7297  -21.5838   21.3270 H   0  0  0  0  0  0
  -29.2453  -23.4804   20.3672 H   0  0  0  0  0  0
  -30.3460  -24.8049   20.5708 H   0  0  0  0  0  0
  -32.8562  -21.9530   25.9516 H   0  0  0  0  0  0
  -33.0149  -23.6901   26.0663 H   0  0  0  0  0  0
  -28.5963  -20.0842   23.2336 H   0  0  0  0  0  0
  -30.3102  -19.7523   23.1910 H   0  0  0  0  0  0
  -28.7632  -19.1727   20.6824 H   0  0  0  0  0  0
  -28.4531  -18.1765   22.0589 H   0  0  0  0  0  0
  -30.8526  -17.5485   22.2807 H   0  0  0  0  0  0
  -31.2594  -18.6615   21.0124 H   0  0  0  0  0  0
  -31.2362  -16.8715   19.6941 H   0  0  0  0  0  0
  -29.5443  -17.1894   19.5537 H   0  0  0  0  0  0
  -28.3896  -26.0186   21.5826 H   0  0  0  0  0  0
  -28.2317  -25.2849   19.6494 H   0  0  0  0  0  0
  -29.0297  -15.3855   21.0918 H   0  0  0  0  0  0
  1 25  1  0  0  0
  1 30  2  0  0  0
  1 88  1  0  0  0
  2  3  1  0  0  0
  2 25  1  0  0  0
  2 89  1  0  0  0
  2 90  1  0  0  0
  3  4  1  0  0  0
  3 91  1  0  0  0
  3 92  1  0  0  0
  4  5  1  0  0  0
  4 93  1  0  0  0
  4 94  1  0  0  0
  5  6  1  0  0  0
  5 26  1  0  0  0
  5 95  1  0  0  0
  6 25  1  0  0  0
  6 96  1  0  0  0
  6 97  1  0  0  0
  7  8  2  0  0  0
  7 26  1  0  0  0
  7 29  1  0  0  0
  8  9  1  0  0  0
  8 22  1  0  0  0
  9 10  1  0  0  0
  9 27  2  0  0  0
 10 11  2  0  0  0
 10 15  1  0  0  0
 11 12  1  0  0  0
 11 98  1  0  0  0
 12 13  2  0  0  0
 12 99  1  0  0  0
 13 14  1  0  0  0
 13 31  1  0  0  0
 14 15  2  0  0  0
 14100  1  0  0  0
 15101  1  0  0  0
 16 17  2  0  0  0
 16 21  1  0  0  0
 16 31  1  0  0  0
 17 18  1  0  0  0
 17102  1  0  0  0
 18 19  2  0  0  0
 18103  1  0  0  0
 19 20  1  0  0  0
 19 24  1  0  0  0
 20 21  2  0  0  0
 20104  1  0  0  0
 21 23  1  0  0  0
 22 28  1  0  0  0
 22 32  2  0  0  0
 26 27  1  0  0  0
 28105  1  0  0  0
 28106  1  0  0  0
 29107  1  0  0  0
 29108  1  0  0  0
 33 34  1  0  0  0
 33 66  1  0  0  0
 33 70  2  0  0  0
 34 36  1  0  0  0
 34 59  1  0  0  0
 34109  1  0  0  0
 35 44  2  0  0  0
 35 45  1  0  0  0
 35 68  1  0  0  0
 36 56  1  0  0  0
 36110  1  0  0  0
 37 39  1  0  0  0
 37 47  1  0  0  0
 37 66  1  0  0  0
 37111  1  0  0  0
 38 43  2  0  0  0
 38 46  1  0  0  0
 38 47  1  0  0  0
 39 64  1  0  0  0
 39 67  2  0  0  0
 40 52  1  0  0  0
 40 53  2  0  0  0
 40 58  1  0  0  0
 41112  1  0  0  0
 41113  1  0  0  0
 41114  1  0  0  0
 41 48  1  0  0  0
 42 43  1  0  0  0
 42 66  1  0  0  0
 42115  1  0  0  0
 42116  1  0  0  0
 43 44  1  0  0  0
 44117  1  0  0  0
 45 46  2  0  0  0
 45118  1  0  0  0
 46119  1  0  0  0
 47120  1  0  0  0
 47121  1  0  0  0
 48 56  1  0  0  0
 48 65  1  0  0  0
 48122  1  0  0  0
 49 50  1  0  0  0
 49 53  1  0  0  0
 49 64  1  0  0  0
 49123  1  0  0  0
 50 51  1  0  0  0
 50124  1  0  0  0
 50125  1  0  0  0
 51 52  1  0  0  0
 51126  1  0  0  0
 51127  1  0  0  0
 52128  1  0  0  0
 52129  1  0  0  0
 53 54  1  0  0  0
 54 55  2  0  0  0
 54130  1  0  0  0
 55 57  1  0  0  0
 55131  1  0  0  0
 56 69  2  0  0  0
 57 58  2  0  0  0
 57132  1  0  0  0
 58133  1  0  0  0
 59 60  1  0  0  0
 59 61  1  0  0  0
 59 62  1  0  0  0
 60134  1  0  0  0
 60135  1  0  0  0
 60136  1  0  0  0
 61137  1  0  0  0
 61138  1  0  0  0
 61139  1  0  0  0
 62140  1  0  0  0
 62141  1  0  0  0
 62142  1  0  0  0
 63 65  1  0  0  0
 63143  1  0  0  0
 63144  1  0  0  0
 63145  1  0  0  0
 64146  1  0  0  0
 65147  1  0  0  0
 68 87  1  0  0  0
 71 73  2  0  0  0
 71 74  1  0  0  0
 71148  1  0  0  0
 72 75  2  0  0  0
 72 76  1  0  0  0
 72149  1  0  0  0
 73 75  1  0  0  0
 73 77  1  0  0  0
 74 76  2  0  0  0
 74 81  1  0  0  0
 75 79  1  0  0  0
 76 80  1  0  0  0
 77150  1  0  0  0
 77151  1  0  0  0
 77152  1  0  0  0
 78 82  1  0  0  0
 78153  1  0  0  0
 78154  1  0  0  0
 78155  1  0  0  0
 79 82  1  0  0  0
 79156  1  0  0  0
 79157  1  0  0  0
 80 83  1  0  0  0
 80158  1  0  0  0
 80159  1  0  0  0
 81 87  1  0  0  0
 81160  1  0  0  0
 81161  1  0  0  0
 82162  1  0  0  0
 82163  1  0  0  0
 83 84  1  0  0  0
 83164  1  0  0  0
 83165  1  0  0  0
 84 85  1  0  0  0
 84166  1  0  0  0
 84167  1  0  0  0
 85 86  1  0  0  0
 85168  1  0  0  0
 85169  1  0  0  0
 86 88  1  0  0  0
 86170  1  0  0  0
 86171  1  0  0  0
 87172  1  0  0  0
 87173  1  0  0  0
 88174  1  0  0  0
M  ISO  4   1 100  68 101  87 101  88 100
M  END
> <chiral flag>
0

> <version>
0

> <s_m_source_file>
/data/baiqing/PycharmProjects/Reinvent-master-3.2/result/LINK_invent/BTK/process_docking_weight1_custom_sum_contain_oxygen_bond_distance_aromatic_linkinvent_7_9_3/rearranged_h_0038.sdf

> <i_m_source_file_index>
47

> <r_mmod_Potential_Energy-OPLS-2005>
214.781066894531

> <r_mmod_Stretch_Energy-OPLS-2005>
47.5569114685059

> <r_mmod_Bend_Energy-OPLS-2005>
305.024383544922

> <r_mmod_Torsional_Energy-OPLS-2005>
247.472549438477

> <r_mmod_Improper_Torsional_Energy-OPLS-2005>
8.29040622711182

> <r_mmod_Van_der_Waal_Energy-OPLS-2005>
168.537979125977

> <r_mmod_Electrostatic_Energy-OPLS-2005>
-379.873138427734

> <r_mmod_Solvation_Energy-OPLS-2005>
-201.099670410156

> <b_mmod_Minimization_Converged-OPLS-2005>
0

> <r_mmod_RMS_Derivative-OPLS-2005>
9.8956127166748

$$$$
48
                    3D
 Structure written by MMmdl.
172180  0  0  1  0            999 V2000
  -30.6889  -14.4891   20.5736 C   0  0  0  0  0  0
  -30.4280  -12.3224   19.4194 C   0  0  0  0  0  0
  -29.4954  -12.5098   18.2044 C   0  0  0  0  0  0
  -28.0175  -12.3661   18.6183 C   0  0  0  0  0  0
  -27.6611  -13.2074   19.8734 C   0  0  2  0  0  0
  -28.7033  -12.9929   20.9933 C   0  0  0  0  0  0
  -25.2591  -13.8160   20.5685 C   0  0  0  0  0  0
  -24.1852  -13.0444   20.9177 C   0  0  0  0  0  0
  -24.6399  -11.6907   20.8740 C   0  0  0  0  0  0
  -23.9071  -10.4294   21.0405 C   0  0  0  0  0  0
  -24.3623   -9.4205   21.9178 C   0  0  0  0  0  0
  -23.6297   -8.2248   22.0750 C   0  0  0  0  0  0
  -22.4279   -8.0287   21.3546 C   0  0  0  0  0  0
  -21.9914   -9.0260   20.4650 C   0  0  0  0  0  0
  -22.7244  -10.2135   20.3055 C   0  0  0  0  0  0
  -21.6852   -6.0738   22.5277 C   0  0  0  0  0  0
  -21.4013   -6.5643   23.8210 C   0  0  0  0  0  0
  -21.3658   -5.6795   24.9176 C   0  0  0  0  0  0
  -21.6044   -4.3055   24.7228 C   0  0  0  0  0  0
  -21.8820   -3.8149   23.4348 C   0  0  0  0  0  0
  -21.9197   -4.6968   22.3403 C   0  0  0  0  0  0
  -22.7873  -13.5232   21.1844 C   0  0  0  0  0  0
  -22.1665   -4.2155   21.0978 F   0  0  0  0  0  0
  -21.5627   -3.4541   25.7740 F   0  0  0  0  0  0
  -30.0306  -13.3061   20.4382 N   0  0  0  0  0  0
  -26.3026  -12.9329   20.3358 N   0  0  0  0  0  0
  -25.9326  -11.6486   20.5763 N   0  0  0  0  0  0
  -22.0516  -12.8228   22.0395 N   0  0  0  0  0  0
  -25.4331  -15.1879   20.4092 N   0  0  0  0  0  0
  -31.8194  -14.6824   20.1168 O   0  0  0  0  0  0
  -21.6642   -6.8882   21.4240 O   0  0  0  0  0  0
  -22.3560  -14.5552   20.6701 O   0  0  0  0  0  0
  -24.6137  -31.8680   23.2117 C   0  0  0  0  0  0
  -25.9042  -32.4819   23.8403 C   0  0  1  0  0  0
  -27.2358  -27.4495   20.0788 C   0  0  0  0  0  0
  -25.5920  -33.8621   24.2338 N   0  0  0  0  0  0
  -23.4022  -30.4903   21.5512 C   0  0  2  0  0  0
  -24.8505  -28.9567   20.1163 C   0  0  0  0  0  0
  -22.7409  -29.4643   22.5001 C   0  0  0  0  0  0
  -18.0266  -28.1364   22.8481 C   0  0  0  0  0  0
  -24.1491  -36.7300   23.2644 C   0  0  0  0  0  0
  -25.9316  -30.8324   21.3684 C   0  0  0  0  0  0
  -26.0097  -29.4682   20.7149 C   0  0  0  0  0  0
  -27.2092  -28.7196   20.6986 C   0  0  0  0  0  0
  -26.0659  -26.9493   19.4765 C   0  0  0  0  0  0
  -24.8712  -27.6945   19.4968 C   0  0  0  0  0  0
  -23.6119  -29.8229   20.1658 C   0  0  0  0  0  0
  -25.4116  -36.3114   24.0343 C   0  0  1  0  0  0
  -20.5856  -28.3649   23.1319 C   0  0  2  0  0  0
  -20.6751  -26.9381   22.5432 C   0  0  0  0  0  0
  -19.5753  -26.6368   21.5210 C   0  0  0  0  0  0
  -18.1913  -26.7915   22.1592 C   0  0  0  0  0  0
  -19.1517  -28.8823   23.2887 C   0  0  0  0  0  0
  -18.9454  -30.1425   23.8903 C   0  0  0  0  0  0
  -17.6463  -30.6574   24.0558 C   0  0  0  0  0  0
  -25.9039  -34.9474   23.5130 C   0  0  0  0  0  0
  -16.5349  -29.9080   23.6324 C   0  0  0  0  0  0
  -16.7257  -28.6493   23.0351 C   0  0  0  0  0  0
  -26.4473  -31.6608   25.0731 C   0  0  0  0  0  0
  -25.3736  -31.3757   26.1489 C   0  0  0  0  0  0
  -27.0282  -30.3038   24.6119 C   0  0  0  0  0  0
  -27.6065  -32.4326   25.7470 C   0  0  0  0  0  0
  -27.5587  -37.1806   24.8463 C   0  0  0  0  0  0
  -21.4143  -29.3016   22.3738 N   0  0  0  0  0  0
  -26.4308  -37.3791   23.9398 N   0  0  0  0  0  0
  -24.6661  -31.0783   22.1012 N   0  0  0  0  0  0
  -23.4177  -28.8184   23.3047 O   0  0  0  0  0  0
  -28.3777  -26.6885   20.0204 O   0  0  0  0  0  0
  -26.5588  -34.8923   22.4678 O   0  0  0  0  0  0
  -23.5333  -32.1443   23.7509 O   0  0  0  0  0  0
  -28.2348  -20.0309   21.9741 C   0  0  0  0  0  0
  -27.9915  -21.4190   22.2083 C   0  0  0  0  0  0
  -28.6040  -19.8210   20.6830 C   0  0  0  0  0  0
  -28.2249  -22.0575   21.0026 C   0  0  0  0  0  0
  -28.0796  -21.0910   24.7019 C   0  0  0  0  0  0
  -25.9457  -21.8316   23.5725 C   0  0  0  0  0  0
  -27.8513  -23.4129   23.8590 C   0  0  0  0  0  0
  -28.9510  -21.3273   18.6781 C   0  0  0  0  0  0
  -28.8462  -18.4956   19.9825 C   0  0  0  0  0  0
  -28.0098  -23.5091   20.5856 C   0  0  0  0  0  0
  -30.2464  -17.8555   20.1669 C   0  0  0  0  0  0
  -29.1466  -24.5110   20.9141 C   0  0  0  0  0  0
  -30.4257  -16.8777   21.3651 C   0  0  0  0  0  0
  -28.6605  -25.9559   21.2126 C   0  0  0  0  0  0
  -27.4814  -21.9472   23.5590 C   0  0  0  0  0  0
  -28.6282  -21.0789   20.0778 N   0  0  0  0  0  0
  -29.9751  -15.4931   21.1228 N   0  0  0  0  0  0
  -31.4710  -12.4342   19.1162 H   0  0  0  0  0  0
  -30.3423  -11.3115   19.8202 H   0  0  0  0  0  0
  -29.7378  -11.7833   17.4280 H   0  0  0  0  0  0
  -29.6575  -13.4947   17.7635 H   0  0  0  0  0  0
  -27.8300  -11.3101   18.8152 H   0  0  0  0  0  0
  -27.3668  -12.6402   17.7873 H   0  0  0  0  0  0
  -27.7042  -14.2551   19.5734 H   0  0  0  0  0  0
  -28.6855  -11.9575   21.3358 H   0  0  0  0  0  0
  -28.4640  -13.5935   21.8720 H   0  0  0  0  0  0
  -25.2767   -9.5680   22.4752 H   0  0  0  0  0  0
  -24.0010   -7.4633   22.7464 H   0  0  0  0  0  0
  -21.0846   -8.8783   19.8954 H   0  0  0  0  0  0
  -22.3704  -10.9681   19.6173 H   0  0  0  0  0  0
  -21.2001   -7.6152   23.9719 H   0  0  0  0  0  0
  -21.1475   -6.0524   25.9078 H   0  0  0  0  0  0
  -22.0601   -2.7614   23.2849 H   0  0  0  0  0  0
  -22.4136  -11.9879   22.4771 H   0  0  0  0  0  0
  -21.1137  -13.1245   22.2612 H   0  0  0  0  0  0
  -24.6670  -15.8445   20.5123 H   0  0  0  0  0  0
  -26.2869  -15.6234   20.0855 H   0  0  0  0  0  0
  -26.7111  -32.5532   23.1169 H   0  0  0  0  0  0
  -25.0123  -33.9790   25.0517 H   0  0  0  0  0  0
  -22.6900  -31.3054   21.4105 H   0  0  0  0  0  0
  -23.3743  -35.9645   23.3376 H   0  0  0  0  0  0
  -24.3566  -36.8837   22.2038 H   0  0  0  0  0  0
  -23.7262  -37.6535   23.6607 H   0  0  0  0  0  0
  -26.0514  -31.6007   20.6038 H   0  0  0  0  0  0
  -26.8155  -30.8796   21.9927 H   0  0  0  0  0  0
  -28.1093  -29.1131   21.1492 H   0  0  0  0  0  0
  -26.0821  -25.9844   18.9878 H   0  0  0  0  0  0
  -23.9818  -27.2978   19.0268 H   0  0  0  0  0  0
  -23.7185  -30.5978   19.4063 H   0  0  0  0  0  0
  -22.7370  -29.2412   19.8700 H   0  0  0  0  0  0
  -25.1294  -36.1995   25.0836 H   0  0  0  0  0  0
  -20.9924  -28.3217   24.1454 H   0  0  0  0  0  0
  -20.5635  -26.2258   23.3622 H   0  0  0  0  0  0
  -21.6626  -26.7400   22.1248 H   0  0  0  0  0  0
  -19.6921  -25.6284   21.1230 H   0  0  0  0  0  0
  -19.6725  -27.3184   20.6744 H   0  0  0  0  0  0
  -17.4203  -26.6695   21.3968 H   0  0  0  0  0  0
  -18.0277  -26.0031   22.8957 H   0  0  0  0  0  0
  -19.7933  -30.7216   24.2299 H   0  0  0  0  0  0
  -17.5026  -31.6260   24.5150 H   0  0  0  0  0  0
  -15.5355  -30.2990   23.7652 H   0  0  0  0  0  0
  -15.8649  -28.0815   22.7081 H   0  0  0  0  0  0
  -24.5939  -30.7044   25.7875 H   0  0  0  0  0  0
  -24.8878  -32.2920   26.4854 H   0  0  0  0  0  0
  -25.8084  -30.9027   27.0300 H   0  0  0  0  0  0
  -26.2811  -29.6823   24.1163 H   0  0  0  0  0  0
  -27.4030  -29.7269   25.4583 H   0  0  0  0  0  0
  -27.8670  -30.4348   23.9277 H   0  0  0  0  0  0
  -27.2704  -33.3633   26.2059 H   0  0  0  0  0  0
  -28.3854  -32.6874   25.0268 H   0  0  0  0  0  0
  -28.0754  -31.8439   26.5370 H   0  0  0  0  0  0
  -28.2640  -38.0066   24.7460 H   0  0  0  0  0  0
  -28.1040  -36.2595   24.6343 H   0  0  0  0  0  0
  -27.2297  -37.1537   25.8867 H   0  0  0  0  0  0
  -20.9321  -29.8760   21.6971 H   0  0  0  0  0  0
  -26.0207  -38.2877   24.1386 H   0  0  0  0  0  0
  -28.0972  -19.2270   22.6830 H   0  0  0  0  0  0
  -27.7389  -20.0561   24.6747 H   0  0  0  0  0  0
  -27.8097  -21.4743   25.6856 H   0  0  0  0  0  0
  -29.1698  -21.0737   24.6507 H   0  0  0  0  0  0
  -25.6177  -20.8018   23.4299 H   0  0  0  0  0  0
  -25.5005  -22.4246   22.7719 H   0  0  0  0  0  0
  -25.5214  -22.1858   24.5127 H   0  0  0  0  0  0
  -28.9227  -23.5893   23.7928 H   0  0  0  0  0  0
  -27.5567  -23.6856   24.8739 H   0  0  0  0  0  0
  -27.3365  -24.1127   23.2055 H   0  0  0  0  0  0
  -29.5588  -20.5226   18.2668 H   0  0  0  0  0  0
  -29.5171  -22.2528   18.5737 H   0  0  0  0  0  0
  -28.0306  -21.4027   18.0979 H   0  0  0  0  0  0
  -28.6549  -18.6082   18.9171 H   0  0  0  0  0  0
  -28.0910  -17.7789   20.3076 H   0  0  0  0  0  0
  -27.0825  -23.8555   21.0399 H   0  0  0  0  0  0
  -27.8021  -23.5795   19.5177 H   0  0  0  0  0  0
  -30.9864  -18.6542   20.2264 H   0  0  0  0  0  0
  -30.4973  -17.3083   19.2572 H   0  0  0  0  0  0
  -29.9005  -24.5142   20.1263 H   0  0  0  0  0  0
  -29.6741  -24.1577   21.7984 H   0  0  0  0  0  0
  -29.9113  -17.2702   22.2429 H   0  0  0  0  0  0
  -31.4820  -16.8500   21.6398 H   0  0  0  0  0  0
  -29.4357  -26.5006   21.7521 H   0  0  0  0  0  0
  -27.7979  -25.9298   21.8813 H   0  0  0  0  0  0
  -29.0511  -15.2496   21.4483 H   0  0  0  0  0  0
  1 25  1  0  0  0
  1 30  2  0  0  0
  1 87  1  0  0  0
  2  3  1  0  0  0
  2 25  1  0  0  0
  2 88  1  0  0  0
  2 89  1  0  0  0
  3  4  1  0  0  0
  3 90  1  0  0  0
  3 91  1  0  0  0
  4  5  1  0  0  0
  4 92  1  0  0  0
  4 93  1  0  0  0
  5  6  1  0  0  0
  5 26  1  0  0  0
  5 94  1  0  0  0
  6 25  1  0  0  0
  6 95  1  0  0  0
  6 96  1  0  0  0
  7  8  2  0  0  0
  7 26  1  0  0  0
  7 29  1  0  0  0
  8  9  1  0  0  0
  8 22  1  0  0  0
  9 10  1  0  0  0
  9 27  2  0  0  0
 10 11  2  0  0  0
 10 15  1  0  0  0
 11 12  1  0  0  0
 11 97  1  0  0  0
 12 13  2  0  0  0
 12 98  1  0  0  0
 13 14  1  0  0  0
 13 31  1  0  0  0
 14 15  2  0  0  0
 14 99  1  0  0  0
 15100  1  0  0  0
 16 17  2  0  0  0
 16 21  1  0  0  0
 16 31  1  0  0  0
 17 18  1  0  0  0
 17101  1  0  0  0
 18 19  2  0  0  0
 18102  1  0  0  0
 19 20  1  0  0  0
 19 24  1  0  0  0
 20 21  2  0  0  0
 20103  1  0  0  0
 21 23  1  0  0  0
 22 28  1  0  0  0
 22 32  2  0  0  0
 26 27  1  0  0  0
 28104  1  0  0  0
 28105  1  0  0  0
 29106  1  0  0  0
 29107  1  0  0  0
 33 34  1  0  0  0
 33 66  1  0  0  0
 33 70  2  0  0  0
 34 36  1  0  0  0
 34 59  1  0  0  0
 34108  1  0  0  0
 35 44  2  0  0  0
 35 45  1  0  0  0
 35 68  1  0  0  0
 36 56  1  0  0  0
 36109  1  0  0  0
 37 39  1  0  0  0
 37 47  1  0  0  0
 37 66  1  0  0  0
 37110  1  0  0  0
 38 43  2  0  0  0
 38 46  1  0  0  0
 38 47  1  0  0  0
 39 64  1  0  0  0
 39 67  2  0  0  0
 40 52  1  0  0  0
 40 53  2  0  0  0
 40 58  1  0  0  0
 41111  1  0  0  0
 41112  1  0  0  0
 41113  1  0  0  0
 41 48  1  0  0  0
 42 43  1  0  0  0
 42 66  1  0  0  0
 42114  1  0  0  0
 42115  1  0  0  0
 43 44  1  0  0  0
 44116  1  0  0  0
 45 46  2  0  0  0
 45117  1  0  0  0
 46118  1  0  0  0
 47119  1  0  0  0
 47120  1  0  0  0
 48 56  1  0  0  0
 48 65  1  0  0  0
 48121  1  0  0  0
 49 50  1  0  0  0
 49 53  1  0  0  0
 49 64  1  0  0  0
 49122  1  0  0  0
 50 51  1  0  0  0
 50123  1  0  0  0
 50124  1  0  0  0
 51 52  1  0  0  0
 51125  1  0  0  0
 51126  1  0  0  0
 52127  1  0  0  0
 52128  1  0  0  0
 53 54  1  0  0  0
 54 55  2  0  0  0
 54129  1  0  0  0
 55 57  1  0  0  0
 55130  1  0  0  0
 56 69  2  0  0  0
 57 58  2  0  0  0
 57131  1  0  0  0
 58132  1  0  0  0
 59 60  1  0  0  0
 59 61  1  0  0  0
 59 62  1  0  0  0
 60133  1  0  0  0
 60134  1  0  0  0
 60135  1  0  0  0
 61136  1  0  0  0
 61137  1  0  0  0
 61138  1  0  0  0
 62139  1  0  0  0
 62140  1  0  0  0
 62141  1  0  0  0
 63 65  1  0  0  0
 63142  1  0  0  0
 63143  1  0  0  0
 63144  1  0  0  0
 64145  1  0  0  0
 65146  1  0  0  0
 68 84  1  0  0  0
 71 72  1  0  0  0
 71 73  2  0  0  0
 71147  1  0  0  0
 72 74  2  0  0  0
 72 85  1  0  0  0
 73 79  1  0  0  0
 73 86  1  0  0  0
 74 80  1  0  0  0
 74 86  1  0  0  0
 75148  1  0  0  0
 75149  1  0  0  0
 75150  1  0  0  0
 75 85  1  0  0  0
 76 85  1  0  0  0
 76151  1  0  0  0
 76152  1  0  0  0
 76153  1  0  0  0
 77 85  1  0  0  0
 77154  1  0  0  0
 77155  1  0  0  0
 77156  1  0  0  0
 78 86  1  0  0  0
 78157  1  0  0  0
 78158  1  0  0  0
 78159  1  0  0  0
 79 81  1  0  0  0
 79160  1  0  0  0
 79161  1  0  0  0
 80 82  1  0  0  0
 80162  1  0  0  0
 80163  1  0  0  0
 81 83  1  0  0  0
 81164  1  0  0  0
 81165  1  0  0  0
 82 84  1  0  0  0
 82166  1  0  0  0
 82167  1  0  0  0
 83 87  1  0  0  0
 83168  1  0  0  0
 83169  1  0  0  0
 84170  1  0  0  0
 84171  1  0  0  0
 87172  1  0  0  0
M  ISO  4   1 100  68 101  84 101  87 100
M  END
> <chiral flag>
0

> <version>
0

> <s_m_source_file>
/data/baiqing/PycharmProjects/Reinvent-master-3.2/result/LINK_invent/BTK/process_docking_weight1_custom_sum_contain_oxygen_bond_distance_aromatic_linkinvent_7_9_3/rearranged_h_0038.sdf

> <i_m_source_file_index>
48

> <r_mmod_Potential_Energy-OPLS-2005>
-101.29271697998

> <r_mmod_Stretch_Energy-OPLS-2005>
41.0698509216309

> <r_mmod_Bend_Energy-OPLS-2005>
112.98624420166

> <r_mmod_Torsional_Energy-OPLS-2005>
255.25341796875

> <r_mmod_Improper_Torsional_Energy-OPLS-2005>
3.79140138626099

> <r_mmod_Van_der_Waal_Energy-OPLS-2005>
122.756362915039

> <r_mmod_Electrostatic_Energy-OPLS-2005>
-449.336456298828

> <r_mmod_Solvation_Energy-OPLS-2005>
-200.596908569336

> <b_mmod_Minimization_Converged-OPLS-2005>
0

> <r_mmod_RMS_Derivative-OPLS-2005>
2.3592267036438

$$$$
49
                    3D
 Structure written by MMmdl.
169177  0  0  1  0            999 V2000
  -30.7255  -14.4173   20.6837 C   0  0  0  0  0  0
  -30.4293  -12.3139   19.4017 C   0  0  0  0  0  0
  -29.4941  -12.5300   18.1969 C   0  0  0  0  0  0
  -28.0191  -12.3697   18.6138 C   0  0  0  0  0  0
  -27.6681  -13.1979   19.8783 C   0  0  2  0  0  0
  -28.7076  -12.9474   20.9931 C   0  0  0  0  0  0
  -25.2627  -13.8126   20.5674 C   0  0  0  0  0  0
  -24.1863  -13.0427   20.9156 C   0  0  0  0  0  0
  -24.6391  -11.6884   20.8717 C   0  0  0  0  0  0
  -23.9044  -10.4285   21.0396 C   0  0  0  0  0  0
  -24.3598   -9.4209   21.9184 C   0  0  0  0  0  0
  -23.6281   -8.2244   22.0753 C   0  0  0  0  0  0
  -22.4270   -8.0273   21.3540 C   0  0  0  0  0  0
  -21.9897   -9.0245   20.4648 C   0  0  0  0  0  0
  -22.7211  -10.2128   20.3056 C   0  0  0  0  0  0
  -21.6857   -6.0730   22.5274 C   0  0  0  0  0  0
  -21.4015   -6.5632   23.8206 C   0  0  0  0  0  0
  -21.3665   -5.6786   24.9168 C   0  0  0  0  0  0
  -21.6053   -4.3048   24.7218 C   0  0  0  0  0  0
  -21.8816   -3.8142   23.4337 C   0  0  0  0  0  0
  -21.9187   -4.6961   22.3396 C   0  0  0  0  0  0
  -22.7889  -13.5245   21.1823 C   0  0  0  0  0  0
  -22.1660   -4.2145   21.0976 F   0  0  0  0  0  0
  -21.5628   -3.4535   25.7730 F   0  0  0  0  0  0
  -30.0421  -13.2634   20.4546 N   0  0  0  0  0  0
  -26.3060  -12.9288   20.3359 N   0  0  0  0  0  0
  -25.9319  -11.6453   20.5749 N   0  0  0  0  0  0
  -22.0507  -12.8265   22.0384 N   0  0  0  0  0  0
  -25.4358  -15.1851   20.4102 N   0  0  0  0  0  0
  -31.7783  -14.6856   20.0948 O   0  0  0  0  0  0
  -21.6635   -6.8871   21.4239 O   0  0  0  0  0  0
  -22.3595  -14.5559   20.6665 O   0  0  0  0  0  0
  -24.6104  -31.8705   23.2136 C   0  0  0  0  0  0
  -25.9020  -32.4840   23.8407 C   0  0  1  0  0  0
  -27.2591  -27.4681   20.1023 C   0  0  0  0  0  0
  -25.5889  -33.8635   24.2354 N   0  0  0  0  0  0
  -23.3975  -30.4924   21.5527 C   0  0  2  0  0  0
  -24.8501  -28.9555   20.1273 C   0  0  0  0  0  0
  -22.7383  -29.4677   22.5020 C   0  0  0  0  0  0
  -18.0259  -28.1370   22.8502 C   0  0  0  0  0  0
  -24.1484  -36.7320   23.2641 C   0  0  0  0  0  0
  -25.9198  -30.8467   21.3592 C   0  0  0  0  0  0
  -26.0049  -29.4762   20.7249 C   0  0  0  0  0  0
  -27.2097  -28.7408   20.7196 C   0  0  0  0  0  0
  -26.0876  -26.9600   19.5041 C   0  0  0  0  0  0
  -24.8837  -27.6894   19.5190 C   0  0  0  0  0  0
  -23.6078  -29.8164   20.1698 C   0  0  0  0  0  0
  -25.4102  -36.3123   24.0344 C   0  0  1  0  0  0
  -20.5849  -28.3647   23.1330 C   0  0  2  0  0  0
  -20.6746  -26.9383   22.5421 C   0  0  0  0  0  0
  -19.5728  -26.6379   21.5213 C   0  0  0  0  0  0
  -18.1909  -26.7916   22.1625 C   0  0  0  0  0  0
  -19.1512  -28.8822   23.2918 C   0  0  0  0  0  0
  -18.9444  -30.1433   23.8921 C   0  0  0  0  0  0
  -17.6450  -30.6579   24.0565 C   0  0  0  0  0  0
  -25.9026  -34.9480   23.5141 C   0  0  0  0  0  0
  -16.5337  -29.9089   23.6325 C   0  0  0  0  0  0
  -16.7251  -28.6505   23.0341 C   0  0  0  0  0  0
  -26.4500  -31.6594   25.0684 C   0  0  0  0  0  0
  -25.3822  -31.3684   26.1485 C   0  0  0  0  0  0
  -27.0272  -30.3027   24.5995 C   0  0  0  0  0  0
  -27.6144  -32.4269   25.7392 C   0  0  0  0  0  0
  -27.5590  -37.1793   24.8455 C   0  0  0  0  0  0
  -21.4113  -29.3032   22.3759 N   0  0  0  0  0  0
  -26.4300  -37.3794   23.9403 N   0  0  0  0  0  0
  -24.6609  -31.0828   22.1025 N   0  0  0  0  0  0
  -23.4177  -28.8209   23.3035 O   0  0  0  0  0  0
  -28.3888  -26.6889   19.9716 O   0  0  0  0  0  0
  -26.5587  -34.8926   22.4702 O   0  0  0  0  0  0
  -23.5300  -32.1440   23.7563 O   0  0  0  0  0  0
  -32.2347  -26.2179   24.3327 C   0  0  0  0  0  0
  -31.0768  -26.3011   23.5415 C   0  0  0  0  0  0
  -32.8795  -24.1981   23.1447 C   0  0  0  0  0  0
  -33.1399  -25.1598   24.1391 C   0  0  0  0  0  0
  -30.7931  -25.3333   22.5515 C   0  0  0  0  0  0
  -31.7107  -24.2564   22.3501 C   0  0  0  0  0  0
  -34.3742  -25.0371   25.0105 C   0  0  0  0  0  0
  -29.4874  -25.5115   21.7748 C   0  0  0  0  0  0
  -31.5131  -23.1185   21.3399 C   0  0  0  0  0  0
  -30.1517  -15.4259   21.7056 C   0  0  0  0  0  0
  -31.2232  -21.7746   22.0445 C   0  0  0  0  0  0
  -31.0002  -16.6800   22.0503 C   0  0  0  0  0  0
  -31.1052  -20.5403   21.1191 C   0  0  0  0  0  0
  -30.7889  -17.9341   21.1663 C   0  0  0  0  0  0
  -31.1627  -19.2260   21.9295 C   0  0  0  0  0  0
  -29.4753  -26.7763   20.8919 C   0  0  0  0  0  0
  -31.4715  -12.4264   19.1027 H   0  0  0  0  0  0
  -30.3380  -11.2926   19.7743 H   0  0  0  0  0  0
  -29.7369  -11.8253   17.4001 H   0  0  0  0  0  0
  -29.6534  -13.5271   17.7824 H   0  0  0  0  0  0
  -27.8427  -11.3112   18.8076 H   0  0  0  0  0  0
  -27.3630  -12.6411   17.7861 H   0  0  0  0  0  0
  -27.7245  -14.2508   19.6025 H   0  0  0  0  0  0
  -28.6833  -11.9025   21.3052 H   0  0  0  0  0  0
  -28.4465  -13.5132   21.8860 H   0  0  0  0  0  0
  -25.2741   -9.5696   22.4754 H   0  0  0  0  0  0
  -23.9991   -7.4644   22.7478 H   0  0  0  0  0  0
  -21.0822   -8.8758   19.8961 H   0  0  0  0  0  0
  -22.3663  -10.9664   19.6165 H   0  0  0  0  0  0
  -21.2014   -7.6142   23.9709 H   0  0  0  0  0  0
  -21.1496   -6.0517   25.9072 H   0  0  0  0  0  0
  -22.0592   -2.7605   23.2831 H   0  0  0  0  0  0
  -22.4100  -11.9929   22.4803 H   0  0  0  0  0  0
  -21.1131  -13.1325   22.2559 H   0  0  0  0  0  0
  -24.6710  -15.8409   20.5228 H   0  0  0  0  0  0
  -26.2968  -15.6260   20.1104 H   0  0  0  0  0  0
  -26.7084  -32.5590   23.1175 H   0  0  0  0  0  0
  -25.0022  -33.9795   25.0480 H   0  0  0  0  0  0
  -22.6840  -31.3065   21.4088 H   0  0  0  0  0  0
  -23.3726  -35.9685   23.3330 H   0  0  0  0  0  0
  -24.3584  -36.8900   22.2051 H   0  0  0  0  0  0
  -23.7262  -37.6553   23.6618 H   0  0  0  0  0  0
  -26.0125  -31.6018   20.5773 H   0  0  0  0  0  0
  -26.8158  -30.9221   21.9632 H   0  0  0  0  0  0
  -28.0894  -29.1864   21.1584 H   0  0  0  0  0  0
  -26.1123  -25.9954   19.0173 H   0  0  0  0  0  0
  -23.9972  -27.2779   19.0563 H   0  0  0  0  0  0
  -23.7141  -30.5862   19.4037 H   0  0  0  0  0  0
  -22.7341  -29.2283   19.8784 H   0  0  0  0  0  0
  -25.1281  -36.1991   25.0835 H   0  0  0  0  0  0
  -20.9946  -28.3199   24.1445 H   0  0  0  0  0  0
  -20.5625  -26.2248   23.3602 H   0  0  0  0  0  0
  -21.6628  -26.7412   22.1233 H   0  0  0  0  0  0
  -19.6883  -25.6298   21.1224 H   0  0  0  0  0  0
  -19.6673  -27.3209   20.6763 H   0  0  0  0  0  0
  -17.4184  -26.6668   21.4023 H   0  0  0  0  0  0
  -18.0313  -26.0051   22.9014 H   0  0  0  0  0  0
  -19.7918  -30.7244   24.2304 H   0  0  0  0  0  0
  -17.4999  -31.6261   24.5164 H   0  0  0  0  0  0
  -15.5341  -30.2990   23.7634 H   0  0  0  0  0  0
  -15.8648  -28.0832   22.7027 H   0  0  0  0  0  0
  -24.5982  -30.7047   25.7825 H   0  0  0  0  0  0
  -24.9038  -32.2828   26.5013 H   0  0  0  0  0  0
  -25.8242  -30.8796   27.0180 H   0  0  0  0  0  0
  -27.4191  -29.7262   25.4382 H   0  0  0  0  0  0
  -26.2738  -29.6767   24.1218 H   0  0  0  0  0  0
  -27.8510  -30.4316   23.8966 H   0  0  0  0  0  0
  -28.3912  -32.6853   25.0180 H   0  0  0  0  0  0
  -28.0875  -31.8352   26.5238 H   0  0  0  0  0  0
  -27.2821  -33.3558   26.2039 H   0  0  0  0  0  0
  -28.2630  -38.0063   24.7508 H   0  0  0  0  0  0
  -28.1068  -36.2615   24.6283 H   0  0  0  0  0  0
  -27.2310  -37.1449   25.8856 H   0  0  0  0  0  0
  -20.9256  -29.8780   21.7015 H   0  0  0  0  0  0
  -26.0201  -38.2870   24.1435 H   0  0  0  0  0  0
  -32.4135  -26.9629   25.0970 H   0  0  0  0  0  0
  -30.3892  -27.1180   23.7134 H   0  0  0  0  0  0
  -33.5819  -23.3862   23.0041 H   0  0  0  0  0  0
  -34.5899  -25.9716   25.5286 H   0  0  0  0  0  0
  -35.2492  -24.7732   24.4156 H   0  0  0  0  0  0
  -34.2274  -24.2606   25.7623 H   0  0  0  0  0  0
  -28.6734  -25.5824   22.4968 H   0  0  0  0  0  0
  -29.2432  -24.6403   21.1736 H   0  0  0  0  0  0
  -32.4387  -23.0231   20.7689 H   0  0  0  0  0  0
  -30.7531  -23.3350   20.5934 H   0  0  0  0  0  0
  -29.1535  -15.7312   21.3907 H   0  0  0  0  0  0
  -30.0203  -14.8741   22.6376 H   0  0  0  0  0  0
  -30.3131  -21.8708   22.6384 H   0  0  0  0  0  0
  -32.0237  -21.5844   22.7605 H   0  0  0  0  0  0
  -32.0607  -16.4306   22.0936 H   0  0  0  0  0  0
  -30.7415  -16.9489   23.0745 H   0  0  0  0  0  0
  -31.9128  -20.5404   20.3851 H   0  0  0  0  0  0
  -30.1733  -20.5996   20.5544 H   0  0  0  0  0  0
  -29.7447  -18.0011   20.8587 H   0  0  0  0  0  0
  -31.3780  -17.8431   20.2516 H   0  0  0  0  0  0
  -32.1671  -19.1183   22.3418 H   0  0  0  0  0  0
  -30.4973  -19.3163   22.7908 H   0  0  0  0  0  0
  -30.3880  -26.8088   20.2956 H   0  0  0  0  0  0
  -29.4875  -27.6724   21.5083 H   0  0  0  0  0  0
  1 25  1  0  0  0
  1 30  2  0  0  0
  1 80  1  0  0  0
  2  3  1  0  0  0
  2 25  1  0  0  0
  2 87  1  0  0  0
  2 88  1  0  0  0
  3  4  1  0  0  0
  3 89  1  0  0  0
  3 90  1  0  0  0
  4  5  1  0  0  0
  4 91  1  0  0  0
  4 92  1  0  0  0
  5  6  1  0  0  0
  5 26  1  0  0  0
  5 93  1  0  0  0
  6 25  1  0  0  0
  6 94  1  0  0  0
  6 95  1  0  0  0
  7  8  2  0  0  0
  7 26  1  0  0  0
  7 29  1  0  0  0
  8  9  1  0  0  0
  8 22  1  0  0  0
  9 10  1  0  0  0
  9 27  2  0  0  0
 10 11  2  0  0  0
 10 15  1  0  0  0
 11 12  1  0  0  0
 11 96  1  0  0  0
 12 13  2  0  0  0
 12 97  1  0  0  0
 13 14  1  0  0  0
 13 31  1  0  0  0
 14 15  2  0  0  0
 14 98  1  0  0  0
 15 99  1  0  0  0
 16 17  2  0  0  0
 16 21  1  0  0  0
 16 31  1  0  0  0
 17 18  1  0  0  0
 17100  1  0  0  0
 18 19  2  0  0  0
 18101  1  0  0  0
 19 20  1  0  0  0
 19 24  1  0  0  0
 20 21  2  0  0  0
 20102  1  0  0  0
 21 23  1  0  0  0
 22 28  1  0  0  0
 22 32  2  0  0  0
 26 27  1  0  0  0
 28103  1  0  0  0
 28104  1  0  0  0
 29105  1  0  0  0
 29106  1  0  0  0
 33 34  1  0  0  0
 33 66  1  0  0  0
 33 70  2  0  0  0
 34 36  1  0  0  0
 34 59  1  0  0  0
 34107  1  0  0  0
 35 44  2  0  0  0
 35 45  1  0  0  0
 35 68  1  0  0  0
 36 56  1  0  0  0
 36108  1  0  0  0
 37 39  1  0  0  0
 37 47  1  0  0  0
 37 66  1  0  0  0
 37109  1  0  0  0
 38 43  2  0  0  0
 38 46  1  0  0  0
 38 47  1  0  0  0
 39 64  1  0  0  0
 39 67  2  0  0  0
 40 52  1  0  0  0
 40 53  2  0  0  0
 40 58  1  0  0  0
 41110  1  0  0  0
 41111  1  0  0  0
 41112  1  0  0  0
 41 48  1  0  0  0
 42 43  1  0  0  0
 42 66  1  0  0  0
 42113  1  0  0  0
 42114  1  0  0  0
 43 44  1  0  0  0
 44115  1  0  0  0
 45 46  2  0  0  0
 45116  1  0  0  0
 46117  1  0  0  0
 47118  1  0  0  0
 47119  1  0  0  0
 48 56  1  0  0  0
 48 65  1  0  0  0
 48120  1  0  0  0
 49 50  1  0  0  0
 49 53  1  0  0  0
 49 64  1  0  0  0
 49121  1  0  0  0
 50 51  1  0  0  0
 50122  1  0  0  0
 50123  1  0  0  0
 51 52  1  0  0  0
 51124  1  0  0  0
 51125  1  0  0  0
 52126  1  0  0  0
 52127  1  0  0  0
 53 54  1  0  0  0
 54 55  2  0  0  0
 54128  1  0  0  0
 55 57  1  0  0  0
 55129  1  0  0  0
 56 69  2  0  0  0
 57 58  2  0  0  0
 57130  1  0  0  0
 58131  1  0  0  0
 59 60  1  0  0  0
 59 61  1  0  0  0
 59 62  1  0  0  0
 60132  1  0  0  0
 60133  1  0  0  0
 60134  1  0  0  0
 61135  1  0  0  0
 61136  1  0  0  0
 61137  1  0  0  0
 62138  1  0  0  0
 62139  1  0  0  0
 62140  1  0  0  0
 63 65  1  0  0  0
 63141  1  0  0  0
 63142  1  0  0  0
 63143  1  0  0  0
 64144  1  0  0  0
 65145  1  0  0  0
 68 86  1  0  0  0
 71 72  2  0  0  0
 71 74  1  0  0  0
 71146  1  0  0  0
 72 75  1  0  0  0
 72147  1  0  0  0
 73 74  2  0  0  0
 73 76  1  0  0  0
 73148  1  0  0  0
 74 77  1  0  0  0
 75 76  2  0  0  0
 75 78  1  0  0  0
 76 79  1  0  0  0
 77149  1  0  0  0
 77150  1  0  0  0
 77151  1  0  0  0
 78 86  1  0  0  0
 78152  1  0  0  0
 78153  1  0  0  0
 79 81  1  0  0  0
 79154  1  0  0  0
 79155  1  0  0  0
 80 82  1  0  0  0
 80156  1  0  0  0
 80157  1  0  0  0
 81 83  1  0  0  0
 81158  1  0  0  0
 81159  1  0  0  0
 82 84  1  0  0  0
 82160  1  0  0  0
 82161  1  0  0  0
 83 85  1  0  0  0
 83162  1  0  0  0
 83163  1  0  0  0
 84 85  1  0  0  0
 84164  1  0  0  0
 84165  1  0  0  0
 85166  1  0  0  0
 85167  1  0  0  0
 86168  1  0  0  0
 86169  1  0  0  0
M  ISO  4   1 100  68 101  80 100  86 101
M  END
> <chiral flag>
0

> <version>
0

> <s_m_source_file>
/data/baiqing/PycharmProjects/Reinvent-master-3.2/result/LINK_invent/BTK/process_docking_weight1_custom_sum_contain_oxygen_bond_distance_aromatic_linkinvent_7_9_3/rearranged_h_0038.sdf

> <i_m_source_file_index>
49

> <r_mmod_Potential_Energy-OPLS-2005>
-16.0906791687012

> <r_mmod_Stretch_Energy-OPLS-2005>
36.7591133117676

> <r_mmod_Bend_Energy-OPLS-2005>
115.382301330566

> <r_mmod_Torsional_Energy-OPLS-2005>
168.478408813477

> <r_mmod_Improper_Torsional_Energy-OPLS-2005>
1.82547509670258

> <r_mmod_Van_der_Waal_Energy-OPLS-2005>
149.977066040039

> <r_mmod_Electrostatic_Energy-OPLS-2005>
-311.588256835938

> <r_mmod_Solvation_Energy-OPLS-2005>
-184.237106323242

> <b_mmod_Minimization_Converged-OPLS-2005>
0

> <r_mmod_RMS_Derivative-OPLS-2005>
2.04904818534851

$$$$
50
                    3D
 Structure written by MMmdl.
162170  0  0  1  0            999 V2000
  -30.6889  -14.4743   20.4746 C   0  0  0  0  0  0
  -30.4163  -12.2773   19.4383 C   0  0  0  0  0  0
  -29.4935  -12.4561   18.2157 C   0  0  0  0  0  0
  -28.0117  -12.3310   18.6313 C   0  0  0  0  0  0
  -27.6514  -13.2009   19.8677 C   0  0  2  0  0  0
  -28.6983  -13.0311   20.9941 C   0  0  0  0  0  0
  -25.2531  -13.8167   20.5686 C   0  0  0  0  0  0
  -24.1780  -13.0453   20.9219 C   0  0  0  0  0  0
  -24.6321  -11.6928   20.8790 C   0  0  0  0  0  0
  -23.8997  -10.4321   21.0441 C   0  0  0  0  0  0
  -24.3568   -9.4228   21.9197 C   0  0  0  0  0  0
  -23.6280   -8.2239   22.0744 C   0  0  0  0  0  0
  -22.4258   -8.0268   21.3544 C   0  0  0  0  0  0
  -21.9885   -9.0238   20.4635 C   0  0  0  0  0  0
  -22.7190  -10.2135   20.3064 C   0  0  0  0  0  0
  -21.6834   -6.0738   22.5286 C   0  0  0  0  0  0
  -21.4004   -6.5639   23.8226 C   0  0  0  0  0  0
  -21.3660   -5.6783   24.9184 C   0  0  0  0  0  0
  -21.6044   -4.3052   24.7227 C   0  0  0  0  0  0
  -21.8820   -3.8147   23.4350 C   0  0  0  0  0  0
  -21.9181   -4.6966   22.3408 C   0  0  0  0  0  0
  -22.7800  -13.5242   21.1885 C   0  0  0  0  0  0
  -22.1646   -4.2162   21.0987 F   0  0  0  0  0  0
  -21.5629   -3.4528   25.7734 F   0  0  0  0  0  0
  -30.0245  -13.2942   20.4200 N   0  0  0  0  0  0
  -26.2944  -12.9313   20.3379 N   0  0  0  0  0  0
  -25.9247  -11.6487   20.5830 N   0  0  0  0  0  0
  -22.0425  -12.8232   22.0424 N   0  0  0  0  0  0
  -25.4262  -15.1881   20.4047 N   0  0  0  0  0  0
  -31.8787  -14.5970   20.1847 O   0  0  0  0  0  0
  -21.6624   -6.8867   21.4246 O   0  0  0  0  0  0
  -22.3520  -14.5556   20.6731 O   0  0  0  0  0  0
  -24.6136  -31.8683   23.2162 C   0  0  0  0  0  0
  -25.9042  -32.4817   23.8442 C   0  0  1  0  0  0
  -27.2331  -27.4483   20.0862 C   0  0  0  0  0  0
  -25.5916  -33.8619   24.2386 N   0  0  0  0  0  0
  -23.3997  -30.4962   21.5543 C   0  0  2  0  0  0
  -24.8407  -28.9639   20.1180 C   0  0  0  0  0  0
  -22.7411  -29.4672   22.5027 C   0  0  0  0  0  0
  -18.0271  -28.1370   22.8489 C   0  0  0  0  0  0
  -24.1477  -36.7283   23.2650 C   0  0  0  0  0  0
  -25.9304  -30.8351   21.3700 C   0  0  0  0  0  0
  -26.0011  -29.4729   20.7139 C   0  0  0  0  0  0
  -27.1952  -28.7212   20.7005 C   0  0  0  0  0  0
  -26.0435  -26.9420   19.5083 C   0  0  0  0  0  0
  -24.8540  -27.6934   19.5193 C   0  0  0  0  0  0
  -23.6038  -29.8317   20.1678 C   0  0  0  0  0  0
  -25.4105  -36.3118   24.0364 C   0  0  1  0  0  0
  -20.5857  -28.3645   23.1320 C   0  0  2  0  0  0
  -20.6771  -26.9383   22.5417 C   0  0  0  0  0  0
  -19.5750  -26.6365   21.5212 C   0  0  0  0  0  0
  -18.1921  -26.7923   22.1601 C   0  0  0  0  0  0
  -19.1514  -28.8830   23.2894 C   0  0  0  0  0  0
  -18.9451  -30.1443   23.8897 C   0  0  0  0  0  0
  -17.6455  -30.6581   24.0557 C   0  0  0  0  0  0
  -25.9029  -34.9477   23.5167 C   0  0  0  0  0  0
  -16.5343  -29.9076   23.6340 C   0  0  0  0  0  0
  -16.7258  -28.6487   23.0366 C   0  0  0  0  0  0
  -26.4491  -31.6608   25.0771 C   0  0  0  0  0  0
  -25.3797  -31.3682   26.1546 C   0  0  0  0  0  0
  -27.0358  -30.3071   24.6150 C   0  0  0  0  0  0
  -27.6069  -32.4354   25.7508 C   0  0  0  0  0  0
  -27.5587  -37.1802   24.8487 C   0  0  0  0  0  0
  -21.4137  -29.3021   22.3742 N   0  0  0  0  0  0
  -26.4295  -37.3804   23.9434 N   0  0  0  0  0  0
  -24.6652  -31.0835   22.1025 N   0  0  0  0  0  0
  -23.4203  -28.8232   23.3055 O   0  0  0  0  0  0
  -28.4335  -26.7661   20.0847 O   0  0  0  0  0  0
  -26.5575  -34.8924   22.4719 O   0  0  0  0  0  0
  -23.5334  -32.1395   23.7587 O   0  0  0  0  0  0
  -30.0939  -24.7243   21.7926 C   0  0  0  0  0  0
  -29.0618  -23.9241   21.2215 C   0  0  0  0  0  0
  -29.1423  -22.7429   21.9175 C   0  0  0  0  0  0
  -30.7264  -21.8912   23.7345 C   0  0  0  0  0  0
  -28.1172  -24.3011   20.1008 C   0  0  0  0  0  0
  -28.3296  -21.4810   21.8468 C   0  0  0  0  0  0
  -28.9552  -20.3808   20.9642 C   0  0  0  0  0  0
  -28.6817  -18.9457   21.4668 C   0  0  0  0  0  0
  -29.3303  -17.8695   20.5781 C   0  0  0  0  0  0
  -29.3155  -16.4428   21.1722 C   0  0  0  0  0  0
  -28.5593  -25.5628   19.3222 C   0  0  0  0  0  0
  -30.7825  -24.0847   22.7236 N   0  0  0  0  0  0
  -30.2051  -22.8674   22.7965 N   0  0  0  0  0  0
  -29.9095  -15.5281   20.2031 N   0  0  0  0  0  0
  -31.4625  -12.3632   19.1406 H   0  0  0  0  0  0
  -30.3105  -11.2800   19.8685 H   0  0  0  0  0  0
  -29.7342  -11.7124   17.4559 H   0  0  0  0  0  0
  -29.6715  -13.4279   17.7535 H   0  0  0  0  0  0
  -27.8222  -11.2797   18.8565 H   0  0  0  0  0  0
  -27.3604  -12.5799   17.7923 H   0  0  0  0  0  0
  -27.6763  -14.2387   19.5360 H   0  0  0  0  0  0
  -28.6663  -12.0213   21.4046 H   0  0  0  0  0  0
  -28.4865  -13.7042   21.8259 H   0  0  0  0  0  0
  -25.2716   -9.5699   22.4770 H   0  0  0  0  0  0
  -24.0008   -7.4609   22.7428 H   0  0  0  0  0  0
  -21.0836   -8.8724   19.8925 H   0  0  0  0  0  0
  -22.3644  -10.9659   19.6160 H   0  0  0  0  0  0
  -21.1996   -7.6148   23.9744 H   0  0  0  0  0  0
  -21.1481   -6.0508   25.9094 H   0  0  0  0  0  0
  -22.0603   -2.7611   23.2836 H   0  0  0  0  0  0
  -22.4036  -11.9897   22.4835 H   0  0  0  0  0  0
  -21.1039  -13.1238   22.2654 H   0  0  0  0  0  0
  -24.6655  -15.8502   20.5094 H   0  0  0  0  0  0
  -26.2839  -15.6218   20.0848 H   0  0  0  0  0  0
  -26.7119  -32.5497   23.1200 H   0  0  0  0  0  0
  -25.0219  -33.9801   25.0633 H   0  0  0  0  0  0
  -22.6855  -31.3126   21.4208 H   0  0  0  0  0  0
  -23.3770  -35.9586   23.3336 H   0  0  0  0  0  0
  -24.3589  -36.8845   22.2064 H   0  0  0  0  0  0
  -23.7189  -37.6483   23.6624 H   0  0  0  0  0  0
  -26.0676  -31.6078   20.6115 H   0  0  0  0  0  0
  -26.8108  -30.8688   22.0002 H   0  0  0  0  0  0
  -28.0908  -29.1168   21.1565 H   0  0  0  0  0  0
  -26.0052  -25.9656   19.0503 H   0  0  0  0  0  0
  -23.9545  -27.2876   19.0762 H   0  0  0  0  0  0
  -23.7154  -30.6078   19.4094 H   0  0  0  0  0  0
  -22.7240  -29.2559   19.8719 H   0  0  0  0  0  0
  -25.1273  -36.2004   25.0860 H   0  0  0  0  0  0
  -20.9940  -28.3194   24.1439 H   0  0  0  0  0  0
  -20.5702  -26.2237   23.3592 H   0  0  0  0  0  0
  -21.6642  -26.7446   22.1196 H   0  0  0  0  0  0
  -19.6909  -25.6282   21.1219 H   0  0  0  0  0  0
  -19.6711  -27.3201   20.6765 H   0  0  0  0  0  0
  -17.4217  -26.6690   21.3978 H   0  0  0  0  0  0
  -18.0295  -26.0059   22.8983 H   0  0  0  0  0  0
  -19.7930  -30.7246   24.2265 H   0  0  0  0  0  0
  -17.5016  -31.6266   24.5149 H   0  0  0  0  0  0
  -15.5351  -30.2978   23.7676 H   0  0  0  0  0  0
  -15.8648  -28.0798   22.7105 H   0  0  0  0  0  0
  -24.5948  -30.7039   25.7910 H   0  0  0  0  0  0
  -24.9021  -32.2819   26.5075 H   0  0  0  0  0  0
  -25.8181  -30.8809   27.0262 H   0  0  0  0  0  0
  -26.2909  -29.6776   24.1271 H   0  0  0  0  0  0
  -27.4238  -29.7342   25.4579 H   0  0  0  0  0  0
  -27.8677  -30.4434   23.9250 H   0  0  0  0  0  0
  -27.2686  -33.3643   26.2114 H   0  0  0  0  0  0
  -28.3838  -32.6937   25.0304 H   0  0  0  0  0  0
  -28.0794  -31.8493   26.5395 H   0  0  0  0  0  0
  -28.2632  -38.0078   24.7551 H   0  0  0  0  0  0
  -28.1054  -36.2614   24.6295 H   0  0  0  0  0  0
  -27.2318  -37.1449   25.8896 H   0  0  0  0  0  0
  -20.9322  -29.8706   21.6930 H   0  0  0  0  0  0
  -26.0183  -38.2884   24.1424 H   0  0  0  0  0  0
  -30.3780  -25.7387   21.5466 H   0  0  0  0  0  0
  -29.9735  -21.6690   24.4922 H   0  0  0  0  0  0
  -31.6249  -22.2649   24.2266 H   0  0  0  0  0  0
  -30.9790  -20.9711   23.2070 H   0  0  0  0  0  0
  -27.1068  -24.4359   20.4861 H   0  0  0  0  0  0
  -28.0463  -23.4800   19.3880 H   0  0  0  0  0  0
  -27.3245  -21.7110   21.4914 H   0  0  0  0  0  0
  -28.1871  -21.1022   22.8601 H   0  0  0  0  0  0
  -30.0358  -20.5203   20.9393 H   0  0  0  0  0  0
  -28.6185  -20.5115   19.9336 H   0  0  0  0  0  0
  -27.6066  -18.7723   21.5187 H   0  0  0  0  0  0
  -29.0649  -18.8491   22.4848 H   0  0  0  0  0  0
  -30.3673  -18.1515   20.3884 H   0  0  0  0  0  0
  -28.8315  -17.8778   19.6053 H   0  0  0  0  0  0
  -28.2959  -16.1285   21.3923 H   0  0  0  0  0  0
  -29.8744  -16.4225   22.1100 H   0  0  0  0  0  0
  -28.0365  -25.6509   18.3700 H   0  0  0  0  0  0
  -29.6091  -25.4585   19.0465 H   0  0  0  0  0  0
  -30.3113  -16.0515   19.4396 H   0  0  0  0  0  0
  1 25  1  0  0  0
  1 30  2  0  0  0
  1 84  1  0  0  0
  2  3  1  0  0  0
  2 25  1  0  0  0
  2 85  1  0  0  0
  2 86  1  0  0  0
  3  4  1  0  0  0
  3 87  1  0  0  0
  3 88  1  0  0  0
  4  5  1  0  0  0
  4 89  1  0  0  0
  4 90  1  0  0  0
  5  6  1  0  0  0
  5 26  1  0  0  0
  5 91  1  0  0  0
  6 25  1  0  0  0
  6 92  1  0  0  0
  6 93  1  0  0  0
  7  8  2  0  0  0
  7 26  1  0  0  0
  7 29  1  0  0  0
  8  9  1  0  0  0
  8 22  1  0  0  0
  9 10  1  0  0  0
  9 27  2  0  0  0
 10 11  2  0  0  0
 10 15  1  0  0  0
 11 12  1  0  0  0
 11 94  1  0  0  0
 12 13  2  0  0  0
 12 95  1  0  0  0
 13 14  1  0  0  0
 13 31  1  0  0  0
 14 15  2  0  0  0
 14 96  1  0  0  0
 15 97  1  0  0  0
 16 17  2  0  0  0
 16 21  1  0  0  0
 16 31  1  0  0  0
 17 18  1  0  0  0
 17 98  1  0  0  0
 18 19  2  0  0  0
 18 99  1  0  0  0
 19 20  1  0  0  0
 19 24  1  0  0  0
 20 21  2  0  0  0
 20100  1  0  0  0
 21 23  1  0  0  0
 22 28  1  0  0  0
 22 32  2  0  0  0
 26 27  1  0  0  0
 28101  1  0  0  0
 28102  1  0  0  0
 29103  1  0  0  0
 29104  1  0  0  0
 33 34  1  0  0  0
 33 66  1  0  0  0
 33 70  2  0  0  0
 34 36  1  0  0  0
 34 59  1  0  0  0
 34105  1  0  0  0
 35 44  2  0  0  0
 35 45  1  0  0  0
 35 68  1  0  0  0
 36 56  1  0  0  0
 36106  1  0  0  0
 37 39  1  0  0  0
 37 47  1  0  0  0
 37 66  1  0  0  0
 37107  1  0  0  0
 38 43  2  0  0  0
 38 46  1  0  0  0
 38 47  1  0  0  0
 39 64  1  0  0  0
 39 67  2  0  0  0
 40 52  1  0  0  0
 40 53  2  0  0  0
 40 58  1  0  0  0
 41108  1  0  0  0
 41109  1  0  0  0
 41110  1  0  0  0
 41 48  1  0  0  0
 42 43  1  0  0  0
 42 66  1  0  0  0
 42111  1  0  0  0
 42112  1  0  0  0
 43 44  1  0  0  0
 44113  1  0  0  0
 45 46  2  0  0  0
 45114  1  0  0  0
 46115  1  0  0  0
 47116  1  0  0  0
 47117  1  0  0  0
 48 56  1  0  0  0
 48 65  1  0  0  0
 48118  1  0  0  0
 49 50  1  0  0  0
 49 53  1  0  0  0
 49 64  1  0  0  0
 49119  1  0  0  0
 50 51  1  0  0  0
 50120  1  0  0  0
 50121  1  0  0  0
 51 52  1  0  0  0
 51122  1  0  0  0
 51123  1  0  0  0
 52124  1  0  0  0
 52125  1  0  0  0
 53 54  1  0  0  0
 54 55  2  0  0  0
 54126  1  0  0  0
 55 57  1  0  0  0
 55127  1  0  0  0
 56 69  2  0  0  0
 57 58  2  0  0  0
 57128  1  0  0  0
 58129  1  0  0  0
 59 60  1  0  0  0
 59 61  1  0  0  0
 59 62  1  0  0  0
 60130  1  0  0  0
 60131  1  0  0  0
 60132  1  0  0  0
 61133  1  0  0  0
 61134  1  0  0  0
 61135  1  0  0  0
 62136  1  0  0  0
 62137  1  0  0  0
 62138  1  0  0  0
 63 65  1  0  0  0
 63139  1  0  0  0
 63140  1  0  0  0
 63141  1  0  0  0
 64142  1  0  0  0
 65143  1  0  0  0
 68 81  1  0  0  0
 71 72  1  0  0  0
 71 82  2  0  0  0
 71144  1  0  0  0
 72 73  2  0  0  0
 72 75  1  0  0  0
 73 76  1  0  0  0
 73 83  1  0  0  0
 74 83  1  0  0  0
 74145  1  0  0  0
 74146  1  0  0  0
 74147  1  0  0  0
 75 81  1  0  0  0
 75148  1  0  0  0
 75149  1  0  0  0
 76 77  1  0  0  0
 76150  1  0  0  0
 76151  1  0  0  0
 77 78  1  0  0  0
 77152  1  0  0  0
 77153  1  0  0  0
 78 79  1  0  0  0
 78154  1  0  0  0
 78155  1  0  0  0
 79 80  1  0  0  0
 79156  1  0  0  0
 79157  1  0  0  0
 80 84  1  0  0  0
 80158  1  0  0  0
 80159  1  0  0  0
 81160  1  0  0  0
 81161  1  0  0  0
 82 83  1  0  0  0
 84162  1  0  0  0
M  ISO  4   1 100  68 101  81 101  84 100
M  END
> <chiral flag>
0

> <version>
0

> <s_m_source_file>
/data/baiqing/PycharmProjects/Reinvent-master-3.2/result/LINK_invent/BTK/process_docking_weight1_custom_sum_contain_oxygen_bond_distance_aromatic_linkinvent_7_9_3/rearranged_h_0038.sdf

> <i_m_source_file_index>
50

> <r_mmod_Potential_Energy-OPLS-2005>
-39.6873741149902

> <r_mmod_Stretch_Energy-OPLS-2005>
31.5263042449951

> <r_mmod_Bend_Energy-OPLS-2005>
106.44588470459

> <r_mmod_Torsional_Energy-OPLS-2005>
262.030548095703

> <r_mmod_Improper_Torsional_Energy-OPLS-2005>
27.0921421051025

> <r_mmod_Van_der_Waal_Energy-OPLS-2005>
121.930458068848

> <r_mmod_Electrostatic_Energy-OPLS-2005>
-386.652374267578

> <r_mmod_Solvation_Energy-OPLS-2005>
-221.4462890625

> <b_mmod_Minimization_Converged-OPLS-2005>
0

> <r_mmod_RMS_Derivative-OPLS-2005>
3.07099533081055

$$$$
51
                    3D
 Structure written by MMmdl.
167175  0  0  1  0            999 V2000
  -30.8547  -14.2441   20.7764 C   0  0  0  0  0  0
  -30.4044  -12.2909   19.3575 C   0  0  0  0  0  0
  -29.4620  -12.5496   18.1741 C   0  0  0  0  0  0
  -27.9980  -12.3756   18.6083 C   0  0  0  0  0  0
  -27.6626  -13.2044   19.8732 C   0  0  2  0  0  0
  -28.7024  -12.9666   20.9906 C   0  0  0  0  0  0
  -25.2587  -13.8177   20.5667 C   0  0  0  0  0  0
  -24.1835  -13.0445   20.9176 C   0  0  0  0  0  0
  -24.6388  -11.6913   20.8733 C   0  0  0  0  0  0
  -23.9051  -10.4298   21.0408 C   0  0  0  0  0  0
  -24.3608   -9.4218   21.9186 C   0  0  0  0  0  0
  -23.6291   -8.2247   22.0747 C   0  0  0  0  0  0
  -22.4271   -8.0283   21.3539 C   0  0  0  0  0  0
  -21.9909   -9.0254   20.4637 C   0  0  0  0  0  0
  -22.7229  -10.2139   20.3053 C   0  0  0  0  0  0
  -21.6858   -6.0744   22.5278 C   0  0  0  0  0  0
  -21.4012   -6.5644   23.8211 C   0  0  0  0  0  0
  -21.3657   -5.6795   24.9173 C   0  0  0  0  0  0
  -21.6048   -4.3058   24.7223 C   0  0  0  0  0  0
  -21.8817   -3.8150   23.4342 C   0  0  0  0  0  0
  -21.9191   -4.6972   22.3399 C   0  0  0  0  0  0
  -22.7865  -13.5249   21.1851 C   0  0  0  0  0  0
  -22.1662   -4.2160   21.0979 F   0  0  0  0  0  0
  -21.5626   -3.4533   25.7733 F   0  0  0  0  0  0
  -30.0555  -13.2024   20.4533 N   0  0  0  0  0  0
  -26.3018  -12.9337   20.3361 N   0  0  0  0  0  0
  -25.9309  -11.6492   20.5751 N   0  0  0  0  0  0
  -22.0496  -12.8228   22.0399 N   0  0  0  0  0  0
  -25.4334  -15.1883   20.4084 N   0  0  0  0  0  0
  -31.7425  -14.6823   20.0395 O   0  0  0  0  0  0
  -21.6632   -6.8883   21.4238 O   0  0  0  0  0  0
  -22.3537  -14.5550   20.6706 O   0  0  0  0  0  0
  -24.6092  -31.8711   23.2125 C   0  0  0  0  0  0
  -25.9025  -32.4804   23.8410 C   0  0  1  0  0  0
  -27.2437  -27.4737   20.0644 C   0  0  0  0  0  0
  -25.5931  -33.8614   24.2350 N   0  0  0  0  0  0
  -23.3925  -30.4947   21.5512 C   0  0  2  0  0  0
  -24.8381  -28.9610   20.1127 C   0  0  0  0  0  0
  -22.7384  -29.4673   22.5020 C   0  0  0  0  0  0
  -18.0270  -28.1341   22.8497 C   0  0  0  0  0  0
  -24.1493  -36.7312   23.2642 C   0  0  0  0  0  0
  -25.9180  -30.8429   21.3613 C   0  0  0  0  0  0
  -25.9921  -29.4776   20.7106 C   0  0  0  0  0  0
  -27.1888  -28.7341   20.6932 C   0  0  0  0  0  0
  -26.0709  -26.9661   19.4557 C   0  0  0  0  0  0
  -24.8702  -27.7008   19.4903 C   0  0  0  0  0  0
  -23.5962  -29.8216   20.1654 C   0  0  0  0  0  0
  -25.4104  -36.3098   24.0341 C   0  0  1  0  0  0
  -20.5858  -28.3628   23.1338 C   0  0  2  0  0  0
  -20.6753  -26.9372   22.5431 C   0  0  0  0  0  0
  -19.5751  -26.6358   21.5209 C   0  0  0  0  0  0
  -18.1918  -26.7894   22.1609 C   0  0  0  0  0  0
  -19.1517  -28.8801   23.2908 C   0  0  0  0  0  0
  -18.9462  -30.1399   23.8924 C   0  0  0  0  0  0
  -17.6476  -30.6565   24.0555 C   0  0  0  0  0  0
  -25.9043  -34.9460   23.5136 C   0  0  0  0  0  0
  -16.5355  -29.9074   23.6318 C   0  0  0  0  0  0
  -16.7258  -28.6462   23.0376 C   0  0  0  0  0  0
  -26.4510  -31.6551   25.0701 C   0  0  0  0  0  0
  -25.3830  -31.3643   26.1490 C   0  0  0  0  0  0
  -27.0358  -30.3015   24.5987 C   0  0  0  0  0  0
  -27.6077  -32.4274   25.7485 C   0  0  0  0  0  0
  -27.5576  -37.1801   24.8463 C   0  0  0  0  0  0
  -21.4127  -29.3013   22.3758 N   0  0  0  0  0  0
  -26.4286  -37.3768   23.9410 N   0  0  0  0  0  0
  -24.6572  -31.0844   22.1001 N   0  0  0  0  0  0
  -23.4193  -28.8240   23.3050 O   0  0  0  0  0  0
  -28.4568  -26.8217   20.0879 O   0  0  0  0  0  0
  -26.5576  -34.8889   22.4684 O   0  0  0  0  0  0
  -23.5298  -32.1481   23.7543 O   0  0  0  0  0  0
  -30.0253  -23.0372   18.6796 C   0  0  0  0  0  0
  -28.6140  -21.9871   20.3342 C   0  0  0  0  0  0
  -28.9391  -23.1255   19.5787 C   0  0  0  0  0  0
  -30.7596  -21.8375   18.6163 C   0  0  0  0  0  0
  -30.3514  -20.7522   19.4231 C   0  0  0  0  0  0
  -31.9870  -21.7506   17.7250 C   0  0  0  0  0  0
  -28.1173  -24.3923   19.7939 C   0  0  0  0  0  0
  -31.0857  -19.4209   19.4622 C   0  0  0  0  0  0
  -32.1638  -19.3886   20.5633 C   0  0  0  0  0  0
  -32.3031  -18.0356   21.2845 C   0  0  0  0  0  0
  -31.0584  -17.6679   22.1227 C   0  0  0  0  0  0
  -31.3444  -16.6843   23.2708 C   0  0  0  0  0  0
  -31.8076  -15.2875   22.8281 C   0  0  0  0  0  0
  -28.7252  -25.7015   19.2503 C   0  0  0  0  0  0
  -29.2997  -20.8327   20.2615 N   0  0  0  0  0  0
  -30.7832  -14.5732   22.0715 N   0  0  0  0  0  0
  -31.4435  -12.4016   19.0414 H   0  0  0  0  0  0
  -30.3107  -11.2599   19.7022 H   0  0  0  0  0  0
  -29.6929  -11.8724   17.3506 H   0  0  0  0  0  0
  -29.6176  -13.5607   17.7941 H   0  0  0  0  0  0
  -27.8259  -11.3157   18.7981 H   0  0  0  0  0  0
  -27.3288  -12.6490   17.7915 H   0  0  0  0  0  0
  -27.7169  -14.2557   19.5874 H   0  0  0  0  0  0
  -28.6388  -11.9424   21.3611 H   0  0  0  0  0  0
  -28.4591  -13.6111   21.8372 H   0  0  0  0  0  0
  -25.2755   -9.5695   22.4756 H   0  0  0  0  0  0
  -24.0006   -7.4633   22.7460 H   0  0  0  0  0  0
  -21.0843   -8.8773   19.8934 H   0  0  0  0  0  0
  -22.3695  -10.9677   19.6155 H   0  0  0  0  0  0
  -21.2009   -7.6149   23.9726 H   0  0  0  0  0  0
  -21.1479   -6.0517   25.9081 H   0  0  0  0  0  0
  -22.0601   -2.7609   23.2835 H   0  0  0  0  0  0
  -22.4088  -11.9883   22.4785 H   0  0  0  0  0  0
  -21.1114  -13.1248   22.2605 H   0  0  0  0  0  0
  -24.6754  -15.8523   20.5219 H   0  0  0  0  0  0
  -26.2995  -15.6224   20.1133 H   0  0  0  0  0  0
  -26.7077  -32.5510   23.1158 H   0  0  0  0  0  0
  -25.0161  -33.9783   25.0549 H   0  0  0  0  0  0
  -22.6756  -31.3067   21.4123 H   0  0  0  0  0  0
  -23.3721  -35.9682   23.3313 H   0  0  0  0  0  0
  -24.3610  -36.8914   22.2059 H   0  0  0  0  0  0
  -23.7260  -37.6526   23.6650 H   0  0  0  0  0  0
  -26.0217  -31.6097   20.5932 H   0  0  0  0  0  0
  -26.8118  -30.8980   21.9734 H   0  0  0  0  0  0
  -28.0840  -29.1323   21.1496 H   0  0  0  0  0  0
  -26.0593  -26.0189   18.9431 H   0  0  0  0  0  0
  -23.9810  -27.2995   19.0245 H   0  0  0  0  0  0
  -23.6985  -30.5956   19.4047 H   0  0  0  0  0  0
  -22.7176  -29.2410   19.8716 H   0  0  0  0  0  0
  -25.1254  -36.1993   25.0827 H   0  0  0  0  0  0
  -20.9940  -28.3194   24.1467 H   0  0  0  0  0  0
  -20.5644  -26.2255   23.3626 H   0  0  0  0  0  0
  -21.6628  -26.7408   22.1250 H   0  0  0  0  0  0
  -19.6933  -25.6281   21.1216 H   0  0  0  0  0  0
  -19.6683  -27.3187   20.6760 H   0  0  0  0  0  0
  -17.4205  -26.6670   21.3982 H   0  0  0  0  0  0
  -18.0294  -25.9993   22.8968 H   0  0  0  0  0  0
  -19.7948  -30.7184   24.2316 H   0  0  0  0  0  0
  -17.5040  -31.6247   24.5156 H   0  0  0  0  0  0
  -15.5362  -30.3010   23.7574 H   0  0  0  0  0  0
  -15.8655  -28.0759   22.7147 H   0  0  0  0  0  0
  -24.6018  -30.6921   25.7901 H   0  0  0  0  0  0
  -24.9006  -32.2800   26.4930 H   0  0  0  0  0  0
  -25.8282  -30.8887   27.0245 H   0  0  0  0  0  0
  -26.2877  -29.6719   24.1140 H   0  0  0  0  0  0
  -27.4319  -29.7249   25.4358 H   0  0  0  0  0  0
  -27.8616  -30.4356   23.8990 H   0  0  0  0  0  0
  -27.2666  -33.3554   26.2080 H   0  0  0  0  0  0
  -28.3921  -32.6849   25.0361 H   0  0  0  0  0  0
  -28.0703  -31.8384   26.5411 H   0  0  0  0  0  0
  -28.2569  -38.0112   24.7493 H   0  0  0  0  0  0
  -28.1082  -36.2634   24.6299 H   0  0  0  0  0  0
  -27.2305  -37.1467   25.8867 H   0  0  0  0  0  0
  -20.9311  -29.8752   21.6997 H   0  0  0  0  0  0
  -26.0173  -38.2852   24.1403 H   0  0  0  0  0  0
  -30.3211  -23.8730   18.0622 H   0  0  0  0  0  0
  -27.7857  -22.0011   21.0277 H   0  0  0  0  0  0
  -32.8598  -21.4574   18.3093 H   0  0  0  0  0  0
  -32.2158  -22.7099   17.2616 H   0  0  0  0  0  0
  -31.8417  -21.0187   16.9303 H   0  0  0  0  0  0
  -27.9672  -24.4975   20.8693 H   0  0  0  0  0  0
  -27.1310  -24.2235   19.3617 H   0  0  0  0  0  0
  -31.5240  -19.1917   18.4909 H   0  0  0  0  0  0
  -30.3416  -18.6424   19.6281 H   0  0  0  0  0  0
  -31.9422  -20.1445   21.3179 H   0  0  0  0  0  0
  -33.1183  -19.6917   20.1321 H   0  0  0  0  0  0
  -33.1745  -18.0879   21.9407 H   0  0  0  0  0  0
  -32.5185  -17.2498   20.5603 H   0  0  0  0  0  0
  -30.2721  -17.2728   21.4793 H   0  0  0  0  0  0
  -30.6422  -18.5731   22.5689 H   0  0  0  0  0  0
  -30.4455  -16.5825   23.8833 H   0  0  0  0  0  0
  -32.0981  -17.1149   23.9334 H   0  0  0  0  0  0
  -32.0238  -14.6893   23.7146 H   0  0  0  0  0  0
  -32.7501  -15.3416   22.2773 H   0  0  0  0  0  0
  -29.8143  -25.6363   19.2748 H   0  0  0  0  0  0
  -28.4579  -25.8792   18.2084 H   0  0  0  0  0  0
  -30.0691  -14.0981   22.6041 H   0  0  0  0  0  0
  1 25  1  0  0  0
  1 30  2  0  0  0
  1 86  1  0  0  0
  2  3  1  0  0  0
  2 25  1  0  0  0
  2 87  1  0  0  0
  2 88  1  0  0  0
  3  4  1  0  0  0
  3 89  1  0  0  0
  3 90  1  0  0  0
  4  5  1  0  0  0
  4 91  1  0  0  0
  4 92  1  0  0  0
  5  6  1  0  0  0
  5 26  1  0  0  0
  5 93  1  0  0  0
  6 25  1  0  0  0
  6 94  1  0  0  0
  6 95  1  0  0  0
  7  8  2  0  0  0
  7 26  1  0  0  0
  7 29  1  0  0  0
  8  9  1  0  0  0
  8 22  1  0  0  0
  9 10  1  0  0  0
  9 27  2  0  0  0
 10 11  2  0  0  0
 10 15  1  0  0  0
 11 12  1  0  0  0
 11 96  1  0  0  0
 12 13  2  0  0  0
 12 97  1  0  0  0
 13 14  1  0  0  0
 13 31  1  0  0  0
 14 15  2  0  0  0
 14 98  1  0  0  0
 15 99  1  0  0  0
 16 17  2  0  0  0
 16 21  1  0  0  0
 16 31  1  0  0  0
 17 18  1  0  0  0
 17100  1  0  0  0
 18 19  2  0  0  0
 18101  1  0  0  0
 19 20  1  0  0  0
 19 24  1  0  0  0
 20 21  2  0  0  0
 20102  1  0  0  0
 21 23  1  0  0  0
 22 28  1  0  0  0
 22 32  2  0  0  0
 26 27  1  0  0  0
 28103  1  0  0  0
 28104  1  0  0  0
 29105  1  0  0  0
 29106  1  0  0  0
 33 34  1  0  0  0
 33 66  1  0  0  0
 33 70  2  0  0  0
 34 36  1  0  0  0
 34 59  1  0  0  0
 34107  1  0  0  0
 35 44  2  0  0  0
 35 45  1  0  0  0
 35 68  1  0  0  0
 36 56  1  0  0  0
 36108  1  0  0  0
 37 39  1  0  0  0
 37 47  1  0  0  0
 37 66  1  0  0  0
 37109  1  0  0  0
 38 43  2  0  0  0
 38 46  1  0  0  0
 38 47  1  0  0  0
 39 64  1  0  0  0
 39 67  2  0  0  0
 40 52  1  0  0  0
 40 53  2  0  0  0
 40 58  1  0  0  0
 41110  1  0  0  0
 41111  1  0  0  0
 41112  1  0  0  0
 41 48  1  0  0  0
 42 43  1  0  0  0
 42 66  1  0  0  0
 42113  1  0  0  0
 42114  1  0  0  0
 43 44  1  0  0  0
 44115  1  0  0  0
 45 46  2  0  0  0
 45116  1  0  0  0
 46117  1  0  0  0
 47118  1  0  0  0
 47119  1  0  0  0
 48 56  1  0  0  0
 48 65  1  0  0  0
 48120  1  0  0  0
 49 50  1  0  0  0
 49 53  1  0  0  0
 49 64  1  0  0  0
 49121  1  0  0  0
 50 51  1  0  0  0
 50122  1  0  0  0
 50123  1  0  0  0
 51 52  1  0  0  0
 51124  1  0  0  0
 51125  1  0  0  0
 52126  1  0  0  0
 52127  1  0  0  0
 53 54  1  0  0  0
 54 55  2  0  0  0
 54128  1  0  0  0
 55 57  1  0  0  0
 55129  1  0  0  0
 56 69  2  0  0  0
 57 58  2  0  0  0
 57130  1  0  0  0
 58131  1  0  0  0
 59 60  1  0  0  0
 59 61  1  0  0  0
 59 62  1  0  0  0
 60132  1  0  0  0
 60133  1  0  0  0
 60134  1  0  0  0
 61135  1  0  0  0
 61136  1  0  0  0
 61137  1  0  0  0
 62138  1  0  0  0
 62139  1  0  0  0
 62140  1  0  0  0
 63 65  1  0  0  0
 63141  1  0  0  0
 63142  1  0  0  0
 63143  1  0  0  0
 64144  1  0  0  0
 65145  1  0  0  0
 68 84  1  0  0  0
 71 73  2  0  0  0
 71 74  1  0  0  0
 71146  1  0  0  0
 72 73  1  0  0  0
 72 85  2  0  0  0
 72147  1  0  0  0
 73 77  1  0  0  0
 74 75  2  0  0  0
 74 76  1  0  0  0
 75 78  1  0  0  0
 75 85  1  0  0  0
 76148  1  0  0  0
 76149  1  0  0  0
 76150  1  0  0  0
 77 84  1  0  0  0
 77151  1  0  0  0
 77152  1  0  0  0
 78 79  1  0  0  0
 78153  1  0  0  0
 78154  1  0  0  0
 79 80  1  0  0  0
 79155  1  0  0  0
 79156  1  0  0  0
 80 81  1  0  0  0
 80157  1  0  0  0
 80158  1  0  0  0
 81 82  1  0  0  0
 81159  1  0  0  0
 81160  1  0  0  0
 82 83  1  0  0  0
 82161  1  0  0  0
 82162  1  0  0  0
 83 86  1  0  0  0
 83163  1  0  0  0
 83164  1  0  0  0
 84165  1  0  0  0
 84166  1  0  0  0
 86167  1  0  0  0
M  ISO  4   1 100  68 101  84 101  86 100
M  END
> <chiral flag>
0

> <version>
0

> <s_m_source_file>
/data/baiqing/PycharmProjects/Reinvent-master-3.2/result/LINK_invent/BTK/process_docking_weight1_custom_sum_contain_oxygen_bond_distance_aromatic_linkinvent_7_9_3/rearranged_h_0038.sdf

> <i_m_source_file_index>
51

> <r_mmod_Potential_Energy-OPLS-2005>
-222.488021850586

> <r_mmod_Stretch_Energy-OPLS-2005>
31.1081562042236

> <r_mmod_Bend_Energy-OPLS-2005>
104.931755065918

> <r_mmod_Torsional_Energy-OPLS-2005>
215.199752807617

> <r_mmod_Improper_Torsional_Energy-OPLS-2005>
6.4168529510498

> <r_mmod_Van_der_Waal_Energy-OPLS-2005>
155.122573852539

> <r_mmod_Electrostatic_Energy-OPLS-2005>
-534.0615234375

> <r_mmod_Solvation_Energy-OPLS-2005>
-213.229125976562

> <b_mmod_Minimization_Converged-OPLS-2005>
0

> <r_mmod_RMS_Derivative-OPLS-2005>
3.21517372131348

$$$$
52
                    3D
 Structure written by MMmdl.
176184  0  0  1  0            999 V2000
  -30.2206  -15.2524   20.7506 C   0  0  0  0  0  0
  -30.4224  -12.8683   19.6081 C   0  0  0  0  0  0
  -29.5448  -12.6380   18.3414 C   0  0  0  0  0  0
  -28.0867  -12.3217   18.7204 C   0  0  0  0  0  0
  -27.5961  -13.2522   19.8548 C   0  0  2  0  0  0
  -28.5761  -13.3095   21.0364 C   0  0  0  0  0  0
  -25.2268  -13.8191   20.5673 C   0  0  0  0  0  0
  -24.1634  -13.0408   20.9237 C   0  0  0  0  0  0
  -24.6265  -11.6899   20.8746 C   0  0  0  0  0  0
  -23.9001  -10.4270   21.0425 C   0  0  0  0  0  0
  -24.3581   -9.4196   21.9195 C   0  0  0  0  0  0
  -23.6272   -8.2220   22.0756 C   0  0  0  0  0  0
  -22.4257   -8.0258   21.3542 C   0  0  0  0  0  0
  -21.9878   -9.0222   20.4648 C   0  0  0  0  0  0
  -22.7185  -10.2111   20.3064 C   0  0  0  0  0  0
  -21.6846   -6.0727   22.5283 C   0  0  0  0  0  0
  -21.4009   -6.5637   23.8218 C   0  0  0  0  0  0
  -21.3656   -5.6794   24.9177 C   0  0  0  0  0  0
  -21.6044   -4.3055   24.7233 C   0  0  0  0  0  0
  -21.8815   -3.8146   23.4353 C   0  0  0  0  0  0
  -21.9189   -4.6955   22.3412 C   0  0  0  0  0  0
  -22.7679  -13.5192   21.1909 C   0  0  0  0  0  0
  -22.1656   -4.2143   21.0986 F   0  0  0  0  0  0
  -21.5625   -3.4542   25.7745 F   0  0  0  0  0  0
  -29.7898  -13.9163   20.5085 N   0  0  0  0  0  0
  -26.2599  -12.9382   20.3110 N   0  0  0  0  0  0
  -25.9160  -11.6523   20.5651 N   0  0  0  0  0  0
  -22.0356  -12.8189   22.0483 N   0  0  0  0  0  0
  -25.3997  -15.1922   20.4110 N   0  0  0  0  0  0
  -31.4272  -15.3951   20.4679 O   0  0  0  0  0  0
  -21.6626   -6.8854   21.4243 O   0  0  0  0  0  0
  -22.3392  -14.5507   20.6764 O   0  0  0  0  0  0
  -24.9923  -31.7119   23.3034 C   0  0  0  0  0  0
  -26.2786  -32.4025   23.8227 C   0  0  1  0  0  0
  -27.3933  -27.9458   19.7203 C   0  0  0  0  0  0
  -25.9538  -33.8345   24.2192 N   0  0  0  0  0  0
  -23.4902  -29.8562   21.4686 C   0  0  2  0  0  0
  -24.9319  -28.4626   20.2812 C   0  0  0  0  0  0
  -22.5011  -28.8610   22.0364 C   0  0  0  0  0  0
  -17.9098  -28.1298   22.8196 C   0  0  0  0  0  0
  -24.1718  -36.6652   23.2748 C   0  0  0  0  0  0
  -26.0102  -30.1104   21.9876 C   0  0  0  0  0  0
  -25.9821  -28.9006   21.1489 C   0  0  0  0  0  0
  -27.2507  -28.3728   21.0030 C   0  0  0  0  0  0
  -26.4439  -27.0144   19.2436 C   0  0  0  0  0  0
  -25.1201  -27.3921   19.4196 C   0  0  0  0  0  0
  -23.6562  -29.1191   20.1903 C   0  0  0  0  0  0
  -25.4446  -36.2696   24.0479 C   0  0  1  0  0  0
  -20.4277  -28.2120   23.0490 C   0  0  2  0  0  0
  -20.4022  -26.7390   22.5805 C   0  0  0  0  0  0
  -19.3832  -26.5429   21.4880 C   0  0  0  0  0  0
  -18.0069  -26.7980   22.0911 C   0  0  0  0  0  0
  -19.0591  -28.8202   23.2637 C   0  0  0  0  0  0
  -18.9268  -30.0837   23.8828 C   0  0  0  0  0  0
  -17.6520  -30.6493   24.0676 C   0  0  0  0  0  0
  -26.0360  -34.9517   23.4951 C   0  0  0  0  0  0
  -16.5083  -29.9436   23.6528 C   0  0  0  0  0  0
  -16.6382  -28.6874   23.0358 C   0  0  0  0  0  0
  -26.7280  -31.6645   25.1509 C   0  0  0  0  0  0
  -25.6320  -31.4159   26.2363 C   0  0  0  0  0  0
  -27.5028  -30.3586   24.8458 C   0  0  0  0  0  0
  -27.7794  -32.5478   25.8455 C   0  0  0  0  0  0
  -27.5683  -37.1969   24.8642 C   0  0  0  0  0  0
  -21.1901  -29.0415   22.1334 N   0  0  0  0  0  0
  -26.4135  -37.3892   23.9910 N   0  0  0  0  0  0
  -24.7613  -30.6067   22.3382 N   0  0  0  0  0  0
  -22.9438  -27.8807   22.4820 O   0  0  0  0  0  0
  -27.4198  -29.1273   18.9661 O   0  0  0  0  0  0
  -26.6389  -34.9877   22.4376 O   0  0  0  0  0  0
  -24.1659  -32.3575   23.9622 O   0  0  0  0  0  0
  -27.5996  -31.6075   19.5503 C   0  0  0  0  0  0
  -25.3341  -31.0760   19.3091 C   0  0  0  0  0  0
  -26.7635  -30.5277   19.2111 C   0  0  0  0  0  0
  -27.0688  -32.8338   20.0501 C   0  0  0  0  0  0
  -24.7550  -32.1570   20.2458 C   0  0  0  0  0  0
  -28.0380  -33.9945   20.1704 C   0  0  0  0  0  0
  -23.2263  -32.4313   21.2637 C   0  0  0  0  0  0
  -22.3078  -31.5460   22.8099 C   0  0  0  0  0  0
  -22.8819  -30.1697   24.2135 C   0  0  0  0  0  0
  -24.1838  -28.7029   24.4946 C   0  0  0  0  0  0
  -24.7102  -26.9299   23.9404 C   0  0  0  0  0  0
  -25.9940  -25.6141   23.9436 C   0  0  0  0  0  0
  -26.0531  -23.8470   23.3921 C   0  0  0  0  0  0
  -27.2862  -22.6209   22.7607 C   0  0  0  0  0  0
  -27.5277  -20.7867   22.7619 C   0  0  0  0  0  0
  -28.2885  -19.4749   21.7002 C   0  0  0  0  0  0
  -29.1758  -17.8762   21.9450 C   0  0  0  0  0  0
  -25.7663  -33.0443   20.4708 N   0  0  0  0  0  0
  -29.2863  -16.3618   21.1708 N   0  0  0  0  0  0
  -31.4248  -13.1703   19.3033 H   0  0  0  0  0  0
  -30.5539  -11.9316   20.1533 H   0  0  0  0  0  0
  -29.9588  -11.8375   17.7274 H   0  0  0  0  0  0
  -29.5672  -13.5396   17.7278 H   0  0  0  0  0  0
  -28.0404  -11.2842   19.0526 H   0  0  0  0  0  0
  -27.4357  -12.3946   17.8481 H   0  0  0  0  0  0
  -27.5495  -14.2475   19.4114 H   0  0  0  0  0  0
  -28.7574  -12.3168   21.4529 H   0  0  0  0  0  0
  -28.1697  -13.9120   21.8502 H   0  0  0  0  0  0
  -25.2721   -9.5691   22.4774 H   0  0  0  0  0  0
  -23.9987   -7.4619   22.7480 H   0  0  0  0  0  0
  -21.0804   -8.8736   19.8963 H   0  0  0  0  0  0
  -22.3630  -10.9652   19.6184 H   0  0  0  0  0  0
  -21.2000   -7.6148   23.9716 H   0  0  0  0  0  0
  -21.1482   -6.0528   25.9081 H   0  0  0  0  0  0
  -22.0599   -2.7610   23.2860 H   0  0  0  0  0  0
  -22.3969  -11.9838   22.4841 H   0  0  0  0  0  0
  -21.0998  -13.1242   22.2736 H   0  0  0  0  0  0
  -24.6253  -15.8397   20.5066 H   0  0  0  0  0  0
  -26.2154  -15.6182   19.9918 H   0  0  0  0  0  0
  -27.0718  -32.4246   23.0775 H   0  0  0  0  0  0
  -25.3631  -33.8880   25.0350 H   0  0  0  0  0  0
  -22.7264  -30.3800   20.9268 H   0  0  0  0  0  0
  -23.4354  -35.8607   23.3077 H   0  0  0  0  0  0
  -24.3861  -36.8684   22.2247 H   0  0  0  0  0  0
  -23.6993  -37.5522   23.6985 H   0  0  0  0  0  0
  -26.7736  -30.8275   21.7266 H   0  0  0  0  0  0
  -26.3836  -29.6365   22.8719 H   0  0  0  0  0  0
  -28.0814  -28.8556   21.4987 H   0  0  0  0  0  0
  -26.6881  -26.3390   18.4358 H   0  0  0  0  0  0
  -24.3355  -26.9570   18.8149 H   0  0  0  0  0  0
  -23.3160  -29.6129   19.2878 H   0  0  0  0  0  0
  -22.9746  -28.2825   19.9570 H   0  0  0  0  0  0
  -25.1599  -36.1101   25.0906 H   0  0  0  0  0  0
  -20.8860  -28.1635   24.0339 H   0  0  0  0  0  0
  -20.1185  -26.1123   23.4274 H   0  0  0  0  0  0
  -21.3390  -26.3022   22.2527 H   0  0  0  0  0  0
  -19.4308  -25.5276   21.0939 H   0  0  0  0  0  0
  -19.5757  -27.2181   20.6531 H   0  0  0  0  0  0
  -17.2570  -26.7621   21.2994 H   0  0  0  0  0  0
  -17.7461  -26.0043   22.7926 H   0  0  0  0  0  0
  -19.8012  -30.6214   24.2201 H   0  0  0  0  0  0
  -17.5532  -31.6174   24.5393 H   0  0  0  0  0  0
  -15.5264  -30.3703   23.8057 H   0  0  0  0  0  0
  -15.7497  -28.1645   22.7067 H   0  0  0  0  0  0
  -25.0951  -32.3313   26.4829 H   0  0  0  0  0  0
  -26.0787  -31.0589   27.1639 H   0  0  0  0  0  0
  -24.9034  -30.6661   25.9864 H   0  0  0  0  0  0
  -26.9782  -29.4160   24.8756 H   0  0  0  0  0  0
  -28.2594  -30.1764   25.6113 H   0  0  0  0  0  0
  -28.0827  -30.4368   23.9243 H   0  0  0  0  0  0
  -27.3736  -33.4806   26.2341 H   0  0  0  0  0  0
  -28.5956  -32.8022   25.1672 H   0  0  0  0  0  0
  -28.2194  -32.0547   26.7133 H   0  0  0  0  0  0
  -28.2142  -38.0749   24.8269 H   0  0  0  0  0  0
  -28.1735  -36.3378   24.5712 H   0  0  0  0  0  0
  -27.2594  -37.0625   25.9022 H   0  0  0  0  0  0
  -20.7516  -29.8675   21.7572 H   0  0  0  0  0  0
  -25.9678  -38.2648   24.2480 H   0  0  0  0  0  0
  -28.6680  -31.4919   19.4321 H   0  0  0  0  0  0
  -24.7100  -30.5795   18.6043 H   0  0  0  0  0  0
  -27.5267  -34.9527   20.0701 H   0  0  0  0  0  0
  -28.7918  -33.9528   19.3835 H   0  0  0  0  0  0
  -28.5608  -33.9671   21.1274 H   0  0  0  0  0  0
  -22.4477  -32.5567   20.5093 H   0  0  0  0  0  0
  -23.3614  -33.4568   21.6081 H   0  0  0  0  0  0
  -21.3050  -31.3422   22.4525 H   0  0  0  0  0  0
  -21.9441  -32.3899   23.4014 H   0  0  0  0  0  0
  -23.0058  -30.7651   25.1144 H   0  0  0  0  0  0
  -21.9434  -29.7727   24.5719 H   0  0  0  0  0  0
  -24.0566  -28.5211   25.5617 H   0  0  0  0  0  0
  -25.1059  -29.2147   24.4476 H   0  0  0  0  0  0
  -24.9244  -27.0778   22.8849 H   0  0  0  0  0  0
  -23.8039  -26.3331   24.0543 H   0  0  0  0  0  0
  -26.3325  -25.5766   24.9795 H   0  0  0  0  0  0
  -26.8387  -26.0768   23.4321 H   0  0  0  0  0  0
  -25.2819  -23.8162   22.6211 H   0  0  0  0  0  0
  -25.5835  -23.3226   24.2245 H   0  0  0  0  0  0
  -28.2238  -22.9759   23.1897 H   0  0  0  0  0  0
  -27.3890  -22.8920   21.7092 H   0  0  0  0  0  0
  -26.5150  -20.4081   22.9074 H   0  0  0  0  0  0
  -27.9877  -20.6104   23.7349 H   0  0  0  0  0  0
  -28.9772  -20.0376   21.0683 H   0  0  0  0  0  0
  -27.4886  -19.2176   21.0054 H   0  0  0  0  0  0
  -28.8255  -17.5660   22.9299 H   0  0  0  0  0  0
  -30.2138  -18.1526   22.1353 H   0  0  0  0  0  0
  -28.3574  -15.9688   21.1394 H   0  0  0  0  0  0
  1 25  1  0  0  0
  1 30  2  0  0  0
  1 89  1  0  0  0
  2  3  1  0  0  0
  2 25  1  0  0  0
  2 90  1  0  0  0
  2 91  1  0  0  0
  3  4  1  0  0  0
  3 92  1  0  0  0
  3 93  1  0  0  0
  4  5  1  0  0  0
  4 94  1  0  0  0
  4 95  1  0  0  0
  5  6  1  0  0  0
  5 26  1  0  0  0
  5 96  1  0  0  0
  6 25  1  0  0  0
  6 97  1  0  0  0
  6 98  1  0  0  0
  7  8  2  0  0  0
  7 26  1  0  0  0
  7 29  1  0  0  0
  8  9  1  0  0  0
  8 22  1  0  0  0
  9 10  1  0  0  0
  9 27  2  0  0  0
 10 11  2  0  0  0
 10 15  1  0  0  0
 11 12  1  0  0  0
 11 99  1  0  0  0
 12 13  2  0  0  0
 12100  1  0  0  0
 13 14  1  0  0  0
 13 31  1  0  0  0
 14 15  2  0  0  0
 14101  1  0  0  0
 15102  1  0  0  0
 16 17  2  0  0  0
 16 21  1  0  0  0
 16 31  1  0  0  0
 17 18  1  0  0  0
 17103  1  0  0  0
 18 19  2  0  0  0
 18104  1  0  0  0
 19 20  1  0  0  0
 19 24  1  0  0  0
 20 21  2  0  0  0
 20105  1  0  0  0
 21 23  1  0  0  0
 22 28  1  0  0  0
 22 32  2  0  0  0
 26 27  1  0  0  0
 28106  1  0  0  0
 28107  1  0  0  0
 29108  1  0  0  0
 29109  1  0  0  0
 33 34  1  0  0  0
 33 66  1  0  0  0
 33 70  2  0  0  0
 34 36  1  0  0  0
 34 59  1  0  0  0
 34110  1  0  0  0
 35 44  2  0  0  0
 35 45  1  0  0  0
 35 68  1  0  0  0
 36 56  1  0  0  0
 36111  1  0  0  0
 37 39  1  0  0  0
 37 47  1  0  0  0
 37 66  1  0  0  0
 37112  1  0  0  0
 38 43  2  0  0  0
 38 46  1  0  0  0
 38 47  1  0  0  0
 39 64  1  0  0  0
 39 67  2  0  0  0
 40 52  1  0  0  0
 40 53  2  0  0  0
 40 58  1  0  0  0
 41113  1  0  0  0
 41114  1  0  0  0
 41115  1  0  0  0
 41 48  1  0  0  0
 42 43  1  0  0  0
 42 66  1  0  0  0
 42116  1  0  0  0
 42117  1  0  0  0
 43 44  1  0  0  0
 44118  1  0  0  0
 45 46  2  0  0  0
 45119  1  0  0  0
 46120  1  0  0  0
 47121  1  0  0  0
 47122  1  0  0  0
 48 56  1  0  0  0
 48 65  1  0  0  0
 48123  1  0  0  0
 49 50  1  0  0  0
 49 53  1  0  0  0
 49 64  1  0  0  0
 49124  1  0  0  0
 50 51  1  0  0  0
 50125  1  0  0  0
 50126  1  0  0  0
 51 52  1  0  0  0
 51127  1  0  0  0
 51128  1  0  0  0
 52129  1  0  0  0
 52130  1  0  0  0
 53 54  1  0  0  0
 54 55  2  0  0  0
 54131  1  0  0  0
 55 57  1  0  0  0
 55132  1  0  0  0
 56 69  2  0  0  0
 57 58  2  0  0  0
 57133  1  0  0  0
 58134  1  0  0  0
 59 60  1  0  0  0
 59 61  1  0  0  0
 59 62  1  0  0  0
 60135  1  0  0  0
 60136  1  0  0  0
 60137  1  0  0  0
 61138  1  0  0  0
 61139  1  0  0  0
 61140  1  0  0  0
 62141  1  0  0  0
 62142  1  0  0  0
 62143  1  0  0  0
 63 65  1  0  0  0
 63144  1  0  0  0
 63145  1  0  0  0
 63146  1  0  0  0
 64147  1  0  0  0
 65148  1  0  0  0
 68 73  1  0  0  0
 71 73  2  0  0  0
 71 74  1  0  0  0
 71149  1  0  0  0
 72 73  1  0  0  0
 72 75  2  0  0  0
 72150  1  0  0  0
 74 76  1  0  0  0
 74 88  2  0  0  0
 75 77  1  0  0  0
 75 88  1  0  0  0
 76151  1  0  0  0
 76152  1  0  0  0
 76153  1  0  0  0
 77 78  1  0  0  0
 77154  1  0  0  0
 77155  1  0  0  0
 78 79  1  0  0  0
 78156  1  0  0  0
 78157  1  0  0  0
 79 80  1  0  0  0
 79158  1  0  0  0
 79159  1  0  0  0
 80 81  1  0  0  0
 80160  1  0  0  0
 80161  1  0  0  0
 81 82  1  0  0  0
 81162  1  0  0  0
 81163  1  0  0  0
 82 83  1  0  0  0
 82164  1  0  0  0
 82165  1  0  0  0
 83 84  1  0  0  0
 83166  1  0  0  0
 83167  1  0  0  0
 84 85  1  0  0  0
 84168  1  0  0  0
 84169  1  0  0  0
 85 86  1  0  0  0
 85170  1  0  0  0
 85171  1  0  0  0
 86 87  1  0  0  0
 86172  1  0  0  0
 86173  1  0  0  0
 87 89  1  0  0  0
 87174  1  0  0  0
 87175  1  0  0  0
 89176  1  0  0  0
M  ISO  4   1 100  68 101  73 101  89 100
M  END
> <chiral flag>
0

> <version>
0

> <s_m_source_file>
/data/baiqing/PycharmProjects/Reinvent-master-3.2/result/LINK_invent/BTK/process_docking_weight1_custom_sum_contain_oxygen_bond_distance_aromatic_linkinvent_7_9_3/rearranged_h_0038.sdf

> <i_m_source_file_index>
52

> <r_mmod_Potential_Energy-OPLS-2005>
6838.57421875

> <r_mmod_Stretch_Energy-OPLS-2005>
2355.39721679688

> <r_mmod_Bend_Energy-OPLS-2005>
1484.72082519531

> <r_mmod_Torsional_Energy-OPLS-2005>
581.892700195312

> <r_mmod_Improper_Torsional_Energy-OPLS-2005>
36.3613128662109

> <r_mmod_Van_der_Waal_Energy-OPLS-2005>
1138.39013671875

> <r_mmod_Electrostatic_Energy-OPLS-2005>
-495.85107421875

> <r_mmod_Solvation_Energy-OPLS-2005>
-188.95654296875

> <b_mmod_Minimization_Converged-OPLS-2005>
0

> <r_mmod_RMS_Derivative-OPLS-2005>
2.85211420059204

$$$$
53
                    3D
 Structure written by MMmdl.
161169  0  0  1  0            999 V2000
  -30.7139  -14.5096   20.6133 C   0  0  0  0  0  0
  -30.4088  -12.3340   19.4459 C   0  0  0  0  0  0
  -29.4946  -12.5048   18.2187 C   0  0  0  0  0  0
  -28.0155  -12.3459   18.6244 C   0  0  0  0  0  0
  -27.6482  -13.2114   19.8617 C   0  0  2  0  0  0
  -28.6863  -13.0369   20.9950 C   0  0  0  0  0  0
  -25.2534  -13.8165   20.5663 C   0  0  0  0  0  0
  -24.1783  -13.0434   20.9183 C   0  0  0  0  0  0
  -24.6310  -11.6908   20.8653 C   0  0  0  0  0  0
  -23.8965  -10.4293   21.0297 C   0  0  0  0  0  0
  -24.3561   -9.4236   21.9080 C   0  0  0  0  0  0
  -23.6274   -8.2238   22.0688 C   0  0  0  0  0  0
  -22.4252   -8.0227   21.3495 C   0  0  0  0  0  0
  -21.9867   -9.0162   20.4591 C   0  0  0  0  0  0
  -22.7131  -10.2069   20.2964 C   0  0  0  0  0  0
  -21.6847   -6.0693   22.5257 C   0  0  0  0  0  0
  -21.4015   -6.5607   23.8185 C   0  0  0  0  0  0
  -21.3682   -5.6767   24.9158 C   0  0  0  0  0  0
  -21.6053   -4.3034   24.7209 C   0  0  0  0  0  0
  -21.8835   -3.8106   23.4333 C   0  0  0  0  0  0
  -21.9213   -4.6917   22.3384 C   0  0  0  0  0  0
  -22.7824  -13.5215   21.1864 C   0  0  0  0  0  0
  -22.1672   -4.2109   21.0963 F   0  0  0  0  0  0
  -21.5638   -3.4530   25.7729 F   0  0  0  0  0  0
  -30.0193  -13.3471   20.4467 N   0  0  0  0  0  0
  -26.2928  -12.9325   20.3278 N   0  0  0  0  0  0
  -25.9231  -11.6482   20.5687 N   0  0  0  0  0  0
  -22.0496  -12.8208   22.0436 N   0  0  0  0  0  0
  -25.4316  -15.1876   20.4138 N   0  0  0  0  0  0
  -31.8244  -14.6874   20.1050 O   0  0  0  0  0  0
  -21.6641   -6.8817   21.4213 O   0  0  0  0  0  0
  -22.3519  -14.5491   20.6684 O   0  0  0  0  0  0
  -24.6214  -31.8651   23.2009 C   0  0  0  0  0  0
  -25.9108  -32.4818   23.8331 C   0  0  1  0  0  0
  -27.2464  -27.3854   20.1258 C   0  0  0  0  0  0
  -25.5958  -33.8628   24.2305 N   0  0  0  0  0  0
  -23.4116  -30.4863   21.5418 C   0  0  2  0  0  0
  -24.8603  -28.9311   20.1248 C   0  0  0  0  0  0
  -22.7446  -29.4692   22.4958 C   0  0  0  0  0  0
  -18.0291  -28.1396   22.8496 C   0  0  0  0  0  0
  -24.1481  -36.7279   23.2634 C   0  0  0  0  0  0
  -25.9428  -30.8188   21.3563 C   0  0  0  0  0  0
  -26.0211  -29.4403   20.7229 C   0  0  0  0  0  0
  -27.2154  -28.6750   20.7174 C   0  0  0  0  0  0
  -26.0703  -26.9030   19.5115 C   0  0  0  0  0  0
  -24.8833  -27.6628   19.5178 C   0  0  0  0  0  0
  -23.6234  -29.8033   20.1620 C   0  0  0  0  0  0
  -25.4107  -36.3130   24.0345 C   0  0  1  0  0  0
  -20.5885  -28.3704   23.1306 C   0  0  2  0  0  0
  -20.6786  -26.9442   22.5418 C   0  0  0  0  0  0
  -19.5755  -26.6398   21.5225 C   0  0  0  0  0  0
  -18.1934  -26.7954   22.1621 C   0  0  0  0  0  0
  -19.1548  -28.8863   23.2901 C   0  0  0  0  0  0
  -18.9472  -30.1460   23.8909 C   0  0  0  0  0  0
  -17.6479  -30.6601   24.0583 C   0  0  0  0  0  0
  -25.9052  -34.9496   23.5113 C   0  0  0  0  0  0
  -16.5364  -29.9115   23.6325 C   0  0  0  0  0  0
  -16.7281  -28.6536   23.0350 C   0  0  0  0  0  0
  -26.4479  -31.6609   25.0697 C   0  0  0  0  0  0
  -25.3702  -31.3774   26.1419 C   0  0  0  0  0  0
  -27.0275  -30.3049   24.6075 C   0  0  0  0  0  0
  -27.6059  -32.4296   25.7464 C   0  0  0  0  0  0
  -27.5579  -37.1800   24.8481 C   0  0  0  0  0  0
  -21.4178  -29.3075   22.3691 N   0  0  0  0  0  0
  -26.4280  -37.3830   23.9441 N   0  0  0  0  0  0
  -24.6783  -31.0731   22.0912 N   0  0  0  0  0  0
  -23.4220  -28.8248   23.3005 O   0  0  0  0  0  0
  -28.4216  -26.6574   20.0324 O   0  0  0  0  0  0
  -26.5585  -34.8969   22.4654 O   0  0  0  0  0  0
  -23.5395  -32.1367   23.7403 O   0  0  0  0  0  0
  -29.2501  -21.8505   21.2016 C   0  0  0  0  0  0
  -30.9172  -20.8388   19.7774 C   0  0  0  0  0  0
  -30.0911  -22.9269   19.2104 C   0  0  0  0  0  0
  -30.0740  -20.7268   20.8981 C   0  0  0  0  0  0
  -29.1933  -22.9522   20.2926 C   0  0  0  0  0  0
  -26.1930  -22.3388   20.4679 C   0  0  0  0  0  0
  -30.1069  -19.4341   21.7557 C   0  0  0  0  0  0
  -26.7940  -23.6698   20.9677 C   0  0  0  0  0  0
  -30.0254  -18.0639   20.9847 C   0  0  0  0  0  0
  -30.6446  -16.8222   21.7115 C   0  0  0  0  0  0
  -28.6209  -25.4868   20.8706 C   0  0  0  0  0  0
  -28.1364  -24.0950   20.3229 C   0  0  1  0  0  0
  -30.9439  -21.9143   18.9672 N   0  0  0  0  0  0
  -30.0937  -15.5020   21.2979 N   0  0  0  0  0  0
  -31.4603  -12.3986   19.1632 H   0  0  0  0  0  0
  -30.2770  -11.3348   19.8628 H   0  0  0  0  0  0
  -29.7530  -11.7690   17.4557 H   0  0  0  0  0  0
  -29.6543  -13.4874   17.7726 H   0  0  0  0  0  0
  -27.8507  -11.2904   18.8453 H   0  0  0  0  0  0
  -27.3613  -12.5788   17.7837 H   0  0  0  0  0  0
  -27.6779  -14.2510   19.5355 H   0  0  0  0  0  0
  -28.6757  -12.0123   21.3626 H   0  0  0  0  0  0
  -28.4273  -13.6554   21.8561 H   0  0  0  0  0  0
  -25.2672   -9.5786   22.4672 H   0  0  0  0  0  0
  -24.0011   -7.4658   22.7400 H   0  0  0  0  0  0
  -21.0790   -8.8564   19.8920 H   0  0  0  0  0  0
  -22.3445  -10.9560   19.6076 H   0  0  0  0  0  0
  -21.1974   -7.6112   23.9683 H   0  0  0  0  0  0
  -21.1514   -6.0492   25.9068 H   0  0  0  0  0  0
  -22.0605   -2.7568   23.2825 H   0  0  0  0  0  0
  -22.4133  -11.9931   22.4902 H   0  0  0  0  0  0
  -21.1038  -13.1112   22.2529 H   0  0  0  0  0  0
  -24.6731  -15.8508   20.5286 H   0  0  0  0  0  0
  -26.2943  -15.6248   20.1114 H   0  0  0  0  0  0
  -26.7199  -32.5513   23.1107 H   0  0  0  0  0  0
  -25.0284  -33.9774   25.0575 H   0  0  0  0  0  0
  -22.7067  -31.3061   21.3938 H   0  0  0  0  0  0
  -23.3781  -35.9579   23.3319 H   0  0  0  0  0  0
  -24.3577  -36.8831   22.2043 H   0  0  0  0  0  0
  -23.7185  -37.6470   23.6607 H   0  0  0  0  0  0
  -26.0521  -31.5733   20.5758 H   0  0  0  0  0  0
  -26.8362  -30.8844   21.9673 H   0  0  0  0  0  0
  -28.1188  -29.0758   21.1597 H   0  0  0  0  0  0
  -26.0818  -25.9457   19.0101 H   0  0  0  0  0  0
  -23.9946  -27.2697   19.0417 H   0  0  0  0  0  0
  -23.7337  -30.5672   19.3914 H   0  0  0  0  0  0
  -22.7488  -29.2188   19.8634 H   0  0  0  0  0  0
  -25.1290  -36.1961   25.0834 H   0  0  0  0  0  0
  -20.9988  -28.3271   24.1419 H   0  0  0  0  0  0
  -20.5721  -26.2324   23.3617 H   0  0  0  0  0  0
  -21.6659  -26.7494   22.1193 H   0  0  0  0  0  0
  -19.6935  -25.6308   21.1255 H   0  0  0  0  0  0
  -19.6695  -27.3214   20.6753 H   0  0  0  0  0  0
  -17.4223  -26.6719   21.4005 H   0  0  0  0  0  0
  -18.0314  -26.0101   22.8998 H   0  0  0  0  0  0
  -19.7953  -30.7263   24.2301 H   0  0  0  0  0  0
  -17.5041  -31.6284   24.5166 H   0  0  0  0  0  0
  -15.5374  -30.3025   23.7641 H   0  0  0  0  0  0
  -15.8677  -28.0852   22.7055 H   0  0  0  0  0  0
  -24.5930  -30.7071   25.7757 H   0  0  0  0  0  0
  -24.8848  -32.2946   26.4754 H   0  0  0  0  0  0
  -25.8011  -30.9038   27.0236 H   0  0  0  0  0  0
  -26.2818  -29.6885   24.1067 H   0  0  0  0  0  0
  -27.3966  -29.7252   25.4527 H   0  0  0  0  0  0
  -27.8688  -30.4391   23.9284 H   0  0  0  0  0  0
  -27.2736  -33.3638   26.2002 H   0  0  0  0  0  0
  -28.3897  -32.6754   25.0290 H   0  0  0  0  0  0
  -28.0685  -31.8423   26.5398 H   0  0  0  0  0  0
  -28.2620  -38.0080   24.7543 H   0  0  0  0  0  0
  -28.1035  -36.2616   24.6262 H   0  0  0  0  0  0
  -27.2313  -37.1387   25.8887 H   0  0  0  0  0  0
  -20.9358  -29.8781   21.6886 H   0  0  0  0  0  0
  -26.0165  -38.2908   24.1419 H   0  0  0  0  0  0
  -28.6161  -21.8331   22.0779 H   0  0  0  0  0  0
  -31.6009  -20.0477   19.5105 H   0  0  0  0  0  0
  -30.1000  -23.7297   18.4866 H   0  0  0  0  0  0
  -25.2528  -22.1404   20.9804 H   0  0  0  0  0  0
  -26.8257  -21.4779   20.6660 H   0  0  0  0  0  0
  -25.9916  -22.3518   19.3971 H   0  0  0  0  0  0
  -29.2877  -19.4681   22.4772 H   0  0  0  0  0  0
  -31.0171  -19.4633   22.3544 H   0  0  0  0  0  0
  -26.9199  -23.6124   22.0482 H   0  0  0  0  0  0
  -26.0606  -24.4578   20.8090 H   0  0  0  0  0  0
  -30.5480  -18.1323   20.0320 H   0  0  0  0  0  0
  -28.9830  -17.8683   20.7352 H   0  0  0  0  0  0
  -30.5072  -16.9160   22.7909 H   0  0  0  0  0  0
  -31.7275  -16.8382   21.5661 H   0  0  0  0  0  0
  -29.7003  -25.4265   21.0150 H   0  0  0  0  0  0
  -28.2204  -25.6734   21.8659 H   0  0  0  0  0  0
  -27.9189  -24.2615   19.2686 H   0  0  0  0  0  0
  -29.1642  -15.2897   21.6285 H   0  0  0  0  0  0
  1 25  1  0  0  0
  1 30  2  0  0  0
  1 84  1  0  0  0
  2  3  1  0  0  0
  2 25  1  0  0  0
  2 85  1  0  0  0
  2 86  1  0  0  0
  3  4  1  0  0  0
  3 87  1  0  0  0
  3 88  1  0  0  0
  4  5  1  0  0  0
  4 89  1  0  0  0
  4 90  1  0  0  0
  5  6  1  0  0  0
  5 26  1  0  0  0
  5 91  1  0  0  0
  6 25  1  0  0  0
  6 92  1  0  0  0
  6 93  1  0  0  0
  7  8  2  0  0  0
  7 26  1  0  0  0
  7 29  1  0  0  0
  8  9  1  0  0  0
  8 22  1  0  0  0
  9 10  1  0  0  0
  9 27  2  0  0  0
 10 11  2  0  0  0
 10 15  1  0  0  0
 11 12  1  0  0  0
 11 94  1  0  0  0
 12 13  2  0  0  0
 12 95  1  0  0  0
 13 14  1  0  0  0
 13 31  1  0  0  0
 14 15  2  0  0  0
 14 96  1  0  0  0
 15 97  1  0  0  0
 16 17  2  0  0  0
 16 21  1  0  0  0
 16 31  1  0  0  0
 17 18  1  0  0  0
 17 98  1  0  0  0
 18 19  2  0  0  0
 18 99  1  0  0  0
 19 20  1  0  0  0
 19 24  1  0  0  0
 20 21  2  0  0  0
 20100  1  0  0  0
 21 23  1  0  0  0
 22 28  1  0  0  0
 22 32  2  0  0  0
 26 27  1  0  0  0
 28101  1  0  0  0
 28102  1  0  0  0
 29103  1  0  0  0
 29104  1  0  0  0
 33 34  1  0  0  0
 33 66  1  0  0  0
 33 70  2  0  0  0
 34 36  1  0  0  0
 34 59  1  0  0  0
 34105  1  0  0  0
 35 44  2  0  0  0
 35 45  1  0  0  0
 35 68  1  0  0  0
 36 56  1  0  0  0
 36106  1  0  0  0
 37 39  1  0  0  0
 37 47  1  0  0  0
 37 66  1  0  0  0
 37107  1  0  0  0
 38 43  2  0  0  0
 38 46  1  0  0  0
 38 47  1  0  0  0
 39 64  1  0  0  0
 39 67  2  0  0  0
 40 52  1  0  0  0
 40 53  2  0  0  0
 40 58  1  0  0  0
 41108  1  0  0  0
 41109  1  0  0  0
 41110  1  0  0  0
 41 48  1  0  0  0
 42 43  1  0  0  0
 42 66  1  0  0  0
 42111  1  0  0  0
 42112  1  0  0  0
 43 44  1  0  0  0
 44113  1  0  0  0
 45 46  2  0  0  0
 45114  1  0  0  0
 46115  1  0  0  0
 47116  1  0  0  0
 47117  1  0  0  0
 48 56  1  0  0  0
 48 65  1  0  0  0
 48118  1  0  0  0
 49 50  1  0  0  0
 49 53  1  0  0  0
 49 64  1  0  0  0
 49119  1  0  0  0
 50 51  1  0  0  0
 50120  1  0  0  0
 50121  1  0  0  0
 51 52  1  0  0  0
 51122  1  0  0  0
 51123  1  0  0  0
 52124  1  0  0  0
 52125  1  0  0  0
 53 54  1  0  0  0
 54 55  2  0  0  0
 54126  1  0  0  0
 55 57  1  0  0  0
 55127  1  0  0  0
 56 69  2  0  0  0
 57 58  2  0  0  0
 57128  1  0  0  0
 58129  1  0  0  0
 59 60  1  0  0  0
 59 61  1  0  0  0
 59 62  1  0  0  0
 60130  1  0  0  0
 60131  1  0  0  0
 60132  1  0  0  0
 61133  1  0  0  0
 61134  1  0  0  0
 61135  1  0  0  0
 62136  1  0  0  0
 62137  1  0  0  0
 62138  1  0  0  0
 63 65  1  0  0  0
 63139  1  0  0  0
 63140  1  0  0  0
 63141  1  0  0  0
 64142  1  0  0  0
 65143  1  0  0  0
 68 81  1  0  0  0
 71 74  2  0  0  0
 71 75  1  0  0  0
 71144  1  0  0  0
 72 74  1  0  0  0
 72 83  2  0  0  0
 72145  1  0  0  0
 73 75  2  0  0  0
 73 83  1  0  0  0
 73146  1  0  0  0
 74 77  1  0  0  0
 75 82  1  0  0  0
 76 78  1  0  0  0
 76147  1  0  0  0
 76148  1  0  0  0
 76149  1  0  0  0
 77 79  1  0  0  0
 77150  1  0  0  0
 77151  1  0  0  0
 78152  1  0  0  0
 78153  1  0  0  0
 78 82  1  0  0  0
 79 80  1  0  0  0
 79154  1  0  0  0
 79155  1  0  0  0
 80 84  1  0  0  0
 80156  1  0  0  0
 80157  1  0  0  0
 81 82  1  0  0  0
 81158  1  0  0  0
 81159  1  0  0  0
 82160  1  0  0  0
 84161  1  0  0  0
M  ISO  4   1 100  68 101  81 101  84 100
M  END
> <chiral flag>
0

> <version>
0

> <s_m_source_file>
/data/baiqing/PycharmProjects/Reinvent-master-3.2/result/LINK_invent/BTK/process_docking_weight1_custom_sum_contain_oxygen_bond_distance_aromatic_linkinvent_7_9_3/rearranged_h_0038.sdf

> <i_m_source_file_index>
53

> <r_mmod_Potential_Energy-OPLS-2005>
-140.235366821289

> <r_mmod_Stretch_Energy-OPLS-2005>
53.6276969909668

> <r_mmod_Bend_Energy-OPLS-2005>
120.602088928223

> <r_mmod_Torsional_Energy-OPLS-2005>
241.068695068359

> <r_mmod_Improper_Torsional_Energy-OPLS-2005>
2.92993569374084

> <r_mmod_Van_der_Waal_Energy-OPLS-2005>
146.250381469727

> <r_mmod_Electrostatic_Energy-OPLS-2005>
-501.808959960938

> <r_mmod_Solvation_Energy-OPLS-2005>
-221.08576965332

> <b_mmod_Minimization_Converged-OPLS-2005>
0

> <r_mmod_RMS_Derivative-OPLS-2005>
5.51792144775391

$$$$
54
                    3D
 Structure written by MMmdl.
166174  0  0  1  0            999 V2000
  -30.6575  -14.4577   20.6568 C   0  0  0  0  0  0
  -30.4379  -12.3472   19.3795 C   0  0  0  0  0  0
  -29.4820  -12.5611   18.1892 C   0  0  0  0  0  0
  -28.0053  -12.3998   18.6063 C   0  0  0  0  0  0
  -27.6655  -13.1968   19.8944 C   0  0  2  0  0  0
  -28.7143  -12.8821   20.9838 C   0  0  0  0  0  0
  -25.2608  -13.8122   20.5704 C   0  0  0  0  0  0
  -24.1830  -13.0399   20.9153 C   0  0  0  0  0  0
  -24.6365  -11.6870   20.8705 C   0  0  0  0  0  0
  -23.9016  -10.4258   21.0355 C   0  0  0  0  0  0
  -24.3563   -9.4182   21.9152 C   0  0  0  0  0  0
  -23.6224   -8.2225   22.0741 C   0  0  0  0  0  0
  -22.4213   -8.0254   21.3533 C   0  0  0  0  0  0
  -21.9850   -9.0214   20.4629 C   0  0  0  0  0  0
  -22.7179  -10.2093   20.3024 C   0  0  0  0  0  0
  -21.6848   -6.0712   22.5280 C   0  0  0  0  0  0
  -21.3996   -6.5625   23.8202 C   0  0  0  0  0  0
  -21.3628   -5.6784   24.9168 C   0  0  0  0  0  0
  -21.6038   -4.3050   24.7246 C   0  0  0  0  0  0
  -21.8836   -3.8129   23.4371 C   0  0  0  0  0  0
  -21.9183   -4.6939   22.3417 C   0  0  0  0  0  0
  -22.7855  -13.5200   21.1809 C   0  0  0  0  0  0
  -22.1678   -4.2114   21.0999 F   0  0  0  0  0  0
  -21.5590   -3.4573   25.7777 F   0  0  0  0  0  0
  -30.0310  -13.2655   20.4511 N   0  0  0  0  0  0
  -26.3028  -12.9263   20.3452 N   0  0  0  0  0  0
  -25.9298  -11.6427   20.5786 N   0  0  0  0  0  0
  -22.0499  -12.8201   22.0372 N   0  0  0  0  0  0
  -25.4366  -15.1837   20.4106 N   0  0  0  0  0  0
  -31.7297  -14.7285   20.1011 O   0  0  0  0  0  0
  -21.6607   -6.8837   21.4225 O   0  0  0  0  0  0
  -22.3557  -14.5500   20.6655 O   0  0  0  0  0  0
  -24.6174  -31.8672   23.2154 C   0  0  0  0  0  0
  -25.9107  -32.4751   23.8441 C   0  0  1  0  0  0
  -27.2458  -27.4637   20.0660 C   0  0  0  0  0  0
  -25.6002  -33.8550   24.2380 N   0  0  0  0  0  0
  -23.4039  -30.4951   21.5528 C   0  0  2  0  0  0
  -24.8472  -28.9607   20.1164 C   0  0  0  0  0  0
  -22.7391  -29.4693   22.4997 C   0  0  0  0  0  0
  -18.0294  -28.1363   22.8484 C   0  0  0  0  0  0
  -24.1442  -36.7239   23.2650 C   0  0  0  0  0  0
  -25.9320  -30.8359   21.3680 C   0  0  0  0  0  0
  -26.0050  -29.4724   20.7129 C   0  0  0  0  0  0
  -27.1994  -28.7225   20.6948 C   0  0  0  0  0  0
  -26.0684  -26.9518   19.4691 C   0  0  0  0  0  0
  -24.8719  -27.6969   19.5009 C   0  0  0  0  0  0
  -23.6116  -29.8304   20.1666 C   0  0  0  0  0  0
  -25.4059  -36.3023   24.0342 C   0  0  1  0  0  0
  -20.5886  -28.3647   23.1329 C   0  0  2  0  0  0
  -20.6769  -26.9388   22.5408 C   0  0  0  0  0  0
  -19.5744  -26.6345   21.5209 C   0  0  0  0  0  0
  -18.1923  -26.7911   22.1608 C   0  0  0  0  0  0
  -19.1542  -28.8815   23.2886 C   0  0  0  0  0  0
  -18.9464  -30.1428   23.8870 C   0  0  0  0  0  0
  -17.6455  -30.6552   24.0580 C   0  0  0  0  0  0
  -25.9012  -34.9396   23.5133 C   0  0  0  0  0  0
  -16.5343  -29.9065   23.6347 C   0  0  0  0  0  0
  -16.7279  -28.6501   23.0350 C   0  0  0  0  0  0
  -26.4520  -31.6520   25.0768 C   0  0  0  0  0  0
  -25.3784  -31.3501   26.1520 C   0  0  0  0  0  0
  -27.0427  -30.2991   24.6149 C   0  0  0  0  0  0
  -27.6115  -32.4194   25.7578 C   0  0  0  0  0  0
  -27.5520  -37.1769   24.8493 C   0  0  0  0  0  0
  -21.4133  -29.3047   22.3707 N   0  0  0  0  0  0
  -26.4219  -37.3710   23.9439 N   0  0  0  0  0  0
  -24.6697  -31.0803   22.1041 N   0  0  0  0  0  0
  -23.4137  -28.8196   23.3031 O   0  0  0  0  0  0
  -28.4543  -26.7995   20.0627 O   0  0  0  0  0  0
  -26.5480  -34.8842   22.4632 O   0  0  0  0  0  0
  -23.5385  -32.1447   23.7539 O   0  0  0  0  0  0
  -29.9690  -20.4162   17.8895 C   0  0  0  0  0  0
  -29.5367  -21.7682   17.7448 C   0  0  0  0  0  0
  -28.8472  -19.6588   17.6653 C   0  0  0  0  0  0
  -26.4555  -20.3039   16.9899 C   0  0  0  0  0  0
  -30.2969  -23.0536   17.9649 C   0  0  0  0  0  0
  -28.6378  -18.1645   17.6759 C   0  0  0  0  0  0
  -30.0176  -15.5153   21.5965 C   0  0  0  0  0  0
  -30.1987  -23.5199   19.4348 C   0  0  0  0  0  0
  -29.5035  -17.3644   18.6816 C   0  0  0  0  0  0
  -30.1592  -17.0097   21.1887 C   0  0  0  0  0  0
  -29.1372  -17.5777   20.1668 C   0  0  0  0  0  0
  -30.0057  -25.0346   19.6531 C   0  0  0  0  0  0
  -28.5625  -25.5291   19.4322 C   0  0  0  0  0  0
  -28.2574  -21.8358   17.4222 N   0  0  0  0  0  0
  -27.8370  -20.5552   17.3534 N   0  0  0  0  0  0
  -31.4648  -12.5182   19.0541 H   0  0  0  0  0  0
  -30.4037  -11.3168   19.7342 H   0  0  0  0  0  0
  -29.7258  -11.8794   17.3755 H   0  0  0  0  0  0
  -29.6288  -13.5671   17.7915 H   0  0  0  0  0  0
  -27.8072  -11.3383   18.7631 H   0  0  0  0  0  0
  -27.3492  -12.7074   17.7900 H   0  0  0  0  0  0
  -27.7288  -14.2589   19.6510 H   0  0  0  0  0  0
  -28.7184  -11.8077   21.1792 H   0  0  0  0  0  0
  -28.4748  -13.3258   21.9476 H   0  0  0  0  0  0
  -25.2731   -9.5679   22.4697 H   0  0  0  0  0  0
  -23.9935   -7.4652   22.7498 H   0  0  0  0  0  0
  -21.0765   -8.8722   19.8968 H   0  0  0  0  0  0
  -22.3621  -10.9601   19.6116 H   0  0  0  0  0  0
  -21.1997   -7.6130   23.9702 H   0  0  0  0  0  0
  -21.1408   -6.0518   25.9055 H   0  0  0  0  0  0
  -22.0627   -2.7589   23.2913 H   0  0  0  0  0  0
  -22.4133  -11.9872   22.4745 H   0  0  0  0  0  0
  -21.1132  -13.1258   22.2612 H   0  0  0  0  0  0
  -24.6762  -15.8455   20.5178 H   0  0  0  0  0  0
  -26.3015  -15.6176   20.1156 H   0  0  0  0  0  0
  -26.7193  -32.5458   23.1207 H   0  0  0  0  0  0
  -25.0367  -33.9689   25.0686 H   0  0  0  0  0  0
  -22.6950  -31.3145   21.4134 H   0  0  0  0  0  0
  -23.3678  -35.9598   23.3330 H   0  0  0  0  0  0
  -24.3516  -36.8845   22.2058 H   0  0  0  0  0  0
  -23.7224  -37.6460   23.6659 H   0  0  0  0  0  0
  -26.0432  -31.6058   20.6054 H   0  0  0  0  0  0
  -26.8203  -30.8817   21.9889 H   0  0  0  0  0  0
  -28.0956  -29.1164   21.1547 H   0  0  0  0  0  0
  -26.0569  -25.9973   18.9624 H   0  0  0  0  0  0
  -23.9812  -27.3027   19.0298 H   0  0  0  0  0  0
  -23.7270  -30.6057   19.4084 H   0  0  0  0  0  0
  -22.7310  -29.2622   19.8670 H   0  0  0  0  0  0
  -25.1211  -36.1859   25.0817 H   0  0  0  0  0  0
  -20.9977  -28.3226   24.1455 H   0  0  0  0  0  0
  -20.5661  -26.2240   23.3566 H   0  0  0  0  0  0
  -21.6636  -26.7412   22.1193 H   0  0  0  0  0  0
  -19.6885  -25.6252   21.1237 H   0  0  0  0  0  0
  -19.6695  -27.3166   20.6754 H   0  0  0  0  0  0
  -17.4186  -26.6680   21.4003 H   0  0  0  0  0  0
  -18.0322  -26.0023   22.8971 H   0  0  0  0  0  0
  -19.7949  -30.7277   24.2165 H   0  0  0  0  0  0
  -17.5041  -31.6245   24.5174 H   0  0  0  0  0  0
  -15.5366  -30.2964   23.7688 H   0  0  0  0  0  0
  -15.8677  -28.0820   22.7068 H   0  0  0  0  0  0
  -24.6035  -30.6747   25.7855 H   0  0  0  0  0  0
  -24.8869  -32.2567   26.5070 H   0  0  0  0  0  0
  -25.8209  -30.8632   27.0229 H   0  0  0  0  0  0
  -26.2989  -29.6591   24.1390 H   0  0  0  0  0  0
  -27.4436  -29.7369   25.4609 H   0  0  0  0  0  0
  -27.8684  -30.4322   23.9149 H   0  0  0  0  0  0
  -27.2823  -33.3506   26.2191 H   0  0  0  0  0  0
  -28.4010  -32.6699   25.0464 H   0  0  0  0  0  0
  -28.0692  -31.8239   26.5511 H   0  0  0  0  0  0
  -28.2563  -38.0059   24.7541 H   0  0  0  0  0  0
  -28.0983  -36.2566   24.6332 H   0  0  0  0  0  0
  -27.2197  -37.1455   25.8894 H   0  0  0  0  0  0
  -20.9261  -29.8812   21.6980 H   0  0  0  0  0  0
  -26.0073  -38.2742   24.1537 H   0  0  0  0  0  0
  -30.9577  -20.0526   18.1424 H   0  0  0  0  0  0
  -26.4191  -19.7384   16.0601 H   0  0  0  0  0  0
  -25.9136  -21.2415   16.8478 H   0  0  0  0  0  0
  -25.9610  -19.7345   17.7751 H   0  0  0  0  0  0
  -29.9234  -23.8265   17.2912 H   0  0  0  0  0  0
  -31.3432  -22.9192   17.6952 H   0  0  0  0  0  0
  -28.8558  -17.7938   16.6742 H   0  0  0  0  0  0
  -27.5857  -17.9296   17.8411 H   0  0  0  0  0  0
  -28.9629  -15.3361   21.7891 H   0  0  0  0  0  0
  -30.5101  -15.3863   22.5617 H   0  0  0  0  0  0
  -31.0934  -23.1843   19.9605 H   0  0  0  0  0  0
  -29.3733  -23.0079   19.9280 H   0  0  0  0  0  0
  -30.5527  -17.6116   18.5193 H   0  0  0  0  0  0
  -29.4087  -16.2996   18.4577 H   0  0  0  0  0  0
  -31.1802  -17.2399   20.8794 H   0  0  0  0  0  0
  -30.0308  -17.5812   22.1099 H   0  0  0  0  0  0
  -28.1346  -17.1924   20.3651 H   0  0  0  0  0  0
  -29.0633  -18.6530   20.3403 H   0  0  0  0  0  0
  -30.7061  -25.6100   19.0506 H   0  0  0  0  0  0
  -30.2740  -25.2456   20.6906 H   0  0  0  0  0  0
  -27.8503  -24.8327   19.8779 H   0  0  0  0  0  0
  -28.3466  -25.6044   18.3633 H   0  0  0  0  0  0
  1 25  1  0  0  0
  1 30  2  0  0  0
  1 77  1  0  0  0
  2  3  1  0  0  0
  2 25  1  0  0  0
  2 86  1  0  0  0
  2 87  1  0  0  0
  3  4  1  0  0  0
  3 88  1  0  0  0
  3 89  1  0  0  0
  4  5  1  0  0  0
  4 90  1  0  0  0
  4 91  1  0  0  0
  5  6  1  0  0  0
  5 26  1  0  0  0
  5 92  1  0  0  0
  6 25  1  0  0  0
  6 93  1  0  0  0
  6 94  1  0  0  0
  7  8  2  0  0  0
  7 26  1  0  0  0
  7 29  1  0  0  0
  8  9  1  0  0  0
  8 22  1  0  0  0
  9 10  1  0  0  0
  9 27  2  0  0  0
 10 11  2  0  0  0
 10 15  1  0  0  0
 11 12  1  0  0  0
 11 95  1  0  0  0
 12 13  2  0  0  0
 12 96  1  0  0  0
 13 14  1  0  0  0
 13 31  1  0  0  0
 14 15  2  0  0  0
 14 97  1  0  0  0
 15 98  1  0  0  0
 16 17  2  0  0  0
 16 21  1  0  0  0
 16 31  1  0  0  0
 17 18  1  0  0  0
 17 99  1  0  0  0
 18 19  2  0  0  0
 18100  1  0  0  0
 19 20  1  0  0  0
 19 24  1  0  0  0
 20 21  2  0  0  0
 20101  1  0  0  0
 21 23  1  0  0  0
 22 28  1  0  0  0
 22 32  2  0  0  0
 26 27  1  0  0  0
 28102  1  0  0  0
 28103  1  0  0  0
 29104  1  0  0  0
 29105  1  0  0  0
 33 34  1  0  0  0
 33 66  1  0  0  0
 33 70  2  0  0  0
 34 36  1  0  0  0
 34 59  1  0  0  0
 34106  1  0  0  0
 35 44  2  0  0  0
 35 45  1  0  0  0
 35 68  1  0  0  0
 36 56  1  0  0  0
 36107  1  0  0  0
 37 39  1  0  0  0
 37 47  1  0  0  0
 37 66  1  0  0  0
 37108  1  0  0  0
 38 43  2  0  0  0
 38 46  1  0  0  0
 38 47  1  0  0  0
 39 64  1  0  0  0
 39 67  2  0  0  0
 40 52  1  0  0  0
 40 53  2  0  0  0
 40 58  1  0  0  0
 41109  1  0  0  0
 41110  1  0  0  0
 41111  1  0  0  0
 41 48  1  0  0  0
 42 43  1  0  0  0
 42 66  1  0  0  0
 42112  1  0  0  0
 42113  1  0  0  0
 43 44  1  0  0  0
 44114  1  0  0  0
 45 46  2  0  0  0
 45115  1  0  0  0
 46116  1  0  0  0
 47117  1  0  0  0
 47118  1  0  0  0
 48 56  1  0  0  0
 48 65  1  0  0  0
 48119  1  0  0  0
 49 50  1  0  0  0
 49 53  1  0  0  0
 49 64  1  0  0  0
 49120  1  0  0  0
 50 51  1  0  0  0
 50121  1  0  0  0
 50122  1  0  0  0
 51 52  1  0  0  0
 51123  1  0  0  0
 51124  1  0  0  0
 52125  1  0  0  0
 52126  1  0  0  0
 53 54  1  0  0  0
 54 55  2  0  0  0
 54127  1  0  0  0
 55 57  1  0  0  0
 55128  1  0  0  0
 56 69  2  0  0  0
 57 58  2  0  0  0
 57129  1  0  0  0
 58130  1  0  0  0
 59 60  1  0  0  0
 59 61  1  0  0  0
 59 62  1  0  0  0
 60131  1  0  0  0
 60132  1  0  0  0
 60133  1  0  0  0
 61134  1  0  0  0
 61135  1  0  0  0
 61136  1  0  0  0
 62137  1  0  0  0
 62138  1  0  0  0
 62139  1  0  0  0
 63 65  1  0  0  0
 63140  1  0  0  0
 63141  1  0  0  0
 63142  1  0  0  0
 64143  1  0  0  0
 65144  1  0  0  0
 68 83  1  0  0  0
 71 72  1  0  0  0
 71 73  2  0  0  0
 71145  1  0  0  0
 72 75  1  0  0  0
 72 84  2  0  0  0
 73 76  1  0  0  0
 73 85  1  0  0  0
 74 85  1  0  0  0
 74146  1  0  0  0
 74147  1  0  0  0
 74148  1  0  0  0
 75 78  1  0  0  0
 75149  1  0  0  0
 75150  1  0  0  0
 76 79  1  0  0  0
 76151  1  0  0  0
 76152  1  0  0  0
 77 80  1  0  0  0
 77153  1  0  0  0
 77154  1  0  0  0
 78 82  1  0  0  0
 78155  1  0  0  0
 78156  1  0  0  0
 79 81  1  0  0  0
 79157  1  0  0  0
 79158  1  0  0  0
 80 81  1  0  0  0
 80159  1  0  0  0
 80160  1  0  0  0
 81161  1  0  0  0
 81162  1  0  0  0
 82 83  1  0  0  0
 82163  1  0  0  0
 82164  1  0  0  0
 83165  1  0  0  0
 83166  1  0  0  0
 84 85  1  0  0  0
M  ISO  4   1 100  68 101  77 100  83 101
M  END
> <chiral flag>
0

> <version>
0

> <s_m_source_file>
/data/baiqing/PycharmProjects/Reinvent-master-3.2/result/LINK_invent/BTK/process_docking_weight1_custom_sum_contain_oxygen_bond_distance_aromatic_linkinvent_7_9_3/rearranged_h_0038.sdf

> <i_m_source_file_index>
54

> <r_mmod_Potential_Energy-OPLS-2005>
-95.8397064208984

> <r_mmod_Stretch_Energy-OPLS-2005>
34.5038299560547

> <r_mmod_Bend_Energy-OPLS-2005>
110.049171447754

> <r_mmod_Torsional_Energy-OPLS-2005>
172.832992553711

> <r_mmod_Improper_Torsional_Energy-OPLS-2005>
1.94891703128815

> <r_mmod_Van_der_Waal_Energy-OPLS-2005>
119.533241271973

> <r_mmod_Electrostatic_Energy-OPLS-2005>
-346.461669921875

> <r_mmod_Solvation_Energy-OPLS-2005>
-201.269714355469

> <b_mmod_Minimization_Converged-OPLS-2005>
0

> <r_mmod_RMS_Derivative-OPLS-2005>
5.42284870147705

$$$$
55
                    3D
 Structure written by MMmdl.
161169  0  0  1  0            999 V2000
  -30.7280  -14.3699   20.6865 C   0  0  0  0  0  0
  -30.4168  -12.2905   19.3905 C   0  0  0  0  0  0
  -29.4807  -12.5171   18.1877 C   0  0  0  0  0  0
  -28.0046  -12.3684   18.6052 C   0  0  0  0  0  0
  -27.6603  -13.1936   19.8723 C   0  0  2  0  0  0
  -28.6915  -12.9208   20.9861 C   0  0  0  0  0  0
  -25.2580  -13.8139   20.5651 C   0  0  0  0  0  0
  -24.1815  -13.0439   20.9157 C   0  0  0  0  0  0
  -24.6344  -11.6892   20.8698 C   0  0  0  0  0  0
  -23.9004  -10.4284   21.0378 C   0  0  0  0  0  0
  -24.3572   -9.4222   21.9177 C   0  0  0  0  0  0
  -23.6258   -8.2258   22.0760 C   0  0  0  0  0  0
  -22.4251   -8.0270   21.3544 C   0  0  0  0  0  0
  -21.9874   -9.0222   20.4641 C   0  0  0  0  0  0
  -22.7178  -10.2116   20.3039 C   0  0  0  0  0  0
  -21.6850   -6.0723   22.5284 C   0  0  0  0  0  0
  -21.4005   -6.5628   23.8219 C   0  0  0  0  0  0
  -21.3652   -5.6777   24.9179 C   0  0  0  0  0  0
  -21.6040   -4.3038   24.7229 C   0  0  0  0  0  0
  -21.8818   -3.8131   23.4348 C   0  0  0  0  0  0
  -21.9188   -4.6946   22.3408 C   0  0  0  0  0  0
  -22.7849  -13.5249   21.1845 C   0  0  0  0  0  0
  -22.1658   -4.2136   21.0981 F   0  0  0  0  0  0
  -21.5628   -3.4522   25.7743 F   0  0  0  0  0  0
  -30.0321  -13.2284   20.4545 N   0  0  0  0  0  0
  -26.2980  -12.9280   20.3309 N   0  0  0  0  0  0
  -25.9255  -11.6445   20.5699 N   0  0  0  0  0  0
  -22.0492  -12.8242   22.0407 N   0  0  0  0  0  0
  -25.4335  -15.1860   20.4092 N   0  0  0  0  0  0
  -31.7727  -14.6616   20.0936 O   0  0  0  0  0  0
  -21.6636   -6.8853   21.4245 O   0  0  0  0  0  0
  -22.3542  -14.5562   20.6701 O   0  0  0  0  0  0
  -24.6121  -31.8689   23.2131 C   0  0  0  0  0  0
  -25.9048  -32.4800   23.8417 C   0  0  1  0  0  0
  -27.2410  -27.4560   20.0986 C   0  0  0  0  0  0
  -25.5958  -33.8596   24.2376 N   0  0  0  0  0  0
  -23.3977  -30.4940   21.5481 C   0  0  2  0  0  0
  -24.8444  -28.9562   20.1153 C   0  0  0  0  0  0
  -22.7379  -29.4691   22.4978 C   0  0  0  0  0  0
  -18.0266  -28.1392   22.8487 C   0  0  0  0  0  0
  -24.1501  -36.7285   23.2659 C   0  0  0  0  0  0
  -25.9227  -30.8406   21.3623 C   0  0  0  0  0  0
  -25.9983  -29.4738   20.7151 C   0  0  0  0  0  0
  -27.1928  -28.7253   20.7122 C   0  0  0  0  0  0
  -26.0678  -26.9410   19.4999 C   0  0  0  0  0  0
  -24.8726  -27.6867   19.5096 C   0  0  0  0  0  0
  -23.6062  -29.8224   20.1622 C   0  0  0  0  0  0
  -25.4125  -36.3085   24.0357 C   0  0  1  0  0  0
  -20.5854  -28.3691   23.1288 C   0  0  2  0  0  0
  -20.6760  -26.9430   22.5400 C   0  0  0  0  0  0
  -19.5742  -26.6384   21.5205 C   0  0  0  0  0  0
  -18.1908  -26.7945   22.1595 C   0  0  0  0  0  0
  -19.1521  -28.8857   23.2877 C   0  0  0  0  0  0
  -18.9458  -30.1459   23.8887 C   0  0  0  0  0  0
  -17.6470  -30.6604   24.0566 C   0  0  0  0  0  0
  -25.9043  -34.9449   23.5149 C   0  0  0  0  0  0
  -16.5352  -29.9106   23.6343 C   0  0  0  0  0  0
  -16.7259  -28.6517   23.0368 C   0  0  0  0  0  0
  -26.4519  -31.6540   25.0712 C   0  0  0  0  0  0
  -25.3838  -31.3551   26.1484 C   0  0  0  0  0  0
  -27.0368  -30.3014   24.6017 C   0  0  0  0  0  0
  -27.6090  -32.4263   25.7480 C   0  0  0  0  0  0
  -27.5566  -37.1825   24.8506 C   0  0  0  0  0  0
  -21.4118  -29.3054   22.3689 N   0  0  0  0  0  0
  -26.4314  -37.3763   23.9400 N   0  0  0  0  0  0
  -24.6615  -31.0831   22.0999 N   0  0  0  0  0  0
  -23.4156  -28.8261   23.3040 O   0  0  0  0  0  0
  -28.4495  -26.7971   20.1186 O   0  0  0  0  0  0
  -26.5540  -34.8883   22.4671 O   0  0  0  0  0  0
  -23.5322  -32.1447   23.7538 O   0  0  0  0  0  0
  -28.2295  -22.6792   21.8736 C   0  0  0  0  0  0
  -27.2785  -22.1809   19.7123 C   0  0  0  0  0  0
  -27.6406  -21.7512   20.9996 C   0  0  0  0  0  0
  -28.5074  -23.9773   21.4053 C   0  0  0  0  0  0
  -28.1705  -24.3037   20.0681 C   0  0  0  0  0  0
  -29.1988  -24.9572   22.3380 C   0  0  0  0  0  0
  -27.4962  -20.2970   21.4170 C   0  0  0  0  0  0
  -28.6375  -25.5916   19.3804 C   0  0  0  0  0  0
  -28.7239  -19.4951   20.9501 C   0  0  0  0  0  0
  -28.9588  -18.1593   21.6761 C   0  0  0  0  0  0
  -30.3770  -17.6375   21.3772 C   0  0  0  0  0  0
  -30.7991  -16.3827   22.1600 C   0  0  0  0  0  0
  -27.5385  -23.4242   19.2576 N   0  0  0  0  0  0
  -30.2024  -15.1609   21.6322 N   0  0  0  0  0  0
  -31.4579  -12.4083   19.0860 H   0  0  0  0  0  0
  -30.3303  -11.2651   19.7539 H   0  0  0  0  0  0
  -29.7158  -11.8095   17.3912 H   0  0  0  0  0  0
  -29.6479  -13.5121   17.7720 H   0  0  0  0  0  0
  -27.8176  -11.3097   18.7919 H   0  0  0  0  0  0
  -27.3494  -12.6484   17.7806 H   0  0  0  0  0  0
  -27.7231  -14.2478   19.6009 H   0  0  0  0  0  0
  -28.6591  -11.8703   21.2813 H   0  0  0  0  0  0
  -28.4281  -13.4750   21.8866 H   0  0  0  0  0  0
  -25.2711   -9.5738   22.4748 H   0  0  0  0  0  0
  -23.9976   -7.4672   22.7499 H   0  0  0  0  0  0
  -21.0810   -8.8703   19.8946 H   0  0  0  0  0  0
  -22.3599  -10.9637   19.6139 H   0  0  0  0  0  0
  -21.1989   -7.6135   23.9718 H   0  0  0  0  0  0
  -21.1465   -6.0504   25.9083 H   0  0  0  0  0  0
  -22.0589   -2.7595   23.2850 H   0  0  0  0  0  0
  -22.4099  -11.9894   22.4782 H   0  0  0  0  0  0
  -21.1115  -13.1289   22.2618 H   0  0  0  0  0  0
  -24.6750  -15.8474   20.5341 H   0  0  0  0  0  0
  -26.2962  -15.6225   20.1088 H   0  0  0  0  0  0
  -26.7120  -32.5533   23.1182 H   0  0  0  0  0  0
  -25.0313  -33.9758   25.0669 H   0  0  0  0  0  0
  -22.6864  -31.3113   21.4076 H   0  0  0  0  0  0
  -23.3772  -35.9602   23.3293 H   0  0  0  0  0  0
  -24.3611  -36.8934   22.2082 H   0  0  0  0  0  0
  -23.7217  -37.6462   23.6704 H   0  0  0  0  0  0
  -26.0348  -31.6060   20.5930 H   0  0  0  0  0  0
  -26.8107  -30.8947   21.9794 H   0  0  0  0  0  0
  -28.0847  -29.1217   21.1795 H   0  0  0  0  0  0
  -26.0550  -25.9694   19.0282 H   0  0  0  0  0  0
  -23.9846  -27.2764   19.0480 H   0  0  0  0  0  0
  -23.7180  -30.5950   19.3998 H   0  0  0  0  0  0
  -22.7302  -29.2419   19.8660 H   0  0  0  0  0  0
  -25.1309  -36.1967   25.0849 H   0  0  0  0  0  0
  -20.9947  -28.3278   24.1410 H   0  0  0  0  0  0
  -20.5707  -26.2314   23.3598 H   0  0  0  0  0  0
  -21.6633  -26.7512   22.1182 H   0  0  0  0  0  0
  -19.6908  -25.6293   21.1248 H   0  0  0  0  0  0
  -19.6667  -27.3167   20.6710 H   0  0  0  0  0  0
  -17.4207  -26.6743   21.3956 H   0  0  0  0  0  0
  -18.0256  -26.0062   22.8948 H   0  0  0  0  0  0
  -19.7937  -30.7268   24.2241 H   0  0  0  0  0  0
  -17.5039  -31.6282   24.5181 H   0  0  0  0  0  0
  -15.5355  -30.3021   23.7681 H   0  0  0  0  0  0
  -15.8645  -28.0836   22.7110 H   0  0  0  0  0  0
  -24.6049  -30.6852   25.7838 H   0  0  0  0  0  0
  -24.8992  -32.2643   26.5030 H   0  0  0  0  0  0
  -25.8284  -30.8687   27.0181 H   0  0  0  0  0  0
  -26.2844  -29.6667   24.1321 H   0  0  0  0  0  0
  -27.4464  -29.7350   25.4395 H   0  0  0  0  0  0
  -27.8542  -30.4378   23.8933 H   0  0  0  0  0  0
  -27.2755  -33.3653   26.1909 H   0  0  0  0  0  0
  -28.3984  -32.6635   25.0338 H   0  0  0  0  0  0
  -28.0634  -31.8448   26.5514 H   0  0  0  0  0  0
  -28.2651  -38.0059   24.7472 H   0  0  0  0  0  0
  -28.0994  -36.2577   24.6483 H   0  0  0  0  0  0
  -27.2252  -37.1660   25.8904 H   0  0  0  0  0  0
  -20.9294  -29.8773   21.6897 H   0  0  0  0  0  0
  -26.0199  -38.2859   24.1315 H   0  0  0  0  0  0
  -28.5142  -22.3791   22.8711 H   0  0  0  0  0  0
  -26.8275  -21.4970   19.0095 H   0  0  0  0  0  0
  -29.4945  -24.4749   23.2717 H   0  0  0  0  0  0
  -28.5284  -25.7795   22.5911 H   0  0  0  0  0  0
  -30.0975  -25.3669   21.8780 H   0  0  0  0  0  0
  -26.5772  -19.8722   21.0116 H   0  0  0  0  0  0
  -27.4057  -20.2524   22.5045 H   0  0  0  0  0  0
  -28.2226  -25.6833   18.3753 H   0  0  0  0  0  0
  -29.7133  -25.4873   19.2338 H   0  0  0  0  0  0
  -29.6065  -20.1149   21.1160 H   0  0  0  0  0  0
  -28.6763  -19.3317   19.8718 H   0  0  0  0  0  0
  -28.2033  -17.4278   21.3855 H   0  0  0  0  0  0
  -28.8506  -18.3088   22.7513 H   0  0  0  0  0  0
  -31.0850  -18.4269   21.6314 H   0  0  0  0  0  0
  -30.4914  -17.4718   20.3050 H   0  0  0  0  0  0
  -30.5317  -16.4850   23.2123 H   0  0  0  0  0  0
  -31.8867  -16.2930   22.1380 H   0  0  0  0  0  0
  -29.3468  -14.8401   22.0620 H   0  0  0  0  0  0
  1 25  1  0  0  0
  1 30  2  0  0  0
  1 84  1  0  0  0
  2  3  1  0  0  0
  2 25  1  0  0  0
  2 85  1  0  0  0
  2 86  1  0  0  0
  3  4  1  0  0  0
  3 87  1  0  0  0
  3 88  1  0  0  0
  4  5  1  0  0  0
  4 89  1  0  0  0
  4 90  1  0  0  0
  5  6  1  0  0  0
  5 26  1  0  0  0
  5 91  1  0  0  0
  6 25  1  0  0  0
  6 92  1  0  0  0
  6 93  1  0  0  0
  7  8  2  0  0  0
  7 26  1  0  0  0
  7 29  1  0  0  0
  8  9  1  0  0  0
  8 22  1  0  0  0
  9 10  1  0  0  0
  9 27  2  0  0  0
 10 11  2  0  0  0
 10 15  1  0  0  0
 11 12  1  0  0  0
 11 94  1  0  0  0
 12 13  2  0  0  0
 12 95  1  0  0  0
 13 14  1  0  0  0
 13 31  1  0  0  0
 14 15  2  0  0  0
 14 96  1  0  0  0
 15 97  1  0  0  0
 16 17  2  0  0  0
 16 21  1  0  0  0
 16 31  1  0  0  0
 17 18  1  0  0  0
 17 98  1  0  0  0
 18 19  2  0  0  0
 18 99  1  0  0  0
 19 20  1  0  0  0
 19 24  1  0  0  0
 20 21  2  0  0  0
 20100  1  0  0  0
 21 23  1  0  0  0
 22 28  1  0  0  0
 22 32  2  0  0  0
 26 27  1  0  0  0
 28101  1  0  0  0
 28102  1  0  0  0
 29103  1  0  0  0
 29104  1  0  0  0
 33 34  1  0  0  0
 33 66  1  0  0  0
 33 70  2  0  0  0
 34 36  1  0  0  0
 34 59  1  0  0  0
 34105  1  0  0  0
 35 44  2  0  0  0
 35 45  1  0  0  0
 35 68  1  0  0  0
 36 56  1  0  0  0
 36106  1  0  0  0
 37 39  1  0  0  0
 37 47  1  0  0  0
 37 66  1  0  0  0
 37107  1  0  0  0
 38 43  2  0  0  0
 38 46  1  0  0  0
 38 47  1  0  0  0
 39 64  1  0  0  0
 39 67  2  0  0  0
 40 52  1  0  0  0
 40 53  2  0  0  0
 40 58  1  0  0  0
 41108  1  0  0  0
 41109  1  0  0  0
 41110  1  0  0  0
 41 48  1  0  0  0
 42 43  1  0  0  0
 42 66  1  0  0  0
 42111  1  0  0  0
 42112  1  0  0  0
 43 44  1  0  0  0
 44113  1  0  0  0
 45 46  2  0  0  0
 45114  1  0  0  0
 46115  1  0  0  0
 47116  1  0  0  0
 47117  1  0  0  0
 48 56  1  0  0  0
 48 65  1  0  0  0
 48118  1  0  0  0
 49 50  1  0  0  0
 49 53  1  0  0  0
 49 64  1  0  0  0
 49119  1  0  0  0
 50 51  1  0  0  0
 50120  1  0  0  0
 50121  1  0  0  0
 51 52  1  0  0  0
 51122  1  0  0  0
 51123  1  0  0  0
 52124  1  0  0  0
 52125  1  0  0  0
 53 54  1  0  0  0
 54 55  2  0  0  0
 54126  1  0  0  0
 55 57  1  0  0  0
 55127  1  0  0  0
 56 69  2  0  0  0
 57 58  2  0  0  0
 57128  1  0  0  0
 58129  1  0  0  0
 59 60  1  0  0  0
 59 61  1  0  0  0
 59 62  1  0  0  0
 60130  1  0  0  0
 60131  1  0  0  0
 60132  1  0  0  0
 61133  1  0  0  0
 61134  1  0  0  0
 61135  1  0  0  0
 62136  1  0  0  0
 62137  1  0  0  0
 62138  1  0  0  0
 63 65  1  0  0  0
 63139  1  0  0  0
 63140  1  0  0  0
 63141  1  0  0  0
 64142  1  0  0  0
 65143  1  0  0  0
 68 78  1  0  0  0
 71 73  2  0  0  0
 71 74  1  0  0  0
 71144  1  0  0  0
 72 73  1  0  0  0
 72 83  2  0  0  0
 72145  1  0  0  0
 73 77  1  0  0  0
 74 75  2  0  0  0
 74 76  1  0  0  0
 75 78  1  0  0  0
 75 83  1  0  0  0
 76146  1  0  0  0
 76147  1  0  0  0
 76148  1  0  0  0
 77 79  1  0  0  0
 77149  1  0  0  0
 77150  1  0  0  0
 78151  1  0  0  0
 78152  1  0  0  0
 79 80  1  0  0  0
 79153  1  0  0  0
 79154  1  0  0  0
 80 81  1  0  0  0
 80155  1  0  0  0
 80156  1  0  0  0
 81 82  1  0  0  0
 81157  1  0  0  0
 81158  1  0  0  0
 82 84  1  0  0  0
 82159  1  0  0  0
 82160  1  0  0  0
 84161  1  0  0  0
M  ISO  4   1 100  68 101  78 101  84 100
M  END
> <chiral flag>
0

> <version>
0

> <s_m_source_file>
/data/baiqing/PycharmProjects/Reinvent-master-3.2/result/LINK_invent/BTK/process_docking_weight1_custom_sum_contain_oxygen_bond_distance_aromatic_linkinvent_7_9_3/rearranged_h_0038.sdf

> <i_m_source_file_index>
55

> <r_mmod_Potential_Energy-OPLS-2005>
-199.55842590332

> <r_mmod_Stretch_Energy-OPLS-2005>
31.9633827209473

> <r_mmod_Bend_Energy-OPLS-2005>
101.154067993164

> <r_mmod_Torsional_Energy-OPLS-2005>
199.756454467773

> <r_mmod_Improper_Torsional_Energy-OPLS-2005>
2.48754858970642

> <r_mmod_Van_der_Waal_Energy-OPLS-2005>
153.628005981445

> <r_mmod_Electrostatic_Energy-OPLS-2005>
-483.893981933594

> <r_mmod_Solvation_Energy-OPLS-2005>
-213.251022338867

> <b_mmod_Minimization_Converged-OPLS-2005>
0

> <r_mmod_RMS_Derivative-OPLS-2005>
2.1077983379364

$$$$
57
                    3D
 Structure written by MMmdl.
158166  0  0  1  0            999 V2000
  -30.6204  -14.6996   20.4672 C   0  0  0  0  0  0
  -30.4284  -12.4260   19.4695 C   0  0  0  0  0  0
  -29.5074  -12.5040   18.2325 C   0  0  0  0  0  0
  -28.0317  -12.3363   18.6433 C   0  0  0  0  0  0
  -27.6430  -13.2277   19.8534 C   0  0  2  0  0  0
  -28.6857  -13.1402   20.9889 C   0  0  0  0  0  0
  -25.2510  -13.8191   20.5685 C   0  0  0  0  0  0
  -24.1798  -13.0439   20.9201 C   0  0  0  0  0  0
  -24.6385  -11.6915   20.8746 C   0  0  0  0  0  0
  -23.9064  -10.4291   21.0406 C   0  0  0  0  0  0
  -24.3616   -9.4207   21.9183 C   0  0  0  0  0  0
  -23.6291   -8.2243   22.0752 C   0  0  0  0  0  0
  -22.4273   -8.0279   21.3543 C   0  0  0  0  0  0
  -21.9909   -9.0253   20.4646 C   0  0  0  0  0  0
  -22.7237  -10.2132   20.3055 C   0  0  0  0  0  0
  -21.6854   -6.0734   22.5278 C   0  0  0  0  0  0
  -21.4017   -6.5639   23.8211 C   0  0  0  0  0  0
  -21.3660   -5.6790   24.9173 C   0  0  0  0  0  0
  -21.6042   -4.3053   24.7225 C   0  0  0  0  0  0
  -21.8820   -3.8145   23.4346 C   0  0  0  0  0  0
  -21.9194   -4.6962   22.3401 C   0  0  0  0  0  0
  -22.7820  -13.5224   21.1857 C   0  0  0  0  0  0
  -22.1663   -4.2148   21.0979 F   0  0  0  0  0  0
  -21.5626   -3.4536   25.7738 F   0  0  0  0  0  0
  -29.9917  -13.4796   20.4117 N   0  0  0  0  0  0
  -26.2934  -12.9392   20.3284 N   0  0  0  0  0  0
  -25.9313  -11.6537   20.5752 N   0  0  0  0  0  0
  -22.0468  -12.8219   22.0420 N   0  0  0  0  0  0
  -25.4202  -15.1913   20.4092 N   0  0  0  0  0  0
  -31.8038  -14.8060   20.1341 O   0  0  0  0  0  0
  -21.6639   -6.8875   21.4238 O   0  0  0  0  0  0
  -22.3505  -14.5526   20.6697 O   0  0  0  0  0  0
  -24.6281  -31.8566   23.1986 C   0  0  0  0  0  0
  -25.9117  -32.4760   23.8324 C   0  0  1  0  0  0
  -27.2244  -27.2855   20.1189 C   0  0  0  0  0  0
  -25.5923  -33.8562   24.2252 N   0  0  0  0  0  0
  -23.4227  -30.4789   21.5419 C   0  0  2  0  0  0
  -24.8684  -28.9257   20.1088 C   0  0  0  0  0  0
  -22.7479  -29.4609   22.4919 C   0  0  0  0  0  0
  -18.0288  -28.1389   22.8484 C   0  0  0  0  0  0
  -24.1491  -36.7288   23.2641 C   0  0  0  0  0  0
  -25.9651  -30.7760   21.3734 C   0  0  0  0  0  0
  -26.0366  -29.4002   20.7160 C   0  0  0  0  0  0
  -27.2128  -28.5905   20.7123 C   0  0  0  0  0  0
  -26.0265  -26.8624   19.4996 C   0  0  0  0  0  0
  -24.8667  -27.6638   19.4932 C   0  0  0  0  0  0
  -23.6380  -29.8104   20.1577 C   0  0  0  0  0  0
  -25.4118  -36.3075   24.0327 C   0  0  1  0  0  0
  -20.5889  -28.3694   23.1276 C   0  0  2  0  0  0
  -20.6778  -26.9415   22.5410 C   0  0  0  0  0  0
  -19.5755  -26.6385   21.5213 C   0  0  0  0  0  0
  -18.1935  -26.7932   22.1624 C   0  0  0  0  0  0
  -19.1542  -28.8857   23.2877 C   0  0  0  0  0  0
  -18.9466  -30.1460   23.8893 C   0  0  0  0  0  0
  -17.6466  -30.6591   24.0562 C   0  0  0  0  0  0
  -25.9054  -34.9444   23.5094 C   0  0  0  0  0  0
  -16.5356  -29.9089   23.6330 C   0  0  0  0  0  0
  -16.7276  -28.6508   23.0349 C   0  0  0  0  0  0
  -26.4493  -31.6582   25.0707 C   0  0  0  0  0  0
  -25.3716  -31.3727   26.1426 C   0  0  0  0  0  0
  -27.0342  -30.3006   24.6177 C   0  0  0  0  0  0
  -27.6048  -32.4322   25.7479 C   0  0  0  0  0  0
  -27.5581  -37.1802   24.8466 C   0  0  0  0  0  0
  -21.4191  -29.3042   22.3661 N   0  0  0  0  0  0
  -26.4295  -37.3773   23.9405 N   0  0  0  0  0  0
  -24.6910  -31.0551   22.0947 N   0  0  0  0  0  0
  -23.4190  -28.8155   23.3015 O   0  0  0  0  0  0
  -28.3612  -26.4566   20.1918 O   0  0  0  0  0  0
  -26.5631  -34.8919   22.4666 O   0  0  0  0  0  0
  -23.5441  -32.1380   23.7299 O   0  0  0  0  0  0
  -29.0237  -22.5166   20.0206 C   0  0  0  0  0  0
  -29.0245  -21.3383   20.8573 C   0  0  0  0  0  0
  -28.4265  -21.5315   22.1338 C   0  0  0  0  0  0
  -28.4579  -23.7788   20.4400 C   0  0  0  0  0  0
  -27.8302  -22.7849   22.4511 C   0  0  0  0  0  0
  -28.4590  -20.4310   23.1892 C   0  0  0  0  0  0
  -27.1213  -23.0259   23.7728 C   0  0  0  0  0  0
  -29.8002  -19.9989   20.4604 C   0  0  0  0  0  0
  -28.4668  -25.1020   19.5654 C   0  0  0  0  0  0
  -29.2388  -18.4913   20.6604 C   0  0  0  0  0  0
  -30.2849  -17.2765   20.4766 C   0  0  0  0  0  0
  -27.8532  -23.8646   21.6397 N   0  0  0  0  0  0
  -29.8540  -15.8300   20.6775 N   0  0  0  0  0  0
  -31.4709  -12.5437   19.1696 H   0  0  0  0  0  0
  -30.3619  -11.4441   19.9409 H   0  0  0  0  0  0
  -29.7841  -11.7385   17.5063 H   0  0  0  0  0  0
  -29.6428  -13.4644   17.7323 H   0  0  0  0  0  0
  -27.8790  -11.2860   18.8944 H   0  0  0  0  0  0
  -27.3771  -12.5431   17.7960 H   0  0  0  0  0  0
  -27.6443  -14.2536   19.4846 H   0  0  0  0  0  0
  -28.7080  -12.1380   21.4192 H   0  0  0  0  0  0
  -28.4273  -13.8168   21.8053 H   0  0  0  0  0  0
  -25.2764   -9.5686   22.4755 H   0  0  0  0  0  0
  -24.0003   -7.4636   22.7469 H   0  0  0  0  0  0
  -21.0842   -8.8770   19.8953 H   0  0  0  0  0  0
  -22.3694  -10.9669   19.6162 H   0  0  0  0  0  0
  -21.2013   -7.6148   23.9715 H   0  0  0  0  0  0
  -21.1480   -6.0520   25.9076 H   0  0  0  0  0  0
  -22.0600   -2.7607   23.2846 H   0  0  0  0  0  0
  -22.4093  -11.9894   22.4825 H   0  0  0  0  0  0
  -21.1079  -13.1235   22.2611 H   0  0  0  0  0  0
  -24.6494  -15.8425   20.5133 H   0  0  0  0  0  0
  -26.2640  -15.6314   20.0655 H   0  0  0  0  0  0
  -26.7173  -32.5412   23.1056 H   0  0  0  0  0  0
  -25.0054  -33.9698   25.0387 H   0  0  0  0  0  0
  -22.7183  -31.3006   21.3966 H   0  0  0  0  0  0
  -23.3755  -35.9620   23.3307 H   0  0  0  0  0  0
  -24.3578  -36.8908   22.2055 H   0  0  0  0  0  0
  -23.7245  -37.6490   23.6662 H   0  0  0  0  0  0
  -26.1003  -31.5371   20.6037 H   0  0  0  0  0  0
  -26.8440  -30.8248   22.0047 H   0  0  0  0  0  0
  -28.1088  -28.9508   21.1983 H   0  0  0  0  0  0
  -25.9403  -25.8901   19.0415 H   0  0  0  0  0  0
  -23.9670  -27.2908   19.0235 H   0  0  0  0  0  0
  -23.7585  -30.5851   19.3999 H   0  0  0  0  0  0
  -22.7567  -29.2419   19.8558 H   0  0  0  0  0  0
  -25.1304  -36.1924   25.0821 H   0  0  0  0  0  0
  -20.9987  -28.3275   24.1395 H   0  0  0  0  0  0
  -20.5683  -26.2305   23.3614 H   0  0  0  0  0  0
  -21.6647  -26.7445   22.1203 H   0  0  0  0  0  0
  -19.6919  -25.6295   21.1245 H   0  0  0  0  0  0
  -19.6696  -27.3192   20.6742 H   0  0  0  0  0  0
  -17.4206  -26.6675   21.4027 H   0  0  0  0  0  0
  -18.0338  -26.0077   22.9025 H   0  0  0  0  0  0
  -19.7941  -30.7277   24.2263 H   0  0  0  0  0  0
  -17.5020  -31.6271   24.5165 H   0  0  0  0  0  0
  -15.5357  -30.2991   23.7660 H   0  0  0  0  0  0
  -15.8675  -28.0827   22.7065 H   0  0  0  0  0  0
  -24.5897  -30.7071   25.7749 H   0  0  0  0  0  0
  -24.8896  -32.2895   26.4832 H   0  0  0  0  0  0
  -25.8029  -30.8915   27.0211 H   0  0  0  0  0  0
  -26.2920  -29.6749   24.1204 H   0  0  0  0  0  0
  -27.4041  -29.7271   25.4686 H   0  0  0  0  0  0
  -27.8786  -30.4294   23.9403 H   0  0  0  0  0  0
  -27.2658  -33.3628   26.2043 H   0  0  0  0  0  0
  -28.3863  -32.6872   25.0309 H   0  0  0  0  0  0
  -28.0706  -31.8453   26.5406 H   0  0  0  0  0  0
  -28.2604  -38.0094   24.7509 H   0  0  0  0  0  0
  -28.1073  -36.2625   24.6303 H   0  0  0  0  0  0
  -27.2294  -37.1463   25.8869 H   0  0  0  0  0  0
  -20.9373  -29.8754   21.6858 H   0  0  0  0  0  0
  -26.0177  -38.2851   24.1398 H   0  0  0  0  0  0
  -29.5036  -22.4695   19.0521 H   0  0  0  0  0  0
  -29.3987  -19.8808   23.1585 H   0  0  0  0  0  0
  -27.6303  -19.7377   23.0435 H   0  0  0  0  0  0
  -28.3894  -20.8202   24.2038 H   0  0  0  0  0  0
  -27.8431  -23.1014   24.5862 H   0  0  0  0  0  0
  -26.4284  -22.2144   23.9950 H   0  0  0  0  0  0
  -26.5427  -23.9501   23.7551 H   0  0  0  0  0  0
  -30.7461  -20.0573   20.9992 H   0  0  0  0  0  0
  -30.0801  -20.0980   19.4114 H   0  0  0  0  0  0
  -27.7759  -24.9727   18.7355 H   0  0  0  0  0  0
  -29.4425  -25.1079   19.0792 H   0  0  0  0  0  0
  -28.4005  -18.3502   19.9782 H   0  0  0  0  0  0
  -28.8134  -18.3741   21.6516 H   0  0  0  0  0  0
  -31.1250  -17.4510   21.1505 H   0  0  0  0  0  0
  -30.7049  -17.3481   19.4720 H   0  0  0  0  0  0
  -28.8855  -15.6701   20.9112 H   0  0  0  0  0  0
  1 25  1  0  0  0
  1 30  2  0  0  0
  1 83  1  0  0  0
  2  3  1  0  0  0
  2 25  1  0  0  0
  2 84  1  0  0  0
  2 85  1  0  0  0
  3  4  1  0  0  0
  3 86  1  0  0  0
  3 87  1  0  0  0
  4  5  1  0  0  0
  4 88  1  0  0  0
  4 89  1  0  0  0
  5  6  1  0  0  0
  5 26  1  0  0  0
  5 90  1  0  0  0
  6 25  1  0  0  0
  6 91  1  0  0  0
  6 92  1  0  0  0
  7  8  2  0  0  0
  7 26  1  0  0  0
  7 29  1  0  0  0
  8  9  1  0  0  0
  8 22  1  0  0  0
  9 10  1  0  0  0
  9 27  2  0  0  0
 10 11  2  0  0  0
 10 15  1  0  0  0
 11 12  1  0  0  0
 11 93  1  0  0  0
 12 13  2  0  0  0
 12 94  1  0  0  0
 13 14  1  0  0  0
 13 31  1  0  0  0
 14 15  2  0  0  0
 14 95  1  0  0  0
 15 96  1  0  0  0
 16 17  2  0  0  0
 16 21  1  0  0  0
 16 31  1  0  0  0
 17 18  1  0  0  0
 17 97  1  0  0  0
 18 19  2  0  0  0
 18 98  1  0  0  0
 19 20  1  0  0  0
 19 24  1  0  0  0
 20 21  2  0  0  0
 20 99  1  0  0  0
 21 23  1  0  0  0
 22 28  1  0  0  0
 22 32  2  0  0  0
 26 27  1  0  0  0
 28100  1  0  0  0
 28101  1  0  0  0
 29102  1  0  0  0
 29103  1  0  0  0
 33 34  1  0  0  0
 33 66  1  0  0  0
 33 70  2  0  0  0
 34 36  1  0  0  0
 34 59  1  0  0  0
 34104  1  0  0  0
 35 44  2  0  0  0
 35 45  1  0  0  0
 35 68  1  0  0  0
 36 56  1  0  0  0
 36105  1  0  0  0
 37 39  1  0  0  0
 37 47  1  0  0  0
 37 66  1  0  0  0
 37106  1  0  0  0
 38 43  2  0  0  0
 38 46  1  0  0  0
 38 47  1  0  0  0
 39 64  1  0  0  0
 39 67  2  0  0  0
 40 52  1  0  0  0
 40 53  2  0  0  0
 40 58  1  0  0  0
 41107  1  0  0  0
 41108  1  0  0  0
 41109  1  0  0  0
 41 48  1  0  0  0
 42 43  1  0  0  0
 42 66  1  0  0  0
 42110  1  0  0  0
 42111  1  0  0  0
 43 44  1  0  0  0
 44112  1  0  0  0
 45 46  2  0  0  0
 45113  1  0  0  0
 46114  1  0  0  0
 47115  1  0  0  0
 47116  1  0  0  0
 48 56  1  0  0  0
 48 65  1  0  0  0
 48117  1  0  0  0
 49 50  1  0  0  0
 49 53  1  0  0  0
 49 64  1  0  0  0
 49118  1  0  0  0
 50 51  1  0  0  0
 50119  1  0  0  0
 50120  1  0  0  0
 51 52  1  0  0  0
 51121  1  0  0  0
 51122  1  0  0  0
 52123  1  0  0  0
 52124  1  0  0  0
 53 54  1  0  0  0
 54 55  2  0  0  0
 54125  1  0  0  0
 55 57  1  0  0  0
 55126  1  0  0  0
 56 69  2  0  0  0
 57 58  2  0  0  0
 57127  1  0  0  0
 58128  1  0  0  0
 59 60  1  0  0  0
 59 61  1  0  0  0
 59 62  1  0  0  0
 60129  1  0  0  0
 60130  1  0  0  0
 60131  1  0  0  0
 61132  1  0  0  0
 61133  1  0  0  0
 61134  1  0  0  0
 62135  1  0  0  0
 62136  1  0  0  0
 62137  1  0  0  0
 63 65  1  0  0  0
 63138  1  0  0  0
 63139  1  0  0  0
 63140  1  0  0  0
 64141  1  0  0  0
 65142  1  0  0  0
 68 79  1  0  0  0
 71 72  2  0  0  0
 71 74  1  0  0  0
 71143  1  0  0  0
 72 73  1  0  0  0
 72 78  1  0  0  0
 73 75  2  0  0  0
 73 76  1  0  0  0
 74 79  1  0  0  0
 74 82  2  0  0  0
 75 77  1  0  0  0
 75 82  1  0  0  0
 76144  1  0  0  0
 76145  1  0  0  0
 76146  1  0  0  0
 77147  1  0  0  0
 77148  1  0  0  0
 77149  1  0  0  0
 78 80  1  0  0  0
 78150  1  0  0  0
 78151  1  0  0  0
 79152  1  0  0  0
 79153  1  0  0  0
 80 81  1  0  0  0
 80154  1  0  0  0
 80155  1  0  0  0
 81 83  1  0  0  0
 81156  1  0  0  0
 81157  1  0  0  0
 83158  1  0  0  0
M  ISO  4   1 100  68 101  79 101  83 100
M  END
> <chiral flag>
0

> <version>
0

> <s_m_source_file>
/data/baiqing/PycharmProjects/Reinvent-master-3.2/result/LINK_invent/BTK/process_docking_weight1_custom_sum_contain_oxygen_bond_distance_aromatic_linkinvent_7_9_3/rearranged_h_0038.sdf

> <i_m_source_file_index>
56

> <r_mmod_Potential_Energy-OPLS-2005>
-47.1130752563477

> <r_mmod_Stretch_Energy-OPLS-2005>
108.169609069824

> <r_mmod_Bend_Energy-OPLS-2005>
164.330368041992

> <r_mmod_Torsional_Energy-OPLS-2005>
199.738861083984

> <r_mmod_Improper_Torsional_Energy-OPLS-2005>
5.96535396575928

> <r_mmod_Van_der_Waal_Energy-OPLS-2005>
146.263305664062

> <r_mmod_Electrostatic_Energy-OPLS-2005>
-504.708312988281

> <r_mmod_Solvation_Energy-OPLS-2005>
-233.469833374023

> <b_mmod_Minimization_Converged-OPLS-2005>
0

> <r_mmod_RMS_Derivative-OPLS-2005>
0.522497713565826

$$$$
58
                    3D
 Structure written by MMmdl.
156164  0  0  1  0            999 V2000
  -30.6167  -14.5129   20.6084 C   0  0  0  0  0  0
  -30.4456  -12.3532   19.4015 C   0  0  0  0  0  0
  -29.4957  -12.5326   18.1971 C   0  0  0  0  0  0
  -28.0151  -12.3685   18.6112 C   0  0  0  0  0  0
  -27.6583  -13.1930   19.8769 C   0  0  2  0  0  0
  -28.7029  -12.9309   20.9855 C   0  0  0  0  0  0
  -25.2566  -13.8109   20.5616 C   0  0  0  0  0  0
  -24.1819  -13.0395   20.9146 C   0  0  0  0  0  0
  -24.6393  -11.6880   20.8728 C   0  0  0  0  0  0
  -23.9068  -10.4272   21.0399 C   0  0  0  0  0  0
  -24.3641   -9.4183   21.9174 C   0  0  0  0  0  0
  -23.6308   -8.2226   22.0755 C   0  0  0  0  0  0
  -22.4276   -8.0286   21.3556 C   0  0  0  0  0  0
  -21.9914   -9.0246   20.4632 C   0  0  0  0  0  0
  -22.7237  -10.2127   20.3038 C   0  0  0  0  0  0
  -21.6833   -6.0732   22.5284 C   0  0  0  0  0  0
  -21.3999   -6.5622   23.8215 C   0  0  0  0  0  0
  -21.3668   -5.6768   24.9181 C   0  0  0  0  0  0
  -21.6048   -4.3023   24.7212 C   0  0  0  0  0  0
  -21.8813   -3.8135   23.4322 C   0  0  0  0  0  0
  -21.9187   -4.6969   22.3391 C   0  0  0  0  0  0
  -22.7847  -13.5202   21.1810 C   0  0  0  0  0  0
  -22.1649   -4.2175   21.0958 F   0  0  0  0  0  0
  -21.5683   -3.4483   25.7707 F   0  0  0  0  0  0
  -30.0190  -13.3017   20.4385 N   0  0  0  0  0  0
  -26.3011  -12.9259   20.3371 N   0  0  0  0  0  0
  -25.9310  -11.6441   20.5766 N   0  0  0  0  0  0
  -22.0520  -12.8211   22.0403 N   0  0  0  0  0  0
  -25.4196  -15.1828   20.3963 N   0  0  0  0  0  0
  -31.7579  -14.7658   20.2033 O   0  0  0  0  0  0
  -21.6632   -6.8888   21.4248 O   0  0  0  0  0  0
  -22.3507  -14.5498   20.6656 O   0  0  0  0  0  0
  -24.6199  -31.8660   23.2090 C   0  0  0  0  0  0
  -25.9080  -32.4809   23.8394 C   0  0  1  0  0  0
  -27.2236  -27.3875   20.0880 C   0  0  0  0  0  0
  -25.5928  -33.8608   24.2304 N   0  0  0  0  0  0
  -23.4079  -30.4908   21.5522 C   0  0  2  0  0  0
  -24.8474  -28.9486   20.1163 C   0  0  0  0  0  0
  -22.7411  -29.4673   22.5007 C   0  0  0  0  0  0
  -18.0276  -28.1392   22.8495 C   0  0  0  0  0  0
  -24.1499  -36.7296   23.2645 C   0  0  0  0  0  0
  -25.9433  -30.8142   21.3710 C   0  0  0  0  0  0
  -26.0141  -29.4488   20.7068 C   0  0  0  0  0  0
  -27.2019  -28.6770   20.6839 C   0  0  0  0  0  0
  -26.0287  -26.9057   19.5042 C   0  0  0  0  0  0
  -24.8527  -27.6791   19.5145 C   0  0  0  0  0  0
  -23.6149  -29.8238   20.1670 C   0  0  0  0  0  0
  -25.4123  -36.3098   24.0337 C   0  0  1  0  0  0
  -20.5868  -28.3680   23.1323 C   0  0  2  0  0  0
  -20.6779  -26.9415   22.5428 C   0  0  0  0  0  0
  -19.5763  -26.6394   21.5226 C   0  0  0  0  0  0
  -18.1934  -26.7954   22.1626 C   0  0  0  0  0  0
  -19.1524  -28.8858   23.2908 C   0  0  0  0  0  0
  -18.9450  -30.1460   23.8916 C   0  0  0  0  0  0
  -17.6462  -30.6599   24.0557 C   0  0  0  0  0  0
  -25.9052  -34.9471   23.5118 C   0  0  0  0  0  0
  -16.5344  -29.9100   23.6335 C   0  0  0  0  0  0
  -16.7264  -28.6508   23.0361 C   0  0  0  0  0  0
  -26.4482  -31.6620   25.0761 C   0  0  0  0  0  0
  -25.3734  -31.3748   26.1499 C   0  0  0  0  0  0
  -27.0326  -30.3058   24.6208 C   0  0  0  0  0  0
  -27.6045  -32.4367   25.7516 C   0  0  0  0  0  0
  -27.5588  -37.1806   24.8457 C   0  0  0  0  0  0
  -21.4147  -29.3040   22.3711 N   0  0  0  0  0  0
  -26.4294  -37.3788   23.9406 N   0  0  0  0  0  0
  -24.6756  -31.0717   22.1015 N   0  0  0  0  0  0
  -23.4160  -28.8226   23.3084 O   0  0  0  0  0  0
  -28.4067  -26.6629   20.0974 O   0  0  0  0  0  0
  -26.5597  -34.8920   22.4670 O   0  0  0  0  0  0
  -23.5378  -32.1450   23.7448 O   0  0  0  0  0  0
  -28.7823  -21.8353   21.5612 C   0  0  0  0  0  0
  -29.2586  -20.6911   20.9547 C   0  0  0  0  0  0
  -29.3172  -21.0896   19.5802 C   0  0  0  0  0  0
  -29.7649  -20.2912   18.3888 C   0  0  0  0  0  0
  -29.6689  -19.3787   21.6616 C   0  0  0  0  0  0
  -29.6262  -18.0252   20.8631 C   0  0  0  0  0  0
  -28.1962  -24.2443   20.8385 C   0  0  0  0  0  0
  -30.0848  -16.7859   21.7081 C   0  0  0  0  0  0
  -28.4667  -25.2684   19.6902 C   0  0  0  0  0  0
  -28.9365  -22.3561   19.3914 N   0  0  0  0  0  0
  -28.6347  -22.8420   20.6184 N   0  0  0  0  0  0
  -29.8002  -15.4508   21.1436 N   0  0  0  0  0  0
  -31.4814  -12.5146   19.0939 H   0  0  0  0  0  0
  -30.4018  -11.3327   19.7818 H   0  0  0  0  0  0
  -29.7487  -11.8267   17.4046 H   0  0  0  0  0  0
  -29.6402  -13.5252   17.7693 H   0  0  0  0  0  0
  -27.8319  -11.3066   18.7893 H   0  0  0  0  0  0
  -27.3643  -12.6541   17.7859 H   0  0  0  0  0  0
  -27.7061  -14.2455   19.5961 H   0  0  0  0  0  0
  -28.7073  -11.8725   21.2592 H   0  0  0  0  0  0
  -28.4592  -13.4591   21.9077 H   0  0  0  0  0  0
  -25.2819   -9.5613   22.4720 H   0  0  0  0  0  0
  -23.9997   -7.4590   22.7463 H   0  0  0  0  0  0
  -21.0849   -8.8719   19.8944 H   0  0  0  0  0  0
  -22.3687  -10.9650   19.6123 H   0  0  0  0  0  0
  -21.1964   -7.6124   23.9680 H   0  0  0  0  0  0
  -21.1529   -6.0544   25.9083 H   0  0  0  0  0  0
  -22.0603   -2.7600   23.2802 H   0  0  0  0  0  0
  -22.4187  -11.9902   22.4811 H   0  0  0  0  0  0
  -21.1129  -13.1225   22.2626 H   0  0  0  0  0  0
  -24.6377  -15.8223   20.4890 H   0  0  0  0  0  0
  -26.2573  -15.6309   20.0517 H   0  0  0  0  0  0
  -26.7156  -32.5475   23.1143 H   0  0  0  0  0  0
  -25.0102  -33.9759   25.0469 H   0  0  0  0  0  0
  -22.7028  -31.3116   21.4123 H   0  0  0  0  0  0
  -23.3773  -35.9617   23.3305 H   0  0  0  0  0  0
  -24.3594  -36.8911   22.2059 H   0  0  0  0  0  0
  -23.7231  -37.6490   23.6663 H   0  0  0  0  0  0
  -26.0780  -31.5902   20.6144 H   0  0  0  0  0  0
  -26.8210  -30.8498   22.0055 H   0  0  0  0  0  0
  -28.1059  -29.0620   21.1359 H   0  0  0  0  0  0
  -25.9687  -25.9348   19.0369 H   0  0  0  0  0  0
  -23.9491  -27.2869   19.0678 H   0  0  0  0  0  0
  -23.7305  -30.6022   19.4118 H   0  0  0  0  0  0
  -22.7335  -29.2549   19.8641 H   0  0  0  0  0  0
  -25.1305  -36.1964   25.0828 H   0  0  0  0  0  0
  -20.9947  -28.3261   24.1450 H   0  0  0  0  0  0
  -20.5738  -26.2277   23.3604 H   0  0  0  0  0  0
  -21.6652  -26.7501   22.1179 H   0  0  0  0  0  0
  -19.6930  -25.6301   21.1271 H   0  0  0  0  0  0
  -19.6729  -27.3201   20.6753 H   0  0  0  0  0  0
  -17.4203  -26.6712   21.4011 H   0  0  0  0  0  0
  -18.0312  -26.0089   22.9013 H   0  0  0  0  0  0
  -19.7926  -30.7273   24.2303 H   0  0  0  0  0  0
  -17.5009  -31.6288   24.5152 H   0  0  0  0  0  0
  -15.5353  -30.3004   23.7661 H   0  0  0  0  0  0
  -15.8658  -28.0830   22.7098 H   0  0  0  0  0  0
  -24.5844  -30.7181   25.7815 H   0  0  0  0  0  0
  -24.9007  -32.2915   26.5035 H   0  0  0  0  0  0
  -25.8059  -30.8819   27.0213 H   0  0  0  0  0  0
  -26.2904  -29.6813   24.1223 H   0  0  0  0  0  0
  -27.4012  -29.7318   25.4719 H   0  0  0  0  0  0
  -27.8777  -30.4358   23.9443 H   0  0  0  0  0  0
  -27.2639  -33.3629   26.2155 H   0  0  0  0  0  0
  -28.3803  -32.7001   25.0318 H   0  0  0  0  0  0
  -28.0781  -31.8484   26.5377 H   0  0  0  0  0  0
  -28.2589  -38.0121   24.7509 H   0  0  0  0  0  0
  -28.1102  -36.2646   24.6279 H   0  0  0  0  0  0
  -27.2296  -37.1428   25.8856 H   0  0  0  0  0  0
  -20.9329  -29.8701   21.6867 H   0  0  0  0  0  0
  -26.0193  -38.2867   24.1421 H   0  0  0  0  0  0
  -28.5697  -22.0339   22.6024 H   0  0  0  0  0  0
  -29.0662  -19.4808   18.1865 H   0  0  0  0  0  0
  -30.7531  -19.8606   18.5530 H   0  0  0  0  0  0
  -29.8288  -20.8986   17.4855 H   0  0  0  0  0  0
  -29.0436  -19.2460   22.5483 H   0  0  0  0  0  0
  -30.6772  -19.4957   22.0650 H   0  0  0  0  0  0
  -30.2814  -18.0848   19.9947 H   0  0  0  0  0  0
  -28.6129  -17.8641   20.4864 H   0  0  0  0  0  0
  -27.1358  -24.2311   21.0880 H   0  0  0  0  0  0
  -28.7112  -24.6017   21.7336 H   0  0  0  0  0  0
  -29.5374  -16.7989   22.6530 H   0  0  0  0  0  0
  -31.1397  -16.8585   21.9795 H   0  0  0  0  0  0
  -27.8542  -25.0476   18.8159 H   0  0  0  0  0  0
  -29.4879  -25.1179   19.3388 H   0  0  0  0  0  0
  -28.8691  -15.1066   21.3264 H   0  0  0  0  0  0
  1 25  1  0  0  0
  1 30  2  0  0  0
  1 82  1  0  0  0
  2  3  1  0  0  0
  2 25  1  0  0  0
  2 83  1  0  0  0
  2 84  1  0  0  0
  3  4  1  0  0  0
  3 85  1  0  0  0
  3 86  1  0  0  0
  4  5  1  0  0  0
  4 87  1  0  0  0
  4 88  1  0  0  0
  5  6  1  0  0  0
  5 26  1  0  0  0
  5 89  1  0  0  0
  6 25  1  0  0  0
  6 90  1  0  0  0
  6 91  1  0  0  0
  7  8  2  0  0  0
  7 26  1  0  0  0
  7 29  1  0  0  0
  8  9  1  0  0  0
  8 22  1  0  0  0
  9 10  1  0  0  0
  9 27  2  0  0  0
 10 11  2  0  0  0
 10 15  1  0  0  0
 11 12  1  0  0  0
 11 92  1  0  0  0
 12 13  2  0  0  0
 12 93  1  0  0  0
 13 14  1  0  0  0
 13 31  1  0  0  0
 14 15  2  0  0  0
 14 94  1  0  0  0
 15 95  1  0  0  0
 16 17  2  0  0  0
 16 21  1  0  0  0
 16 31  1  0  0  0
 17 18  1  0  0  0
 17 96  1  0  0  0
 18 19  2  0  0  0
 18 97  1  0  0  0
 19 20  1  0  0  0
 19 24  1  0  0  0
 20 21  2  0  0  0
 20 98  1  0  0  0
 21 23  1  0  0  0
 22 28  1  0  0  0
 22 32  2  0  0  0
 26 27  1  0  0  0
 28 99  1  0  0  0
 28100  1  0  0  0
 29101  1  0  0  0
 29102  1  0  0  0
 33 34  1  0  0  0
 33 66  1  0  0  0
 33 70  2  0  0  0
 34 36  1  0  0  0
 34 59  1  0  0  0
 34103  1  0  0  0
 35 44  2  0  0  0
 35 45  1  0  0  0
 35 68  1  0  0  0
 36 56  1  0  0  0
 36104  1  0  0  0
 37 39  1  0  0  0
 37 47  1  0  0  0
 37 66  1  0  0  0
 37105  1  0  0  0
 38 43  2  0  0  0
 38 46  1  0  0  0
 38 47  1  0  0  0
 39 64  1  0  0  0
 39 67  2  0  0  0
 40 52  1  0  0  0
 40 53  2  0  0  0
 40 58  1  0  0  0
 41106  1  0  0  0
 41107  1  0  0  0
 41108  1  0  0  0
 41 48  1  0  0  0
 42 43  1  0  0  0
 42 66  1  0  0  0
 42109  1  0  0  0
 42110  1  0  0  0
 43 44  1  0  0  0
 44111  1  0  0  0
 45 46  2  0  0  0
 45112  1  0  0  0
 46113  1  0  0  0
 47114  1  0  0  0
 47115  1  0  0  0
 48 56  1  0  0  0
 48 65  1  0  0  0
 48116  1  0  0  0
 49 50  1  0  0  0
 49 53  1  0  0  0
 49 64  1  0  0  0
 49117  1  0  0  0
 50 51  1  0  0  0
 50118  1  0  0  0
 50119  1  0  0  0
 51 52  1  0  0  0
 51120  1  0  0  0
 51121  1  0  0  0
 52122  1  0  0  0
 52123  1  0  0  0
 53 54  1  0  0  0
 54 55  2  0  0  0
 54124  1  0  0  0
 55 57  1  0  0  0
 55125  1  0  0  0
 56 69  2  0  0  0
 57 58  2  0  0  0
 57126  1  0  0  0
 58127  1  0  0  0
 59 60  1  0  0  0
 59 61  1  0  0  0
 59 62  1  0  0  0
 60128  1  0  0  0
 60129  1  0  0  0
 60130  1  0  0  0
 61131  1  0  0  0
 61132  1  0  0  0
 61133  1  0  0  0
 62134  1  0  0  0
 62135  1  0  0  0
 62136  1  0  0  0
 63 65  1  0  0  0
 63137  1  0  0  0
 63138  1  0  0  0
 63139  1  0  0  0
 64140  1  0  0  0
 65141  1  0  0  0
 68 79  1  0  0  0
 71 72  2  0  0  0
 71 81  1  0  0  0
 71142  1  0  0  0
 72 73  1  0  0  0
 72 75  1  0  0  0
 73 74  1  0  0  0
 73 80  2  0  0  0
 74143  1  0  0  0
 74144  1  0  0  0
 74145  1  0  0  0
 75 76  1  0  0  0
 75146  1  0  0  0
 75147  1  0  0  0
 76 78  1  0  0  0
 76148  1  0  0  0
 76149  1  0  0  0
 77 79  1  0  0  0
 77 81  1  0  0  0
 77150  1  0  0  0
 77151  1  0  0  0
 78 82  1  0  0  0
 78152  1  0  0  0
 78153  1  0  0  0
 79154  1  0  0  0
 79155  1  0  0  0
 80 81  1  0  0  0
 82156  1  0  0  0
M  ISO  4   1 100  68 101  79 101  82 100
M  END
> <chiral flag>
0

> <version>
0

> <s_m_source_file>
/data/baiqing/PycharmProjects/Reinvent-master-3.2/result/LINK_invent/BTK/process_docking_weight1_custom_sum_contain_oxygen_bond_distance_aromatic_linkinvent_7_9_3/rearranged_h_0038.sdf

> <i_m_source_file_index>
57

> <r_mmod_Potential_Energy-OPLS-2005>
-90.0079879760742

> <r_mmod_Stretch_Energy-OPLS-2005>
46.9710845947266

> <r_mmod_Bend_Energy-OPLS-2005>
124.682258605957

> <r_mmod_Torsional_Energy-OPLS-2005>
197.27766418457

> <r_mmod_Improper_Torsional_Energy-OPLS-2005>
3.53525876998901

> <r_mmod_Van_der_Waal_Energy-OPLS-2005>
123.577293395996

> <r_mmod_Electrostatic_Energy-OPLS-2005>
-385.107788085938

> <r_mmod_Solvation_Energy-OPLS-2005>
-222.813354492188

> <b_mmod_Minimization_Converged-OPLS-2005>
0

> <r_mmod_RMS_Derivative-OPLS-2005>
4.33204698562622

$$$$
59
                    3D
 Structure written by MMmdl.
169177  0  0  1  0            999 V2000
  -30.7355  -14.3933   20.6335 C   0  0  0  0  0  0
  -30.4204  -12.2807   19.3980 C   0  0  0  0  0  0
  -29.4910  -12.5142   18.1936 C   0  0  0  0  0  0
  -28.0122  -12.3716   18.6066 C   0  0  0  0  0  0
  -27.6668  -13.1941   19.8743 C   0  0  2  0  0  0
  -28.7090  -12.9482   20.9877 C   0  0  0  0  0  0
  -25.2645  -13.8156   20.5644 C   0  0  0  0  0  0
  -24.1862  -13.0456   20.9130 C   0  0  0  0  0  0
  -24.6379  -11.6916   20.8697 C   0  0  0  0  0  0
  -23.9044  -10.4317   21.0386 C   0  0  0  0  0  0
  -24.3609   -9.4251   21.9169 C   0  0  0  0  0  0
  -23.6294   -8.2274   22.0754 C   0  0  0  0  0  0
  -22.4272   -8.0301   21.3547 C   0  0  0  0  0  0
  -21.9901   -9.0273   20.4640 C   0  0  0  0  0  0
  -22.7214  -10.2152   20.3046 C   0  0  0  0  0  0
  -21.6860   -6.0746   22.5282 C   0  0  0  0  0  0
  -21.4013   -6.5644   23.8216 C   0  0  0  0  0  0
  -21.3662   -5.6787   24.9174 C   0  0  0  0  0  0
  -21.6046   -4.3053   24.7214 C   0  0  0  0  0  0
  -21.8824   -3.8154   23.4330 C   0  0  0  0  0  0
  -21.9195   -4.6974   22.3396 C   0  0  0  0  0  0
  -22.7898  -13.5294   21.1822 C   0  0  0  0  0  0
  -22.1670   -4.2164   21.0972 F   0  0  0  0  0  0
  -21.5620   -3.4541   25.7725 F   0  0  0  0  0  0
  -30.0447  -13.2398   20.4442 N   0  0  0  0  0  0
  -26.3050  -12.9276   20.3333 N   0  0  0  0  0  0
  -25.9301  -11.6453   20.5723 N   0  0  0  0  0  0
  -22.0526  -12.8291   22.0360 N   0  0  0  0  0  0
  -25.4411  -15.1867   20.4039 N   0  0  0  0  0  0
  -31.7973  -14.6328   20.0514 O   0  0  0  0  0  0
  -21.6643   -6.8890   21.4240 O   0  0  0  0  0  0
  -22.3598  -14.5612   20.6681 O   0  0  0  0  0  0
  -24.6080  -31.8719   23.2095 C   0  0  0  0  0  0
  -25.9008  -32.4839   23.8384 C   0  0  1  0  0  0
  -27.2451  -27.4929   20.0680 C   0  0  0  0  0  0
  -25.5867  -33.8631   24.2319 N   0  0  0  0  0  0
  -23.3923  -30.4966   21.5485 C   0  0  2  0  0  0
  -24.8390  -28.9648   20.1211 C   0  0  0  0  0  0
  -22.7331  -29.4737   22.5004 C   0  0  0  0  0  0
  -18.0229  -28.1305   22.8607 C   0  0  0  0  0  0
  -24.1480  -36.7312   23.2640 C   0  0  0  0  0  0
  -25.9176  -30.8533   21.3566 C   0  0  0  0  0  0
  -25.9972  -29.4923   20.7041 C   0  0  0  0  0  0
  -27.2040  -28.7638   20.6708 C   0  0  0  0  0  0
  -26.0659  -26.9657   19.4907 C   0  0  0  0  0  0
  -24.8638  -27.6949   19.5191 C   0  0  0  0  0  0
  -23.6008  -29.8254   20.1670 C   0  0  0  0  0  0
  -25.4102  -36.3104   24.0335 C   0  0  1  0  0  0
  -20.5843  -28.3629   23.1288 C   0  0  2  0  0  0
  -20.6711  -26.9419   22.5254 C   0  0  0  0  0  0
  -19.5629  -26.6604   21.5065 C   0  0  0  0  0  0
  -18.1910  -26.7858   22.1728 C   0  0  0  0  0  0
  -19.1485  -28.8773   23.2971 C   0  0  0  0  0  0
  -18.9411  -30.1397   23.8978 C   0  0  0  0  0  0
  -17.6425  -30.6546   24.0613 C   0  0  0  0  0  0
  -25.9027  -34.9483   23.5134 C   0  0  0  0  0  0
  -16.5323  -29.9036   23.6413 C   0  0  0  0  0  0
  -16.7228  -28.6423   23.0468 C   0  0  0  0  0  0
  -26.4437  -31.6595   25.0701 C   0  0  0  0  0  0
  -25.3687  -31.3734   26.1449 C   0  0  0  0  0  0
  -27.0314  -30.3053   24.6057 C   0  0  0  0  0  0
  -27.6005  -32.4324   25.7448 C   0  0  0  0  0  0
  -27.5574  -37.1818   24.8471 C   0  0  0  0  0  0
  -21.4061  -29.3039   22.3688 N   0  0  0  0  0  0
  -26.4285  -37.3796   23.9420 N   0  0  0  0  0  0
  -24.6562  -31.0877   22.0957 N   0  0  0  0  0  0
  -23.4102  -28.8363   23.3126 O   0  0  0  0  0  0
  -28.4424  -26.8187   20.0346 O   0  0  0  0  0  0
  -26.5593  -34.8928   22.4694 O   0  0  0  0  0  0
  -23.5291  -32.1444   23.7525 O   0  0  0  0  0  0
  -24.5960  -22.0774   21.8519 C   0  0  0  0  0  0
  -24.1902  -20.8288   21.3416 C   0  0  0  0  0  0
  -25.9493  -22.4047   21.6846 C   0  0  0  0  0  0
  -26.3245  -20.4044   20.6490 C   0  0  0  0  0  0
  -23.6209  -22.9963   22.5806 C   0  0  0  0  0  0
  -22.7671  -20.3242   21.4672 C   0  0  0  0  0  0
  -27.3562  -19.3740   20.2258 C   0  0  0  0  0  0
  -30.1894  -15.4790   21.5687 C   0  0  0  0  0  0
  -27.7849  -18.5317   21.4447 C   0  0  0  0  0  0
  -29.0567  -16.3260   20.9398 C   0  0  0  0  0  0
  -29.1409  -17.8113   21.3358 C   0  0  0  0  0  0
  -28.2219  -25.3113   21.9265 C   0  0  0  0  0  0
  -27.8644  -23.8825   22.3480 C   0  0  0  0  0  0
  -28.4156  -25.4461   20.4069 C   0  0  0  0  0  0
  -25.0636  -19.9994   20.7444 N   0  0  0  0  0  0
  -26.8035  -21.5661   21.0827 N   0  0  0  0  0  0
  -26.4404  -23.6241   22.1545 N   0  0  0  0  0  0
  -31.4649  -12.3760   19.0962 H   0  0  0  0  0  0
  -30.3117  -11.2629   19.7744 H   0  0  0  0  0  0
  -29.7267  -11.8154   17.3900 H   0  0  0  0  0  0
  -29.6656  -13.5124   17.7885 H   0  0  0  0  0  0
  -27.8142  -11.3144   18.7828 H   0  0  0  0  0  0
  -27.3646  -12.6708   17.7807 H   0  0  0  0  0  0
  -27.7181  -14.2421   19.5876 H   0  0  0  0  0  0
  -28.6704  -11.9059   21.3098 H   0  0  0  0  0  0
  -28.4656  -13.5306   21.8734 H   0  0  0  0  0  0
  -25.2759   -9.5752   22.4730 H   0  0  0  0  0  0
  -24.0022   -7.4677   22.7486 H   0  0  0  0  0  0
  -21.0833   -8.8787   19.8951 H   0  0  0  0  0  0
  -22.3672  -10.9685   19.6157 H   0  0  0  0  0  0
  -21.2002   -7.6155   23.9725 H   0  0  0  0  0  0
  -21.1479   -6.0515   25.9077 H   0  0  0  0  0  0
  -22.0596   -2.7618   23.2826 H   0  0  0  0  0  0
  -22.4112  -11.9940   22.4746 H   0  0  0  0  0  0
  -21.1153  -13.1346   22.2555 H   0  0  0  0  0  0
  -24.6871  -15.8546   20.5226 H   0  0  0  0  0  0
  -26.3057  -15.6201   20.1071 H   0  0  0  0  0  0
  -26.7122  -32.5580   23.1189 H   0  0  0  0  0  0
  -25.0009  -33.9784   25.0459 H   0  0  0  0  0  0
  -22.6768  -31.3087   21.4058 H   0  0  0  0  0  0
  -23.3733  -35.9655   23.3323 H   0  0  0  0  0  0
  -24.3582  -36.8903   22.2051 H   0  0  0  0  0  0
  -23.7241  -37.6526   23.6651 H   0  0  0  0  0  0
  -26.0265  -31.6214   20.5884 H   0  0  0  0  0  0
  -26.8055  -30.9006   21.9784 H   0  0  0  0  0  0
  -28.1055  -29.1735   21.1067 H   0  0  0  0  0  0
  -26.0683  -26.0071   18.9946 H   0  0  0  0  0  0
  -23.9699  -27.2805   19.0721 H   0  0  0  0  0  0
  -23.7145  -30.5984   19.4074 H   0  0  0  0  0  0
  -22.7264  -29.2441   19.8698 H   0  0  0  0  0  0
  -25.1279  -36.1966   25.0829 H   0  0  0  0  0  0
  -21.0012  -28.3148   24.1387 H   0  0  0  0  0  0
  -20.5573  -26.2200   23.3340 H   0  0  0  0  0  0
  -21.6555  -26.7513   22.0974 H   0  0  0  0  0  0
  -19.6851  -25.6671   21.0735 H   0  0  0  0  0  0
  -19.6330  -27.3751   20.6851 H   0  0  0  0  0  0
  -17.4054  -26.6469   21.4298 H   0  0  0  0  0  0
  -18.0598  -25.9950   22.9122 H   0  0  0  0  0  0
  -19.7877  -30.7204   24.2373 H   0  0  0  0  0  0
  -17.4987  -31.6258   24.5180 H   0  0  0  0  0  0
  -15.5347  -30.2931   23.7777 H   0  0  0  0  0  0
  -15.8639  -28.0717   22.7188 H   0  0  0  0  0  0
  -24.5828  -30.7108   25.7810 H   0  0  0  0  0  0
  -24.8909  -32.2923   26.4860 H   0  0  0  0  0  0
  -25.7995  -30.8932   27.0239 H   0  0  0  0  0  0
  -26.2911  -29.6786   24.1076 H   0  0  0  0  0  0
  -27.4115  -29.7287   25.4503 H   0  0  0  0  0  0
  -27.8695  -30.4434   23.9217 H   0  0  0  0  0  0
  -27.2614  -33.3623   26.2017 H   0  0  0  0  0  0
  -28.3781  -32.6878   25.0239 H   0  0  0  0  0  0
  -28.0699  -31.8462   26.5353 H   0  0  0  0  0  0
  -28.2597  -38.0103   24.7488 H   0  0  0  0  0  0
  -28.1049  -36.2633   24.6321 H   0  0  0  0  0  0
  -27.2301  -37.1504   25.8875 H   0  0  0  0  0  0
  -20.9188  -29.8520   21.6727 H   0  0  0  0  0  0
  -26.0162  -38.2870   24.1430 H   0  0  0  0  0  0
  -23.8899  -24.0491   22.4883 H   0  0  0  0  0  0
  -23.6048  -22.7406   23.6408 H   0  0  0  0  0  0
  -22.6070  -22.8972   22.1944 H   0  0  0  0  0  0
  -22.0838  -20.9504   20.8961 H   0  0  0  0  0  0
  -22.4568  -20.3354   22.5130 H   0  0  0  0  0  0
  -22.6698  -19.3013   21.1035 H   0  0  0  0  0  0
  -28.2120  -19.9034   19.8027 H   0  0  0  0  0  0
  -26.9521  -18.7465   19.4312 H   0  0  0  0  0  0
  -29.8915  -15.0596   22.5293 H   0  0  0  0  0  0
  -31.0349  -16.1266   21.8057 H   0  0  0  0  0  0
  -26.9811  -17.8539   21.7310 H   0  0  0  0  0  0
  -27.8780  -19.2212   22.2850 H   0  0  0  0  0  0
  -28.1064  -15.9087   21.2752 H   0  0  0  0  0  0
  -29.0511  -16.2443   19.8505 H   0  0  0  0  0  0
  -29.6058  -17.8765   22.3202 H   0  0  0  0  0  0
  -29.8125  -18.3442   20.6598 H   0  0  0  0  0  0
  -29.1476  -25.6129   22.4193 H   0  0  0  0  0  0
  -27.4582  -25.9973   22.2916 H   0  0  0  0  0  0
  -28.0809  -23.7497   23.4092 H   0  0  0  0  0  0
  -28.5018  -23.1742   21.8171 H   0  0  0  0  0  0
  -27.6644  -24.8830   19.8514 H   0  0  0  0  0  0
  -29.3737  -25.0090   20.1314 H   0  0  0  0  0  0
  -25.7840  -24.2021   22.6685 H   0  0  0  0  0  0
  1 25  1  0  0  0
  1 30  2  0  0  0
  1 78  1  0  0  0
  2  3  1  0  0  0
  2 25  1  0  0  0
  2 88  1  0  0  0
  2 89  1  0  0  0
  3  4  1  0  0  0
  3 90  1  0  0  0
  3 91  1  0  0  0
  4  5  1  0  0  0
  4 92  1  0  0  0
  4 93  1  0  0  0
  5  6  1  0  0  0
  5 26  1  0  0  0
  5 94  1  0  0  0
  6 25  1  0  0  0
  6 95  1  0  0  0
  6 96  1  0  0  0
  7  8  2  0  0  0
  7 26  1  0  0  0
  7 29  1  0  0  0
  8  9  1  0  0  0
  8 22  1  0  0  0
  9 10  1  0  0  0
  9 27  2  0  0  0
 10 11  2  0  0  0
 10 15  1  0  0  0
 11 12  1  0  0  0
 11 97  1  0  0  0
 12 13  2  0  0  0
 12 98  1  0  0  0
 13 14  1  0  0  0
 13 31  1  0  0  0
 14 15  2  0  0  0
 14 99  1  0  0  0
 15100  1  0  0  0
 16 17  2  0  0  0
 16 21  1  0  0  0
 16 31  1  0  0  0
 17 18  1  0  0  0
 17101  1  0  0  0
 18 19  2  0  0  0
 18102  1  0  0  0
 19 20  1  0  0  0
 19 24  1  0  0  0
 20 21  2  0  0  0
 20103  1  0  0  0
 21 23  1  0  0  0
 22 28  1  0  0  0
 22 32  2  0  0  0
 26 27  1  0  0  0
 28104  1  0  0  0
 28105  1  0  0  0
 29106  1  0  0  0
 29107  1  0  0  0
 33 34  1  0  0  0
 33 66  1  0  0  0
 33 70  2  0  0  0
 34 36  1  0  0  0
 34 59  1  0  0  0
 34108  1  0  0  0
 35 44  2  0  0  0
 35 45  1  0  0  0
 35 68  1  0  0  0
 36 56  1  0  0  0
 36109  1  0  0  0
 37 39  1  0  0  0
 37 47  1  0  0  0
 37 66  1  0  0  0
 37110  1  0  0  0
 38 43  2  0  0  0
 38 46  1  0  0  0
 38 47  1  0  0  0
 39 64  1  0  0  0
 39 67  2  0  0  0
 40 52  1  0  0  0
 40 53  2  0  0  0
 40 58  1  0  0  0
 41111  1  0  0  0
 41112  1  0  0  0
 41113  1  0  0  0
 41 48  1  0  0  0
 42 43  1  0  0  0
 42 66  1  0  0  0
 42114  1  0  0  0
 42115  1  0  0  0
 43 44  1  0  0  0
 44116  1  0  0  0
 45 46  2  0  0  0
 45117  1  0  0  0
 46118  1  0  0  0
 47119  1  0  0  0
 47120  1  0  0  0
 48 56  1  0  0  0
 48 65  1  0  0  0
 48121  1  0  0  0
 49 50  1  0  0  0
 49 53  1  0  0  0
 49 64  1  0  0  0
 49122  1  0  0  0
 50 51  1  0  0  0
 50123  1  0  0  0
 50124  1  0  0  0
 51 52  1  0  0  0
 51125  1  0  0  0
 51126  1  0  0  0
 52127  1  0  0  0
 52128  1  0  0  0
 53 54  1  0  0  0
 54 55  2  0  0  0
 54129  1  0  0  0
 55 57  1  0  0  0
 55130  1  0  0  0
 56 69  2  0  0  0
 57 58  2  0  0  0
 57131  1  0  0  0
 58132  1  0  0  0
 59 60  1  0  0  0
 59 61  1  0  0  0
 59 62  1  0  0  0
 60133  1  0  0  0
 60134  1  0  0  0
 60135  1  0  0  0
 61136  1  0  0  0
 61137  1  0  0  0
 61138  1  0  0  0
 62139  1  0  0  0
 62140  1  0  0  0
 62141  1  0  0  0
 63 65  1  0  0  0
 63142  1  0  0  0
 63143  1  0  0  0
 63144  1  0  0  0
 64145  1  0  0  0
 65146  1  0  0  0
 68 84  1  0  0  0
 71 72  2  0  0  0
 71 73  1  0  0  0
 71 75  1  0  0  0
 72 76  1  0  0  0
 72 85  1  0  0  0
 73 86  2  0  0  0
 73 87  1  0  0  0
 74 77  1  0  0  0
 74 85  2  0  0  0
 74 86  1  0  0  0
 75147  1  0  0  0
 75148  1  0  0  0
 75149  1  0  0  0
 76150  1  0  0  0
 76151  1  0  0  0
 76152  1  0  0  0
 77 79  1  0  0  0
 77153  1  0  0  0
 77154  1  0  0  0
 78 80  1  0  0  0
 78155  1  0  0  0
 78156  1  0  0  0
 79 81  1  0  0  0
 79157  1  0  0  0
 79158  1  0  0  0
 80 81  1  0  0  0
 80159  1  0  0  0
 80160  1  0  0  0
 81161  1  0  0  0
 81162  1  0  0  0
 82 83  1  0  0  0
 82 84  1  0  0  0
 82163  1  0  0  0
 82164  1  0  0  0
 83 87  1  0  0  0
 83165  1  0  0  0
 83166  1  0  0  0
 84167  1  0  0  0
 84168  1  0  0  0
 87169  1  0  0  0
M  ISO  4   1 100  68 101  78 100  84 101
M  END
> <chiral flag>
0

> <version>
0

> <s_m_source_file>
/data/baiqing/PycharmProjects/Reinvent-master-3.2/result/LINK_invent/BTK/process_docking_weight1_custom_sum_contain_oxygen_bond_distance_aromatic_linkinvent_7_9_3/rearranged_h_0038.sdf

> <i_m_source_file_index>
58

> <r_mmod_Potential_Energy-OPLS-2005>
-515.583557128906

> <r_mmod_Stretch_Energy-OPLS-2005>
30.3925247192383

> <r_mmod_Bend_Energy-OPLS-2005>
109.01180267334

> <r_mmod_Torsional_Energy-OPLS-2005>
190.746566772461

> <r_mmod_Improper_Torsional_Energy-OPLS-2005>
4.14582681655884

> <r_mmod_Van_der_Waal_Energy-OPLS-2005>
163.11767578125

> <r_mmod_Electrostatic_Energy-OPLS-2005>
-808.240173339844

> <r_mmod_Solvation_Energy-OPLS-2005>
-212.826354980469

> <b_mmod_Minimization_Converged-OPLS-2005>
0

> <r_mmod_RMS_Derivative-OPLS-2005>
4.49046659469604

$$$$
60
                    3D
 Structure written by MMmdl.
172180  0  0  1  0            999 V2000
  -30.7594  -14.3897   20.6938 C   0  0  0  0  0  0
  -30.4247  -12.3035   19.4098 C   0  0  0  0  0  0
  -29.4976  -12.5450   18.2039 C   0  0  0  0  0  0
  -28.0220  -12.3848   18.6164 C   0  0  0  0  0  0
  -27.6722  -13.2057   19.8855 C   0  0  2  0  0  0
  -28.7080  -12.9519   21.0039 C   0  0  0  0  0  0
  -25.2652  -13.8161   20.5680 C   0  0  0  0  0  0
  -24.1882  -13.0432   20.9145 C   0  0  0  0  0  0
  -24.6457  -11.6904   20.8752 C   0  0  0  0  0  0
  -23.9121  -10.4285   21.0432 C   0  0  0  0  0  0
  -24.3648   -9.4195   21.9213 C   0  0  0  0  0  0
  -23.6308   -8.2244   22.0781 C   0  0  0  0  0  0
  -22.4286   -8.0301   21.3569 C   0  0  0  0  0  0
  -21.9940   -9.0281   20.4665 C   0  0  0  0  0  0
  -22.7298  -10.2149   20.3079 C   0  0  0  0  0  0
  -21.6848   -6.0754   22.5292 C   0  0  0  0  0  0
  -21.4010   -6.5652   23.8224 C   0  0  0  0  0  0
  -21.3662   -5.6805   24.9188 C   0  0  0  0  0  0
  -21.6036   -4.3066   24.7229 C   0  0  0  0  0  0
  -21.8820   -3.8161   23.4350 C   0  0  0  0  0  0
  -21.9188   -4.6984   22.3406 C   0  0  0  0  0  0
  -22.7918  -13.5248   21.1802 C   0  0  0  0  0  0
  -22.1660   -4.2168   21.0989 F   0  0  0  0  0  0
  -21.5623   -3.4546   25.7742 F   0  0  0  0  0  0
  -30.0530  -13.2488   20.4735 N   0  0  0  0  0  0
  -26.3090  -12.9330   20.3396 N   0  0  0  0  0  0
  -25.9377  -11.6481   20.5761 N   0  0  0  0  0  0
  -22.0534  -12.8253   22.0346 N   0  0  0  0  0  0
  -25.4352  -15.1876   20.4080 N   0  0  0  0  0  0
  -31.7816  -14.6853   20.0687 O   0  0  0  0  0  0
  -21.6644   -6.8908   21.4260 O   0  0  0  0  0  0
  -22.3608  -14.5560   20.6660 O   0  0  0  0  0  0
  -24.6129  -31.8654   23.2131 C   0  0  0  0  0  0
  -25.9020  -32.4790   23.8426 C   0  0  1  0  0  0
  -27.2444  -27.4496   20.0855 C   0  0  0  0  0  0
  -25.5882  -33.8599   24.2369 N   0  0  0  0  0  0
  -23.4025  -30.4935   21.5458 C   0  0  2  0  0  0
  -24.8483  -28.9592   20.1124 C   0  0  0  0  0  0
  -22.7401  -29.4655   22.4912 C   0  0  0  0  0  0
  -18.0285  -28.1338   22.8460 C   0  0  0  0  0  0
  -24.1500  -36.7339   23.2636 C   0  0  0  0  0  0
  -25.9326  -30.8384   21.3619 C   0  0  0  0  0  0
  -26.0058  -29.4727   20.7067 C   0  0  0  0  0  0
  -27.2034  -28.7268   20.6882 C   0  0  0  0  0  0
  -26.0644  -26.9392   19.4955 C   0  0  0  0  0  0
  -24.8706  -27.6888   19.5081 C   0  0  0  0  0  0
  -23.6114  -29.8271   20.1585 C   0  0  0  0  0  0
  -25.4107  -36.3103   24.0351 C   0  0  1  0  0  0
  -20.5872  -28.3637   23.1273 C   0  0  2  0  0  0
  -20.6778  -26.9368   22.5381 C   0  0  0  0  0  0
  -19.5756  -26.6343   21.5182 C   0  0  0  0  0  0
  -18.1932  -26.7883   22.1602 C   0  0  0  0  0  0
  -19.1530  -28.8801   23.2875 C   0  0  0  0  0  0
  -18.9461  -30.1402   23.8890 C   0  0  0  0  0  0
  -17.6468  -30.6537   24.0538 C   0  0  0  0  0  0
  -25.9008  -34.9455   23.5159 C   0  0  0  0  0  0
  -16.5353  -29.9044   23.6306 C   0  0  0  0  0  0
  -16.7275  -28.6460   23.0317 C   0  0  0  0  0  0
  -26.4475  -31.6535   25.0726 C   0  0  0  0  0  0
  -25.3757  -31.3584   26.1489 C   0  0  0  0  0  0
  -27.0322  -30.3000   24.6054 C   0  0  0  0  0  0
  -27.6091  -32.4233   25.7439 C   0  0  0  0  0  0
  -27.5600  -37.1805   24.8453 C   0  0  0  0  0  0
  -21.4123  -29.3021   22.3678 N   0  0  0  0  0  0
  -26.4300  -37.3783   23.9410 N   0  0  0  0  0  0
  -24.6679  -31.0785   22.1000 N   0  0  0  0  0  0
  -23.4174  -28.8178   23.2939 O   0  0  0  0  0  0
  -28.4473  -26.7732   20.1042 O   0  0  0  0  0  0
  -26.5556  -34.8908   22.4718 O   0  0  0  0  0  0
  -23.5322  -32.1383   23.7505 O   0  0  0  0  0  0
  -27.3158  -21.7509   18.2204 C   0  0  0  0  0  0
  -26.9196  -21.0004   19.3381 C   0  0  0  0  0  0
  -27.8221  -20.9781   20.4258 C   0  0  0  0  0  0
  -29.1594  -22.4878   19.3312 C   0  0  0  0  0  0
  -24.2386  -22.4687   19.4993 C   0  0  0  0  0  0
  -25.5717  -20.2777   19.3330 C   0  0  0  0  0  0
  -27.6111  -20.1548   21.6986 C   0  0  0  0  0  0
  -30.2832  -23.5066   19.4070 C   0  0  0  0  0  0
  -24.3939  -21.1138   18.7973 C   0  0  0  0  0  0
  -27.4949  -18.6202   21.5099 C   0  0  0  0  0  0
  -29.8634  -24.8330   20.0769 C   0  0  0  0  0  0
  -28.7823  -17.8464   21.1575 C   0  0  0  0  0  0
  -29.6450  -17.4813   22.3857 C   0  0  0  0  0  0
  -30.7863  -16.4752   22.1041 C   0  0  0  0  0  0
  -28.5349  -25.4467   19.5858 C   0  0  0  0  0  0
  -28.4253  -22.5049   18.2297 N   0  0  0  0  0  0
  -28.9329  -21.7438   20.4079 N   0  0  0  0  0  0
  -30.2724  -15.1743   21.6683 N   0  0  0  0  0  0
  -31.4704  -12.3993   19.1138 H   0  0  0  0  0  0
  -30.3131  -11.2806   19.7734 H   0  0  0  0  0  0
  -29.7409  -11.8554   17.3943 H   0  0  0  0  0  0
  -29.6624  -13.5498   17.8105 H   0  0  0  0  0  0
  -27.8423  -11.3243   18.7991 H   0  0  0  0  0  0
  -27.3662  -12.6682   17.7924 H   0  0  0  0  0  0
  -27.7303  -14.2607   19.6148 H   0  0  0  0  0  0
  -28.6744  -11.9099   21.3255 H   0  0  0  0  0  0
  -28.4471  -13.5297   21.8909 H   0  0  0  0  0  0
  -25.2797   -9.5642   22.4786 H   0  0  0  0  0  0
  -23.9991   -7.4638   22.7515 H   0  0  0  0  0  0
  -21.0859   -8.8836   19.8975 H   0  0  0  0  0  0
  -22.3793  -10.9697   19.6174 H   0  0  0  0  0  0
  -21.2011   -7.6163   23.9734 H   0  0  0  0  0  0
  -21.1477   -6.0536   25.9091 H   0  0  0  0  0  0
  -22.0594   -2.7624   23.2850 H   0  0  0  0  0  0
  -22.4114  -11.9888   22.4708 H   0  0  0  0  0  0
  -21.1172  -13.1324   22.2553 H   0  0  0  0  0  0
  -24.6693  -15.8420   20.5210 H   0  0  0  0  0  0
  -26.2936  -15.6258   20.0981 H   0  0  0  0  0  0
  -26.7096  -32.5497   23.1177 H   0  0  0  0  0  0
  -25.0012  -33.9786   25.0496 H   0  0  0  0  0  0
  -22.6901  -31.3093   21.4032 H   0  0  0  0  0  0
  -23.3727  -35.9708   23.3268 H   0  0  0  0  0  0
  -24.3583  -36.8983   22.2058 H   0  0  0  0  0  0
  -23.7310  -37.6572   23.6648 H   0  0  0  0  0  0
  -26.0450  -31.6046   20.5922 H   0  0  0  0  0  0
  -26.8255  -30.8898   21.9756 H   0  0  0  0  0  0
  -28.1022  -29.1306   21.1339 H   0  0  0  0  0  0
  -26.0487  -25.9713   19.0160 H   0  0  0  0  0  0
  -23.9789  -27.2878   19.0458 H   0  0  0  0  0  0
  -23.7239  -30.6039   19.4006 H   0  0  0  0  0  0
  -22.7394  -29.2430   19.8602 H   0  0  0  0  0  0
  -25.1269  -36.1991   25.0843 H   0  0  0  0  0  0
  -21.0014  -28.3227   24.1374 H   0  0  0  0  0  0
  -20.5675  -26.2255   23.3575 H   0  0  0  0  0  0
  -21.6652  -26.7368   22.1193 H   0  0  0  0  0  0
  -19.6925  -25.6257   21.1210 H   0  0  0  0  0  0
  -19.6721  -27.3146   20.6701 H   0  0  0  0  0  0
  -17.4223  -26.6606   21.3993 H   0  0  0  0  0  0
  -18.0335  -26.0018   22.8984 H   0  0  0  0  0  0
  -19.7930  -30.7200   24.2280 H   0  0  0  0  0  0
  -17.5006  -31.6230   24.5118 H   0  0  0  0  0  0
  -15.5349  -30.2935   23.7597 H   0  0  0  0  0  0
  -15.8677  -28.0774   22.7010 H   0  0  0  0  0  0
  -24.5987  -30.6847   25.7820 H   0  0  0  0  0  0
  -24.8856  -32.2706   26.4915 H   0  0  0  0  0  0
  -25.8178  -30.8797   27.0234 H   0  0  0  0  0  0
  -26.2873  -29.6687   24.1211 H   0  0  0  0  0  0
  -27.4231  -29.7299   25.4477 H   0  0  0  0  0  0
  -27.8618  -30.4331   23.9127 H   0  0  0  0  0  0
  -27.2799  -33.3557   26.2027 H   0  0  0  0  0  0
  -28.3914  -32.6715   25.0250 H   0  0  0  0  0  0
  -28.0744  -31.8308   26.5331 H   0  0  0  0  0  0
  -28.2568  -38.0130   24.7519 H   0  0  0  0  0  0
  -28.1143  -36.2661   24.6252 H   0  0  0  0  0  0
  -27.2291  -37.1449   25.8841 H   0  0  0  0  0  0
  -20.9254  -29.8812   21.6974 H   0  0  0  0  0  0
  -26.0184  -38.2855   24.1397 H   0  0  0  0  0  0
  -26.7171  -21.7987   17.3229 H   0  0  0  0  0  0
  -23.3035  -22.9513   19.2097 H   0  0  0  0  0  0
  -25.0508  -23.1499   19.2430 H   0  0  0  0  0  0
  -24.2271  -22.3469   20.5838 H   0  0  0  0  0  0
  -25.3094  -19.9810   20.3472 H   0  0  0  0  0  0
  -25.6640  -19.3590   18.7507 H   0  0  0  0  0  0
  -26.7077  -20.5331   22.1774 H   0  0  0  0  0  0
  -28.4090  -20.3627   22.4118 H   0  0  0  0  0  0
  -30.6499  -23.7073   18.3992 H   0  0  0  0  0  0
  -31.1299  -23.0778   19.9461 H   0  0  0  0  0  0
  -24.4882  -21.2672   17.7210 H   0  0  0  0  0  0
  -23.4748  -20.5401   18.9224 H   0  0  0  0  0  0
  -26.7556  -18.4008   20.7442 H   0  0  0  0  0  0
  -27.0789  -18.1973   22.4263 H   0  0  0  0  0  0
  -30.6725  -25.5506   19.9489 H   0  0  0  0  0  0
  -29.7752  -24.6594   21.1484 H   0  0  0  0  0  0
  -29.3682  -18.3983   20.4220 H   0  0  0  0  0  0
  -28.4761  -16.9238   20.6619 H   0  0  0  0  0  0
  -29.0125  -17.0686   23.1731 H   0  0  0  0  0  0
  -30.0707  -18.3966   22.8004 H   0  0  0  0  0  0
  -31.3526  -16.3134   23.0222 H   0  0  0  0  0  0
  -31.4910  -16.8959   21.3828 H   0  0  0  0  0  0
  -27.7091  -24.8294   19.9408 H   0  0  0  0  0  0
  -28.4983  -25.4730   18.4949 H   0  0  0  0  0  0
  -29.4614  -14.8202   22.1520 H   0  0  0  0  0  0
  1 25  1  0  0  0
  1 30  2  0  0  0
  1 88  1  0  0  0
  2  3  1  0  0  0
  2 25  1  0  0  0
  2 89  1  0  0  0
  2 90  1  0  0  0
  3  4  1  0  0  0
  3 91  1  0  0  0
  3 92  1  0  0  0
  4  5  1  0  0  0
  4 93  1  0  0  0
  4 94  1  0  0  0
  5  6  1  0  0  0
  5 26  1  0  0  0
  5 95  1  0  0  0
  6 25  1  0  0  0
  6 96  1  0  0  0
  6 97  1  0  0  0
  7  8  2  0  0  0
  7 26  1  0  0  0
  7 29  1  0  0  0
  8  9  1  0  0  0
  8 22  1  0  0  0
  9 10  1  0  0  0
  9 27  2  0  0  0
 10 11  2  0  0  0
 10 15  1  0  0  0
 11 12  1  0  0  0
 11 98  1  0  0  0
 12 13  2  0  0  0
 12 99  1  0  0  0
 13 14  1  0  0  0
 13 31  1  0  0  0
 14 15  2  0  0  0
 14100  1  0  0  0
 15101  1  0  0  0
 16 17  2  0  0  0
 16 21  1  0  0  0
 16 31  1  0  0  0
 17 18  1  0  0  0
 17102  1  0  0  0
 18 19  2  0  0  0
 18103  1  0  0  0
 19 20  1  0  0  0
 19 24  1  0  0  0
 20 21  2  0  0  0
 20104  1  0  0  0
 21 23  1  0  0  0
 22 28  1  0  0  0
 22 32  2  0  0  0
 26 27  1  0  0  0
 28105  1  0  0  0
 28106  1  0  0  0
 29107  1  0  0  0
 29108  1  0  0  0
 33 34  1  0  0  0
 33 66  1  0  0  0
 33 70  2  0  0  0
 34 36  1  0  0  0
 34 59  1  0  0  0
 34109  1  0  0  0
 35 44  2  0  0  0
 35 45  1  0  0  0
 35 68  1  0  0  0
 36 56  1  0  0  0
 36110  1  0  0  0
 37 39  1  0  0  0
 37 47  1  0  0  0
 37 66  1  0  0  0
 37111  1  0  0  0
 38 43  2  0  0  0
 38 46  1  0  0  0
 38 47  1  0  0  0
 39 64  1  0  0  0
 39 67  2  0  0  0
 40 52  1  0  0  0
 40 53  2  0  0  0
 40 58  1  0  0  0
 41112  1  0  0  0
 41113  1  0  0  0
 41114  1  0  0  0
 41 48  1  0  0  0
 42 43  1  0  0  0
 42 66  1  0  0  0
 42115  1  0  0  0
 42116  1  0  0  0
 43 44  1  0  0  0
 44117  1  0  0  0
 45 46  2  0  0  0
 45118  1  0  0  0
 46119  1  0  0  0
 47120  1  0  0  0
 47121  1  0  0  0
 48 56  1  0  0  0
 48 65  1  0  0  0
 48122  1  0  0  0
 49 50  1  0  0  0
 49 53  1  0  0  0
 49 64  1  0  0  0
 49123  1  0  0  0
 50 51  1  0  0  0
 50124  1  0  0  0
 50125  1  0  0  0
 51 52  1  0  0  0
 51126  1  0  0  0
 51127  1  0  0  0
 52128  1  0  0  0
 52129  1  0  0  0
 53 54  1  0  0  0
 54 55  2  0  0  0
 54130  1  0  0  0
 55 57  1  0  0  0
 55131  1  0  0  0
 56 69  2  0  0  0
 57 58  2  0  0  0
 57132  1  0  0  0
 58133  1  0  0  0
 59 60  1  0  0  0
 59 61  1  0  0  0
 59 62  1  0  0  0
 60134  1  0  0  0
 60135  1  0  0  0
 60136  1  0  0  0
 61137  1  0  0  0
 61138  1  0  0  0
 61139  1  0  0  0
 62140  1  0  0  0
 62141  1  0  0  0
 62142  1  0  0  0
 63 65  1  0  0  0
 63143  1  0  0  0
 63144  1  0  0  0
 63145  1  0  0  0
 64146  1  0  0  0
 65147  1  0  0  0
 68 85  1  0  0  0
 71 72  2  0  0  0
 71 86  1  0  0  0
 71148  1  0  0  0
 72 73  1  0  0  0
 72 76  1  0  0  0
 73 77  1  0  0  0
 73 87  2  0  0  0
 74 78  1  0  0  0
 74 86  2  0  0  0
 74 87  1  0  0  0
 75 79  1  0  0  0
 75149  1  0  0  0
 75150  1  0  0  0
 75151  1  0  0  0
 76 79  1  0  0  0
 76152  1  0  0  0
 76153  1  0  0  0
 77 80  1  0  0  0
 77154  1  0  0  0
 77155  1  0  0  0
 78 81  1  0  0  0
 78156  1  0  0  0
 78157  1  0  0  0
 79158  1  0  0  0
 79159  1  0  0  0
 80 82  1  0  0  0
 80160  1  0  0  0
 80161  1  0  0  0
 81 85  1  0  0  0
 81162  1  0  0  0
 81163  1  0  0  0
 82 83  1  0  0  0
 82164  1  0  0  0
 82165  1  0  0  0
 83 84  1  0  0  0
 83166  1  0  0  0
 83167  1  0  0  0
 84 88  1  0  0  0
 84168  1  0  0  0
 84169  1  0  0  0
 85170  1  0  0  0
 85171  1  0  0  0
 88172  1  0  0  0
M  ISO  4   1 100  68 101  85 101  88 100
M  END
> <chiral flag>
0

> <version>
0

> <s_m_source_file>
/data/baiqing/PycharmProjects/Reinvent-master-3.2/result/LINK_invent/BTK/process_docking_weight1_custom_sum_contain_oxygen_bond_distance_aromatic_linkinvent_7_9_3/rearranged_h_0038.sdf

> <i_m_source_file_index>
59

> <r_mmod_Potential_Energy-OPLS-2005>
-524.687622070312

> <r_mmod_Stretch_Energy-OPLS-2005>
34.8451080322266

> <r_mmod_Bend_Energy-OPLS-2005>
109.44213104248

> <r_mmod_Torsional_Energy-OPLS-2005>
193.015213012695

> <r_mmod_Improper_Torsional_Energy-OPLS-2005>
2.14831233024597

> <r_mmod_Van_der_Waal_Energy-OPLS-2005>
154.223068237305

> <r_mmod_Electrostatic_Energy-OPLS-2005>
-803.094909667969

> <r_mmod_Solvation_Energy-OPLS-2005>
-223.827285766602

> <b_mmod_Minimization_Converged-OPLS-2005>
0

> <r_mmod_RMS_Derivative-OPLS-2005>
3.6377420425415

$$$$
61
                    3D
 Structure written by MMmdl.
174182  0  0  1  0            999 V2000
  -30.6954  -14.3976   20.5717 C   0  0  0  0  0  0
  -30.4246  -12.2552   19.4108 C   0  0  0  0  0  0
  -29.4965  -12.5025   18.2022 C   0  0  0  0  0  0
  -28.0133  -12.3793   18.6074 C   0  0  0  0  0  0
  -27.6700  -13.1953   19.8828 C   0  0  2  0  0  0
  -28.7074  -12.9149   20.9970 C   0  0  0  0  0  0
  -25.2627  -13.8144   20.5649 C   0  0  0  0  0  0
  -24.1863  -13.0443   20.9151 C   0  0  0  0  0  0
  -24.6403  -11.6907   20.8728 C   0  0  0  0  0  0
  -23.9062  -10.4283   21.0387 C   0  0  0  0  0  0
  -24.3608   -9.4199   21.9170 C   0  0  0  0  0  0
  -23.6286   -8.2243   22.0749 C   0  0  0  0  0  0
  -22.4263   -8.0272   21.3544 C   0  0  0  0  0  0
  -21.9894   -9.0242   20.4653 C   0  0  0  0  0  0
  -22.7225  -10.2124   20.3058 C   0  0  0  0  0  0
  -21.6850   -6.0734   22.5275 C   0  0  0  0  0  0
  -21.4010   -6.5638   23.8208 C   0  0  0  0  0  0
  -21.3656   -5.6793   24.9168 C   0  0  0  0  0  0
  -21.6055   -4.3055   24.7211 C   0  0  0  0  0  0
  -21.8818   -3.8146   23.4331 C   0  0  0  0  0  0
  -21.9185   -4.6967   22.3392 C   0  0  0  0  0  0
  -22.7877  -13.5244   21.1804 C   0  0  0  0  0  0
  -22.1659   -4.2165   21.0962 F   0  0  0  0  0  0
  -21.5637   -3.4531   25.7717 F   0  0  0  0  0  0
  -30.0508  -13.2094   20.4632 N   0  0  0  0  0  0
  -26.3070  -12.9298   20.3380 N   0  0  0  0  0  0
  -25.9325  -11.6475   20.5776 N   0  0  0  0  0  0
  -22.0514  -12.8262   22.0378 N   0  0  0  0  0  0
  -25.4374  -15.1861   20.4041 N   0  0  0  0  0  0
  -31.7977  -14.6267   20.0662 O   0  0  0  0  0  0
  -21.6641   -6.8867   21.4231 O   0  0  0  0  0  0
  -22.3555  -14.5540   20.6629 O   0  0  0  0  0  0
  -24.6094  -31.8694   23.2102 C   0  0  0  0  0  0
  -25.9009  -32.4829   23.8384 C   0  0  1  0  0  0
  -27.2445  -27.4800   20.0837 C   0  0  0  0  0  0
  -25.5882  -33.8628   24.2320 N   0  0  0  0  0  0
  -23.3953  -30.4916   21.5501 C   0  0  2  0  0  0
  -24.8405  -28.9539   20.1186 C   0  0  0  0  0  0
  -22.7375  -29.4673   22.5012 C   0  0  0  0  0  0
  -18.0266  -28.1370   22.8493 C   0  0  0  0  0  0
  -24.1490  -36.7331   23.2640 C   0  0  0  0  0  0
  -25.9169  -30.8490   21.3516 C   0  0  0  0  0  0
  -25.9951  -29.4840   20.7047 C   0  0  0  0  0  0
  -27.1988  -28.7540   20.6820 C   0  0  0  0  0  0
  -26.0724  -26.9436   19.5059 C   0  0  0  0  0  0
  -24.8710  -27.6801   19.5199 C   0  0  0  0  0  0
  -23.6002  -29.8162   20.1662 C   0  0  0  0  0  0
  -25.4106  -36.3125   24.0342 C   0  0  1  0  0  0
  -20.5851  -28.3653   23.1332 C   0  0  2  0  0  0
  -20.6757  -26.9394   22.5424 C   0  0  0  0  0  0
  -19.5744  -26.6385   21.5213 C   0  0  0  0  0  0
  -18.1920  -26.7919   22.1617 C   0  0  0  0  0  0
  -19.1515  -28.8824   23.2912 C   0  0  0  0  0  0
  -18.9445  -30.1430   23.8925 C   0  0  0  0  0  0
  -17.6452  -30.6580   24.0568 C   0  0  0  0  0  0
  -25.9023  -34.9486   23.5133 C   0  0  0  0  0  0
  -16.5341  -29.9091   23.6316 C   0  0  0  0  0  0
  -16.7260  -28.6506   23.0340 C   0  0  0  0  0  0
  -26.4458  -31.6595   25.0695 C   0  0  0  0  0  0
  -25.3744  -31.3688   26.1461 C   0  0  0  0  0  0
  -27.0271  -30.3051   24.6012 C   0  0  0  0  0  0
  -27.6039  -32.4301   25.7465 C   0  0  0  0  0  0
  -27.5584  -37.1819   24.8463 C   0  0  0  0  0  0
  -21.4107  -29.3030   22.3751 N   0  0  0  0  0  0
  -26.4297  -37.3800   23.9405 N   0  0  0  0  0  0
  -24.6592  -31.0841   22.0977 N   0  0  0  0  0  0
  -23.4168  -28.8217   23.3045 O   0  0  0  0  0  0
  -28.4539  -26.8348   20.0634 O   0  0  0  0  0  0
  -26.5589  -34.8934   22.4696 O   0  0  0  0  0  0
  -23.5299  -32.1435   23.7535 O   0  0  0  0  0  0
  -30.0932  -25.5152   22.1278 C   0  0  0  0  0  0
  -30.7027  -24.1819   20.1916 C   0  0  0  0  0  0
  -29.7826  -25.0154   20.8513 C   0  0  0  0  0  0
  -31.3185  -25.2041   22.7485 C   0  0  0  0  0  0
  -31.9275  -23.8203   20.8058 C   0  0  0  0  0  0
  -32.2403  -24.3416   22.0936 C   0  0  0  0  0  0
  -33.5788  -23.9890   22.7401 C   0  0  0  0  0  0
  -31.3404  -24.8924   25.2766 C   0  0  0  0  0  0
  -31.6054  -25.8433   24.1019 C   0  0  0  0  0  0
  -32.9404  -22.9212   20.0814 C   0  0  0  0  0  0
  -28.4758  -25.4234   20.1965 C   0  0  0  0  0  0
  -32.4876  -22.2333   18.7775 C   0  0  0  0  0  0
  -31.3796  -21.1755   18.9372 C   0  0  0  0  0  0
  -31.8138  -19.9078   19.6890 C   0  0  0  0  0  0
  -30.6418  -18.9284   19.7980 C   0  0  0  0  0  0
  -30.9824  -17.6142   20.5098 C   0  0  0  0  0  0
  -29.7604  -16.6846   20.4754 C   0  0  0  0  0  0
  -29.9351  -15.3707   21.0853 N   0  0  0  0  0  0
  -30.3108  -11.2351   19.7799 H   0  0  0  0  0  0
  -31.4715  -12.3430   19.1148 H   0  0  0  0  0  0
  -29.7260  -11.7967   17.4034 H   0  0  0  0  0  0
  -29.6805  -13.4974   17.7933 H   0  0  0  0  0  0
  -27.7985  -11.3223   18.7722 H   0  0  0  0  0  0
  -27.3721  -12.6895   17.7822 H   0  0  0  0  0  0
  -27.7300  -14.2505   19.6159 H   0  0  0  0  0  0
  -28.4778  -13.4734   21.9064 H   0  0  0  0  0  0
  -28.6649  -11.8651   21.2910 H   0  0  0  0  0  0
  -25.2750   -9.5695   22.4730 H   0  0  0  0  0  0
  -24.0018   -7.4637   22.7459 H   0  0  0  0  0  0
  -21.0833   -8.8743   19.8950 H   0  0  0  0  0  0
  -22.3668  -10.9651   19.6173 H   0  0  0  0  0  0
  -21.2000   -7.6144   23.9725 H   0  0  0  0  0  0
  -21.1492   -6.0507   25.9079 H   0  0  0  0  0  0
  -22.0605   -2.7611   23.2815 H   0  0  0  0  0  0
  -22.4126  -11.9938   22.4790 H   0  0  0  0  0  0
  -21.1133  -13.1315   22.2578 H   0  0  0  0  0  0
  -24.6745  -15.8455   20.5111 H   0  0  0  0  0  0
  -26.2974  -15.6179   20.0890 H   0  0  0  0  0  0
  -26.7090  -32.5561   23.1155 H   0  0  0  0  0  0
  -25.0042  -33.9798   25.0478 H   0  0  0  0  0  0
  -22.6832  -31.3070   21.4095 H   0  0  0  0  0  0
  -23.3741  -35.9678   23.3317 H   0  0  0  0  0  0
  -24.3587  -36.8928   22.2051 H   0  0  0  0  0  0
  -23.7254  -37.6548   23.6639 H   0  0  0  0  0  0
  -26.0133  -31.6132   20.5783 H   0  0  0  0  0  0
  -26.8119  -30.9119   21.9594 H   0  0  0  0  0  0
  -28.0962  -29.1657   21.1217 H   0  0  0  0  0  0
  -26.0880  -25.9747   19.0276 H   0  0  0  0  0  0
  -23.9814  -27.2644   19.0671 H   0  0  0  0  0  0
  -23.7039  -30.5870   19.4019 H   0  0  0  0  0  0
  -22.7253  -29.2309   19.8764 H   0  0  0  0  0  0
  -25.1285  -36.1995   25.0836 H   0  0  0  0  0  0
  -20.9945  -28.3212   24.1451 H   0  0  0  0  0  0
  -20.5650  -26.2260   23.3606 H   0  0  0  0  0  0
  -21.6632  -26.7440   22.1223 H   0  0  0  0  0  0
  -19.6907  -25.6303   21.1227 H   0  0  0  0  0  0
  -19.6683  -27.3206   20.6753 H   0  0  0  0  0  0
  -17.4190  -26.6663   21.4020 H   0  0  0  0  0  0
  -18.0320  -26.0059   22.9008 H   0  0  0  0  0  0
  -19.7925  -30.7235   24.2307 H   0  0  0  0  0  0
  -17.5013  -31.6267   24.5159 H   0  0  0  0  0  0
  -15.5345  -30.3001   23.7635 H   0  0  0  0  0  0
  -15.8656  -28.0846   22.7027 H   0  0  0  0  0  0
  -24.5922  -30.7017   25.7820 H   0  0  0  0  0  0
  -24.8924  -32.2836   26.4922 H   0  0  0  0  0  0
  -25.8126  -30.8867   27.0210 H   0  0  0  0  0  0
  -26.2787  -29.6829   24.1085 H   0  0  0  0  0  0
  -27.4099  -29.7259   25.4426 H   0  0  0  0  0  0
  -27.8596  -30.4401   23.9098 H   0  0  0  0  0  0
  -27.2662  -33.3589   26.2077 H   0  0  0  0  0  0
  -28.3839  -32.6873   25.0287 H   0  0  0  0  0  0
  -28.0707  -31.8391   26.5355 H   0  0  0  0  0  0
  -28.2614  -38.0104   24.7505 H   0  0  0  0  0  0
  -28.1066  -36.2640   24.6295 H   0  0  0  0  0  0
  -27.2306  -37.1482   25.8868 H   0  0  0  0  0  0
  -20.9252  -29.8759   21.6992 H   0  0  0  0  0  0
  -26.0194  -38.2889   24.1386 H   0  0  0  0  0  0
  -29.3861  -26.1698   22.6192 H   0  0  0  0  0  0
  -30.4504  -23.8311   19.2028 H   0  0  0  0  0  0
  -33.7003  -24.3530   23.7571 H   0  0  0  0  0  0
  -34.3988  -24.4048   22.1545 H   0  0  0  0  0  0
  -33.7043  -22.9084   22.7945 H   0  0  0  0  0  0
  -31.5659  -25.3788   26.2262 H   0  0  0  0  0  0
  -31.9521  -23.9924   25.2143 H   0  0  0  0  0  0
  -30.2957  -24.5830   25.3027 H   0  0  0  0  0  0
  -30.9764  -26.7275   24.2191 H   0  0  0  0  0  0
  -32.6259  -26.2265   24.1307 H   0  0  0  0  0  0
  -33.2897  -22.1473   20.7623 H   0  0  0  0  0  0
  -33.8140  -23.5347   19.8579 H   0  0  0  0  0  0
  -27.6567  -25.0699   20.8249 H   0  0  0  0  0  0
  -28.3695  -24.9557   19.2171 H   0  0  0  0  0  0
  -32.1790  -22.9927   18.0584 H   0  0  0  0  0  0
  -33.3543  -21.7518   18.3235 H   0  0  0  0  0  0
  -31.0384  -20.8908   17.9409 H   0  0  0  0  0  0
  -30.5088  -21.5984   19.4362 H   0  0  0  0  0  0
  -32.1639  -20.1552   20.6903 H   0  0  0  0  0  0
  -32.6523  -19.4397   19.1716 H   0  0  0  0  0  0
  -30.2815  -18.7050   18.7915 H   0  0  0  0  0  0
  -29.8109  -19.4121   20.3153 H   0  0  0  0  0  0
  -31.8363  -17.1524   20.0114 H   0  0  0  0  0  0
  -31.2802  -17.8095   21.5395 H   0  0  0  0  0  0
  -28.9218  -17.1668   20.9792 H   0  0  0  0  0  0
  -29.4432  -16.5359   19.4407 H   0  0  0  0  0  0
  -29.1144  -15.0267   21.5603 H   0  0  0  0  0  0
  1 25  1  0  0  0
  1 30  2  0  0  0
  1 88  1  0  0  0
  2  3  1  0  0  0
  2 25  1  0  0  0
  2 89  1  0  0  0
  2 90  1  0  0  0
  3  4  1  0  0  0
  3 91  1  0  0  0
  3 92  1  0  0  0
  4  5  1  0  0  0
  4 93  1  0  0  0
  4 94  1  0  0  0
  5  6  1  0  0  0
  5 26  1  0  0  0
  5 95  1  0  0  0
  6 25  1  0  0  0
  6 96  1  0  0  0
  6 97  1  0  0  0
  7  8  2  0  0  0
  7 26  1  0  0  0
  7 29  1  0  0  0
  8  9  1  0  0  0
  8 22  1  0  0  0
  9 10  1  0  0  0
  9 27  2  0  0  0
 10 11  2  0  0  0
 10 15  1  0  0  0
 11 12  1  0  0  0
 11 98  1  0  0  0
 12 13  2  0  0  0
 12 99  1  0  0  0
 13 14  1  0  0  0
 13 31  1  0  0  0
 14 15  2  0  0  0
 14100  1  0  0  0
 15101  1  0  0  0
 16 17  2  0  0  0
 16 21  1  0  0  0
 16 31  1  0  0  0
 17 18  1  0  0  0
 17102  1  0  0  0
 18 19  2  0  0  0
 18103  1  0  0  0
 19 20  1  0  0  0
 19 24  1  0  0  0
 20 21  2  0  0  0
 20104  1  0  0  0
 21 23  1  0  0  0
 22 28  1  0  0  0
 22 32  2  0  0  0
 26 27  1  0  0  0
 28105  1  0  0  0
 28106  1  0  0  0
 29107  1  0  0  0
 29108  1  0  0  0
 33 34  1  0  0  0
 33 66  1  0  0  0
 33 70  2  0  0  0
 34 36  1  0  0  0
 34 59  1  0  0  0
 34109  1  0  0  0
 35 44  2  0  0  0
 35 45  1  0  0  0
 35 68  1  0  0  0
 36 56  1  0  0  0
 36110  1  0  0  0
 37 39  1  0  0  0
 37 47  1  0  0  0
 37 66  1  0  0  0
 37111  1  0  0  0
 38 43  2  0  0  0
 38 46  1  0  0  0
 38 47  1  0  0  0
 39 64  1  0  0  0
 39 67  2  0  0  0
 40 52  1  0  0  0
 40 53  2  0  0  0
 40 58  1  0  0  0
 41112  1  0  0  0
 41113  1  0  0  0
 41114  1  0  0  0
 41 48  1  0  0  0
 42 43  1  0  0  0
 42 66  1  0  0  0
 42115  1  0  0  0
 42116  1  0  0  0
 43 44  1  0  0  0
 44117  1  0  0  0
 45 46  2  0  0  0
 45118  1  0  0  0
 46119  1  0  0  0
 47120  1  0  0  0
 47121  1  0  0  0
 48 56  1  0  0  0
 48 65  1  0  0  0
 48122  1  0  0  0
 49 50  1  0  0  0
 49 53  1  0  0  0
 49 64  1  0  0  0
 49123  1  0  0  0
 50 51  1  0  0  0
 50124  1  0  0  0
 50125  1  0  0  0
 51 52  1  0  0  0
 51126  1  0  0  0
 51127  1  0  0  0
 52128  1  0  0  0
 52129  1  0  0  0
 53 54  1  0  0  0
 54 55  2  0  0  0
 54130  1  0  0  0
 55 57  1  0  0  0
 55131  1  0  0  0
 56 69  2  0  0  0
 57 58  2  0  0  0
 57132  1  0  0  0
 58133  1  0  0  0
 59 60  1  0  0  0
 59 61  1  0  0  0
 59 62  1  0  0  0
 60134  1  0  0  0
 60135  1  0  0  0
 60136  1  0  0  0
 61137  1  0  0  0
 61138  1  0  0  0
 61139  1  0  0  0
 62140  1  0  0  0
 62141  1  0  0  0
 62142  1  0  0  0
 63 65  1  0  0  0
 63143  1  0  0  0
 63144  1  0  0  0
 63145  1  0  0  0
 64146  1  0  0  0
 65147  1  0  0  0
 68 81  1  0  0  0
 71 73  2  0  0  0
 71 74  1  0  0  0
 71148  1  0  0  0
 72 73  1  0  0  0
 72 75  2  0  0  0
 72149  1  0  0  0
 73 81  1  0  0  0
 74 76  2  0  0  0
 74 79  1  0  0  0
 75 76  1  0  0  0
 75 80  1  0  0  0
 76 77  1  0  0  0
 77150  1  0  0  0
 77151  1  0  0  0
 77152  1  0  0  0
 78 79  1  0  0  0
 78153  1  0  0  0
 78154  1  0  0  0
 78155  1  0  0  0
 79156  1  0  0  0
 79157  1  0  0  0
 80 82  1  0  0  0
 80158  1  0  0  0
 80159  1  0  0  0
 81160  1  0  0  0
 81161  1  0  0  0
 82 83  1  0  0  0
 82162  1  0  0  0
 82163  1  0  0  0
 83 84  1  0  0  0
 83164  1  0  0  0
 83165  1  0  0  0
 84 85  1  0  0  0
 84166  1  0  0  0
 84167  1  0  0  0
 85 86  1  0  0  0
 85168  1  0  0  0
 85169  1  0  0  0
 86 87  1  0  0  0
 86170  1  0  0  0
 86171  1  0  0  0
 87 88  1  0  0  0
 87172  1  0  0  0
 87173  1  0  0  0
 88174  1  0  0  0
M  ISO  4   1 100  68 101  81 101  88 100
M  END
> <chiral flag>
0

> <version>
0

> <s_m_source_file>
/data/baiqing/PycharmProjects/Reinvent-master-3.2/result/LINK_invent/BTK/process_docking_weight1_custom_sum_contain_oxygen_bond_distance_aromatic_linkinvent_7_9_3/rearranged_h_0038.sdf

> <i_m_source_file_index>
60

> <r_mmod_Potential_Energy-OPLS-2005>
-29.9595794677734

> <r_mmod_Stretch_Energy-OPLS-2005>
33.7881126403809

> <r_mmod_Bend_Energy-OPLS-2005>
103.417938232422

> <r_mmod_Torsional_Energy-OPLS-2005>
234.047637939453

> <r_mmod_Improper_Torsional_Energy-OPLS-2005>
7.9527063369751

> <r_mmod_Van_der_Waal_Energy-OPLS-2005>
161.317535400391

> <r_mmod_Electrostatic_Energy-OPLS-2005>
-376.363677978516

> <r_mmod_Solvation_Energy-OPLS-2005>
-203.544342041016

> <b_mmod_Minimization_Converged-OPLS-2005>
0

> <r_mmod_RMS_Derivative-OPLS-2005>
2.50365519523621

$$$$
62
                    3D
 Structure written by MMmdl.
164172  0  0  1  0            999 V2000
  -30.6627  -14.4757   20.5557 C   0  0  0  0  0  0
  -30.4348  -12.3007   19.4233 C   0  0  0  0  0  0
  -29.5014  -12.5060   18.2095 C   0  0  0  0  0  0
  -28.0198  -12.3712   18.6179 C   0  0  0  0  0  0
  -27.6680  -13.1974   19.8833 C   0  0  2  0  0  0
  -28.7102  -12.9500   21.0011 C   0  0  0  0  0  0
  -25.2623  -13.8133   20.5687 C   0  0  0  0  0  0
  -24.1861  -13.0435   20.9184 C   0  0  0  0  0  0
  -24.6388  -11.6892   20.8729 C   0  0  0  0  0  0
  -23.9037  -10.4292   21.0399 C   0  0  0  0  0  0
  -24.3591   -9.4211   21.9182 C   0  0  0  0  0  0
  -23.6281   -8.2237   22.0747 C   0  0  0  0  0  0
  -22.4267   -8.0272   21.3533 C   0  0  0  0  0  0
  -21.9896   -9.0246   20.4637 C   0  0  0  0  0  0
  -22.7210  -10.2134   20.3050 C   0  0  0  0  0  0
  -21.6850   -6.0723   22.5273 C   0  0  0  0  0  0
  -21.4007   -6.5627   23.8205 C   0  0  0  0  0  0
  -21.3669   -5.6781   24.9171 C   0  0  0  0  0  0
  -21.6052   -4.3044   24.7227 C   0  0  0  0  0  0
  -21.8818   -3.8135   23.4346 C   0  0  0  0  0  0
  -21.9194   -4.6950   22.3400 C   0  0  0  0  0  0
  -22.7886  -13.5242   21.1857 C   0  0  0  0  0  0
  -22.1668   -4.2133   21.0979 F   0  0  0  0  0  0
  -21.5633   -3.4531   25.7742 F   0  0  0  0  0  0
  -30.0433  -13.2686   20.4592 N   0  0  0  0  0  0
  -26.3054  -12.9285   20.3391 N   0  0  0  0  0  0
  -25.9316  -11.6453   20.5764 N   0  0  0  0  0  0
  -22.0510  -12.8239   22.0400 N   0  0  0  0  0  0
  -25.4372  -15.1855   20.4095 N   0  0  0  0  0  0
  -31.7753  -14.7083   20.0728 O   0  0  0  0  0  0
  -21.6634   -6.8868   21.4235 O   0  0  0  0  0  0
  -22.3580  -14.5559   20.6712 O   0  0  0  0  0  0
  -24.6124  -31.8671   23.2105 C   0  0  0  0  0  0
  -25.9024  -32.4814   23.8396 C   0  0  1  0  0  0
  -27.2356  -27.4438   20.0973 C   0  0  0  0  0  0
  -25.5891  -33.8613   24.2340 N   0  0  0  0  0  0
  -23.3999  -30.4903   21.5500 C   0  0  2  0  0  0
  -24.8474  -28.9562   20.1124 C   0  0  0  0  0  0
  -22.7397  -29.4656   22.4995 C   0  0  0  0  0  0
  -18.0265  -28.1379   22.8485 C   0  0  0  0  0  0
  -24.1484  -36.7319   23.2642 C   0  0  0  0  0  0
  -25.9251  -30.8378   21.3590 C   0  0  0  0  0  0
  -26.0041  -29.4716   20.7092 C   0  0  0  0  0  0
  -27.2016  -28.7241   20.6996 C   0  0  0  0  0  0
  -26.0674  -26.9453   19.4875 C   0  0  0  0  0  0
  -24.8727  -27.6916   19.4969 C   0  0  0  0  0  0
  -23.6069  -29.8194   20.1647 C   0  0  0  0  0  0
  -25.4104  -36.3114   24.0347 C   0  0  1  0  0  0
  -20.5856  -28.3656   23.1322 C   0  0  2  0  0  0
  -20.6754  -26.9393   22.5422 C   0  0  0  0  0  0
  -19.5740  -26.6382   21.5209 C   0  0  0  0  0  0
  -18.1918  -26.7923   22.1617 C   0  0  0  0  0  0
  -19.1516  -28.8832   23.2899 C   0  0  0  0  0  0
  -18.9447  -30.1441   23.8907 C   0  0  0  0  0  0
  -17.6452  -30.6583   24.0567 C   0  0  0  0  0  0
  -25.9026  -34.9472   23.5145 C   0  0  0  0  0  0
  -16.5341  -29.9093   23.6328 C   0  0  0  0  0  0
  -16.7255  -28.6515   23.0338 C   0  0  0  0  0  0
  -26.4470  -31.6581   25.0710 C   0  0  0  0  0  0
  -25.3752  -31.3668   26.1465 C   0  0  0  0  0  0
  -27.0317  -30.3028   24.6057 C   0  0  0  0  0  0
  -27.6050  -32.4296   25.7465 C   0  0  0  0  0  0
  -27.5582  -37.1818   24.8464 C   0  0  0  0  0  0
  -21.4125  -29.3026   22.3732 N   0  0  0  0  0  0
  -26.4298  -37.3793   23.9405 N   0  0  0  0  0  0
  -24.6640  -31.0792   22.0988 N   0  0  0  0  0  0
  -23.4177  -28.8198   23.3033 O   0  0  0  0  0  0
  -28.3627  -26.6479   20.0885 O   0  0  0  0  0  0
  -26.5578  -34.8914   22.4701 O   0  0  0  0  0  0
  -23.5323  -32.1410   23.7517 O   0  0  0  0  0  0
  -29.5848  -24.0103   20.1495 C   0  0  0  0  0  0
  -30.0219  -22.6673   20.1616 C   0  0  0  0  0  0
  -29.0817  -24.5984   21.3329 C   0  0  0  0  0  0
  -29.9458  -21.9331   21.3595 C   0  0  0  0  0  0
  -29.0012  -23.7581   22.4808 C   0  0  0  0  0  0
  -29.6090  -24.3929   24.8799 C   0  0  0  0  0  0
  -29.9121  -26.9211   21.8956 C   0  0  0  0  0  0
  -30.5608  -20.5358   21.5044 C   0  0  0  0  0  0
  -28.4878  -24.2153   23.8449 C   0  0  0  0  0  0
  -29.7200  -19.3599   20.9557 C   0  0  0  0  0  0
  -30.2228  -17.9575   21.4057 C   0  0  0  0  0  0
  -29.7802  -16.8222   20.4541 C   0  0  0  0  0  0
  -28.7268  -26.1011   21.3664 C   0  0  2  0  0  0
  -29.4070  -22.4644   22.4754 N   0  0  0  0  0  0
  -29.8691  -15.4630   21.0113 N   0  0  0  0  0  0
  -31.4782  -12.4135   19.1240 H   0  0  0  0  0  0
  -30.3469  -11.2832   19.8072 H   0  0  0  0  0  0
  -29.7389  -11.7839   17.4273 H   0  0  0  0  0  0
  -29.6730  -13.4917   17.7740 H   0  0  0  0  0  0
  -27.8204  -11.3142   18.7994 H   0  0  0  0  0  0
  -27.3733  -12.6615   17.7890 H   0  0  0  0  0  0
  -27.7187  -14.2483   19.5981 H   0  0  0  0  0  0
  -28.6861  -11.9040   21.3125 H   0  0  0  0  0  0
  -28.4756  -13.5219   21.8999 H   0  0  0  0  0  0
  -25.2734   -9.5694   22.4761 H   0  0  0  0  0  0
  -23.9993   -7.4624   22.7465 H   0  0  0  0  0  0
  -21.0823   -8.8760   19.8945 H   0  0  0  0  0  0
  -22.3661  -10.9672   19.6161 H   0  0  0  0  0  0
  -21.1993   -7.6134   23.9700 H   0  0  0  0  0  0
  -21.1499   -6.0514   25.9070 H   0  0  0  0  0  0
  -22.0595   -2.7596   23.2848 H   0  0  0  0  0  0
  -22.4103  -11.9897   22.4798 H   0  0  0  0  0  0
  -21.1127  -13.1274   22.2585 H   0  0  0  0  0  0
  -24.6740  -15.8445   20.5197 H   0  0  0  0  0  0
  -26.2902  -15.6208   20.0822 H   0  0  0  0  0  0
  -26.7095  -32.5538   23.1163 H   0  0  0  0  0  0
  -25.0054  -33.9764   25.0496 H   0  0  0  0  0  0
  -22.6888  -31.3073   21.4120 H   0  0  0  0  0  0
  -23.3728  -35.9665   23.3317 H   0  0  0  0  0  0
  -24.3585  -36.8916   22.2055 H   0  0  0  0  0  0
  -23.7240  -37.6538   23.6640 H   0  0  0  0  0  0
  -26.0318  -31.6030   20.5891 H   0  0  0  0  0  0
  -26.8148  -30.8954   21.9741 H   0  0  0  0  0  0
  -28.0890  -29.1411   21.1478 H   0  0  0  0  0  0
  -26.0807  -25.9701   19.0213 H   0  0  0  0  0  0
  -23.9839  -27.2901   19.0301 H   0  0  0  0  0  0
  -23.7091  -30.5920   19.4024 H   0  0  0  0  0  0
  -22.7317  -29.2360   19.8730 H   0  0  0  0  0  0
  -25.1273  -36.1991   25.0840 H   0  0  0  0  0  0
  -20.9943  -28.3214   24.1442 H   0  0  0  0  0  0
  -20.5650  -26.2260   23.3605 H   0  0  0  0  0  0
  -21.6626  -26.7436   22.1217 H   0  0  0  0  0  0
  -19.6901  -25.6295   21.1232 H   0  0  0  0  0  0
  -19.6681  -27.3196   20.6745 H   0  0  0  0  0  0
  -17.4186  -26.6661   21.4023 H   0  0  0  0  0  0
  -18.0319  -26.0065   22.9014 H   0  0  0  0  0  0
  -19.7927  -30.7252   24.2276 H   0  0  0  0  0  0
  -17.5015  -31.6262   24.5168 H   0  0  0  0  0  0
  -15.5349  -30.3004   23.7653 H   0  0  0  0  0  0
  -15.8651  -28.0854   22.7037 H   0  0  0  0  0  0
  -24.5881  -30.7070   25.7796 H   0  0  0  0  0  0
  -24.8991  -32.2824   26.4978 H   0  0  0  0  0  0
  -25.8104  -30.8773   27.0186 H   0  0  0  0  0  0
  -26.2852  -29.6765   24.1159 H   0  0  0  0  0  0
  -27.4179  -29.7289   25.4499 H   0  0  0  0  0  0
  -27.8634  -30.4387   23.9140 H   0  0  0  0  0  0
  -28.0734  -31.8397   26.5352 H   0  0  0  0  0  0
  -28.3840  -32.6862   25.0277 H   0  0  0  0  0  0
  -27.2668  -33.3583   26.2075 H   0  0  0  0  0  0
  -28.2607  -38.0105   24.7488 H   0  0  0  0  0  0
  -28.1065  -36.2631   24.6302 H   0  0  0  0  0  0
  -27.2300  -37.1487   25.8868 H   0  0  0  0  0  0
  -20.9285  -29.8749   21.6953 H   0  0  0  0  0  0
  -26.0188  -38.2876   24.1379 H   0  0  0  0  0  0
  -29.6748  -24.5925   19.2442 H   0  0  0  0  0  0
  -30.4467  -22.2243   19.2706 H   0  0  0  0  0  0
  -29.2022  -24.7127   25.8397 H   0  0  0  0  0  0
  -30.3374  -25.1373   24.5640 H   0  0  0  0  0  0
  -30.1447  -23.4583   25.0439 H   0  0  0  0  0  0
  -29.6774  -27.9793   21.9765 H   0  0  0  0  0  0
  -30.7793  -26.8269   21.2421 H   0  0  0  0  0  0
  -30.2080  -26.5922   22.8883 H   0  0  0  0  0  0
  -30.7649  -20.3625   22.5624 H   0  0  0  0  0  0
  -31.5364  -20.5378   21.0164 H   0  0  0  0  0  0
  -27.7873  -23.4633   24.2111 H   0  0  0  0  0  0
  -27.9037  -25.1287   23.7885 H   0  0  0  0  0  0
  -29.7062  -19.4266   19.8673 H   0  0  0  0  0  0
  -28.6851  -19.4758   21.2797 H   0  0  0  0  0  0
  -29.8601  -17.7640   22.4168 H   0  0  0  0  0  0
  -31.3120  -17.9526   21.4684 H   0  0  0  0  0  0
  -30.3309  -16.8924   19.5137 H   0  0  0  0  0  0
  -28.7326  -16.9710   20.1892 H   0  0  0  0  0  0
  -27.8769  -26.2296   22.0350 H   0  0  0  0  0  0
  -29.0278  -15.1316   21.4600 H   0  0  0  0  0  0
  1 25  1  0  0  0
  1 30  2  0  0  0
  1 85  1  0  0  0
  2  3  1  0  0  0
  2 25  1  0  0  0
  2 86  1  0  0  0
  2 87  1  0  0  0
  3  4  1  0  0  0
  3 88  1  0  0  0
  3 89  1  0  0  0
  4  5  1  0  0  0
  4 90  1  0  0  0
  4 91  1  0  0  0
  5  6  1  0  0  0
  5 26  1  0  0  0
  5 92  1  0  0  0
  6 25  1  0  0  0
  6 93  1  0  0  0
  6 94  1  0  0  0
  7  8  2  0  0  0
  7 26  1  0  0  0
  7 29  1  0  0  0
  8  9  1  0  0  0
  8 22  1  0  0  0
  9 10  1  0  0  0
  9 27  2  0  0  0
 10 11  2  0  0  0
 10 15  1  0  0  0
 11 12  1  0  0  0
 11 95  1  0  0  0
 12 13  2  0  0  0
 12 96  1  0  0  0
 13 14  1  0  0  0
 13 31  1  0  0  0
 14 15  2  0  0  0
 14 97  1  0  0  0
 15 98  1  0  0  0
 16 17  2  0  0  0
 16 21  1  0  0  0
 16 31  1  0  0  0
 17 18  1  0  0  0
 17 99  1  0  0  0
 18 19  2  0  0  0
 18100  1  0  0  0
 19 20  1  0  0  0
 19 24  1  0  0  0
 20 21  2  0  0  0
 20101  1  0  0  0
 21 23  1  0  0  0
 22 28  1  0  0  0
 22 32  2  0  0  0
 26 27  1  0  0  0
 28102  1  0  0  0
 28103  1  0  0  0
 29104  1  0  0  0
 29105  1  0  0  0
 33 34  1  0  0  0
 33 66  1  0  0  0
 33 70  2  0  0  0
 34 36  1  0  0  0
 34 59  1  0  0  0
 34106  1  0  0  0
 35 44  2  0  0  0
 35 45  1  0  0  0
 35 68  1  0  0  0
 36 56  1  0  0  0
 36107  1  0  0  0
 37 39  1  0  0  0
 37 47  1  0  0  0
 37 66  1  0  0  0
 37108  1  0  0  0
 38 43  2  0  0  0
 38 46  1  0  0  0
 38 47  1  0  0  0
 39 64  1  0  0  0
 39 67  2  0  0  0
 40 52  1  0  0  0
 40 53  2  0  0  0
 40 58  1  0  0  0
 41109  1  0  0  0
 41110  1  0  0  0
 41111  1  0  0  0
 41 48  1  0  0  0
 42 43  1  0  0  0
 42 66  1  0  0  0
 42112  1  0  0  0
 42113  1  0  0  0
 43 44  1  0  0  0
 44114  1  0  0  0
 45 46  2  0  0  0
 45115  1  0  0  0
 46116  1  0  0  0
 47117  1  0  0  0
 47118  1  0  0  0
 48 56  1  0  0  0
 48 65  1  0  0  0
 48119  1  0  0  0
 49 50  1  0  0  0
 49 53  1  0  0  0
 49 64  1  0  0  0
 49120  1  0  0  0
 50 51  1  0  0  0
 50121  1  0  0  0
 50122  1  0  0  0
 51 52  1  0  0  0
 51123  1  0  0  0
 51124  1  0  0  0
 52125  1  0  0  0
 52126  1  0  0  0
 53 54  1  0  0  0
 54 55  2  0  0  0
 54127  1  0  0  0
 55 57  1  0  0  0
 55128  1  0  0  0
 56 69  2  0  0  0
 57 58  2  0  0  0
 57129  1  0  0  0
 58130  1  0  0  0
 59 60  1  0  0  0
 59 61  1  0  0  0
 59 62  1  0  0  0
 60131  1  0  0  0
 60132  1  0  0  0
 60133  1  0  0  0
 61134  1  0  0  0
 61135  1  0  0  0
 61136  1  0  0  0
 62137  1  0  0  0
 62138  1  0  0  0
 62139  1  0  0  0
 63 65  1  0  0  0
 63140  1  0  0  0
 63141  1  0  0  0
 63142  1  0  0  0
 64143  1  0  0  0
 65144  1  0  0  0
 68 83  1  0  0  0
 71 72  2  0  0  0
 71 73  1  0  0  0
 71145  1  0  0  0
 72 74  1  0  0  0
 72146  1  0  0  0
 73 75  2  0  0  0
 73 83  1  0  0  0
 74 78  1  0  0  0
 74 84  2  0  0  0
 75 79  1  0  0  0
 75 84  1  0  0  0
 76 79  1  0  0  0
 76147  1  0  0  0
 76148  1  0  0  0
 76149  1  0  0  0
 77150  1  0  0  0
 77151  1  0  0  0
 77152  1  0  0  0
 77 83  1  0  0  0
 78 80  1  0  0  0
 78153  1  0  0  0
 78154  1  0  0  0
 79155  1  0  0  0
 79156  1  0  0  0
 80 81  1  0  0  0
 80157  1  0  0  0
 80158  1  0  0  0
 81 82  1  0  0  0
 81159  1  0  0  0
 81160  1  0  0  0
 82 85  1  0  0  0
 82161  1  0  0  0
 82162  1  0  0  0
 83163  1  0  0  0
 85164  1  0  0  0
M  ISO  4   1 100  68 101  83 101  85 100
M  END
> <chiral flag>
0

> <version>
0

> <s_m_source_file>
/data/baiqing/PycharmProjects/Reinvent-master-3.2/result/LINK_invent/BTK/process_docking_weight1_custom_sum_contain_oxygen_bond_distance_aromatic_linkinvent_7_9_3/rearranged_h_0038.sdf

> <i_m_source_file_index>
61

> <r_mmod_Potential_Energy-OPLS-2005>
-192.654296875

> <r_mmod_Stretch_Energy-OPLS-2005>
38.7751426696777

> <r_mmod_Bend_Energy-OPLS-2005>
96.1337814331055

> <r_mmod_Torsional_Energy-OPLS-2005>
240.429718017578

> <r_mmod_Improper_Torsional_Energy-OPLS-2005>
7.73215627670288

> <r_mmod_Van_der_Waal_Energy-OPLS-2005>
149.030853271484

> <r_mmod_Electrostatic_Energy-OPLS-2005>
-522.997314453125

> <r_mmod_Solvation_Energy-OPLS-2005>
-214.439987182617

> <b_mmod_Minimization_Converged-OPLS-2005>
0

> <r_mmod_RMS_Derivative-OPLS-2005>
1.2989718914032

$$$$
63
                    3D
 Structure written by MMmdl.
166174  0  0  1  0            999 V2000
  -30.6202  -14.6817   20.4759 C   0  0  0  0  0  0
  -30.4265  -12.4084   19.4865 C   0  0  0  0  0  0
  -29.5156  -12.5249   18.2441 C   0  0  0  0  0  0
  -28.0412  -12.3392   18.6514 C   0  0  0  0  0  0
  -27.6494  -13.2271   19.8626 C   0  0  2  0  0  0
  -28.6864  -13.1295   21.0058 C   0  0  0  0  0  0
  -25.2523  -13.8194   20.5666 C   0  0  0  0  0  0
  -24.1812  -13.0444   20.9180 C   0  0  0  0  0  0
  -24.6404  -11.6918   20.8747 C   0  0  0  0  0  0
  -23.9067  -10.4297   21.0413 C   0  0  0  0  0  0
  -24.3638   -9.4202   21.9179 C   0  0  0  0  0  0
  -23.6307   -8.2238   22.0731 C   0  0  0  0  0  0
  -22.4287   -8.0280   21.3534 C   0  0  0  0  0  0
  -21.9930   -9.0259   20.4634 C   0  0  0  0  0  0
  -22.7257  -10.2142   20.3044 C   0  0  0  0  0  0
  -21.6850   -6.0744   22.5289 C   0  0  0  0  0  0
  -21.4014   -6.5635   23.8222 C   0  0  0  0  0  0
  -21.3663   -5.6772   24.9184 C   0  0  0  0  0  0
  -21.6047   -4.3041   24.7228 C   0  0  0  0  0  0
  -21.8813   -3.8148   23.4339 C   0  0  0  0  0  0
  -21.9181   -4.6963   22.3405 C   0  0  0  0  0  0
  -22.7837  -13.5227   21.1831 C   0  0  0  0  0  0
  -22.1662   -4.2159   21.0985 F   0  0  0  0  0  0
  -21.5626   -3.4525   25.7741 F   0  0  0  0  0  0
  -30.0040  -13.4554   20.4459 N   0  0  0  0  0  0
  -26.2966  -12.9399   20.3303 N   0  0  0  0  0  0
  -25.9322  -11.6542   20.5746 N   0  0  0  0  0  0
  -22.0479  -12.8247   22.0426 N   0  0  0  0  0  0
  -25.4209  -15.1916   20.4060 N   0  0  0  0  0  0
  -31.7794  -14.8082   20.0683 O   0  0  0  0  0  0
  -21.6636   -6.8891   21.4245 O   0  0  0  0  0  0
  -22.3537  -14.5532   20.6663 O   0  0  0  0  0  0
  -24.6290  -31.8592   23.2027 C   0  0  0  0  0  0
  -25.9141  -32.4772   23.8360 C   0  0  1  0  0  0
  -27.2108  -27.2784   20.1178 C   0  0  0  0  0  0
  -25.5955  -33.8570   24.2285 N   0  0  0  0  0  0
  -23.4250  -30.4836   21.5474 C   0  0  2  0  0  0
  -24.8700  -28.9402   20.1081 C   0  0  0  0  0  0
  -22.7513  -29.4609   22.4933 C   0  0  0  0  0  0
  -18.0298  -28.1371   22.8482 C   0  0  0  0  0  0
  -24.1492  -36.7274   23.2640 C   0  0  0  0  0  0
  -25.9730  -30.7726   21.3866 C   0  0  0  0  0  0
  -26.0429  -29.3995   20.7215 C   0  0  0  0  0  0
  -27.2195  -28.5840   20.7144 C   0  0  0  0  0  0
  -26.0216  -26.8964   19.4593 C   0  0  0  0  0  0
  -24.8654  -27.6952   19.4636 C   0  0  0  0  0  0
  -23.6414  -29.8263   20.1602 C   0  0  0  0  0  0
  -25.4117  -36.3077   24.0333 C   0  0  1  0  0  0
  -20.5907  -28.3681   23.1273 C   0  0  2  0  0  0
  -20.6784  -26.9393   22.5412 C   0  0  0  0  0  0
  -19.5759  -26.6364   21.5211 C   0  0  0  0  0  0
  -18.1940  -26.7912   22.1615 C   0  0  0  0  0  0
  -19.1555  -28.8841   23.2863 C   0  0  0  0  0  0
  -18.9466  -30.1456   23.8869 C   0  0  0  0  0  0
  -17.6464  -30.6567   24.0550 C   0  0  0  0  0  0
  -25.9068  -34.9443   23.5107 C   0  0  0  0  0  0
  -16.5349  -29.9058   23.6333 C   0  0  0  0  0  0
  -16.7289  -28.6473   23.0344 C   0  0  0  0  0  0
  -26.4514  -31.6579   25.0739 C   0  0  0  0  0  0
  -25.3751  -31.3714   26.1473 C   0  0  0  0  0  0
  -27.0381  -30.3002   24.6230 C   0  0  0  0  0  0
  -27.6082  -32.4333   25.7478 C   0  0  0  0  0  0
  -27.5595  -37.1775   24.8453 C   0  0  0  0  0  0
  -21.4227  -29.3018   22.3664 N   0  0  0  0  0  0
  -26.4293  -37.3777   23.9429 N   0  0  0  0  0  0
  -24.6947  -31.0568   22.1003 N   0  0  0  0  0  0
  -23.4225  -28.8148   23.3029 O   0  0  0  0  0  0
  -28.2897  -26.3689   20.1466 O   0  0  0  0  0  0
  -26.5626  -34.8916   22.4672 O   0  0  0  0  0  0
  -23.5450  -32.1414   23.7314 O   0  0  0  0  0  0
  -30.2068  -23.9854   19.6544 C   0  0  0  0  0  0
  -28.5532  -22.3485   20.3253 C   0  0  0  0  0  0
  -28.9262  -23.7397   20.1766 C   0  0  0  0  0  0
  -31.0665  -22.9321   19.2554 C   0  0  0  0  0  0
  -29.4207  -21.2426   19.9733 C   0  0  0  0  0  0
  -30.6982  -21.5614   19.4495 C   0  0  0  0  0  0
  -32.3185  -23.3492   18.4984 C   0  0  0  0  0  0
  -33.0294  -19.3283   20.4424 C   0  0  0  0  0  0
  -33.5084  -19.9377   18.0153 C   0  0  0  0  0  0
  -28.9563  -19.7259   19.8878 C   0  0  0  0  0  0
  -27.9698  -24.9519   20.5336 C   0  0  0  0  0  0
  -29.5877  -18.5301   20.7623 C   0  0  0  0  0  0
  -29.8882  -17.1291   20.0131 C   0  0  0  0  0  0
  -32.8166  -20.3581   19.3183 C   0  0  0  0  0  0
  -29.8354  -15.7887   20.7284 N   0  0  0  0  0  0
  -31.4345  -20.4830   18.9948 O   0  0  0  0  0  0
  -31.4752  -12.5045   19.2025 H   0  0  0  0  0  0
  -30.3314  -11.4183   19.9375 H   0  0  0  0  0  0
  -29.8001  -11.7879   17.4910 H   0  0  0  0  0  0
  -29.6487  -13.5025   17.7768 H   0  0  0  0  0  0
  -27.9010  -11.2887   18.9109 H   0  0  0  0  0  0
  -27.3818  -12.5332   17.8058 H   0  0  0  0  0  0
  -27.6551  -14.2551   19.4988 H   0  0  0  0  0  0
  -28.6934  -12.1313   21.4453 H   0  0  0  0  0  0
  -28.4290  -13.8150   21.8160 H   0  0  0  0  0  0
  -25.2786   -9.5684   22.4746 H   0  0  0  0  0  0
  -24.0016   -7.4627   22.7442 H   0  0  0  0  0  0
  -21.0854   -8.8804   19.8953 H   0  0  0  0  0  0
  -22.3721  -10.9694   19.6159 H   0  0  0  0  0  0
  -21.2030   -7.6148   23.9743 H   0  0  0  0  0  0
  -21.1482   -6.0504   25.9090 H   0  0  0  0  0  0
  -22.0592   -2.7607   23.2834 H   0  0  0  0  0  0
  -22.4082  -11.9943   22.4910 H   0  0  0  0  0  0
  -21.1091  -13.1291   22.2550 H   0  0  0  0  0  0
  -24.6460  -15.8425   20.4733 H   0  0  0  0  0  0
  -26.2739  -15.6309   20.0842 H   0  0  0  0  0  0
  -26.7198  -32.5420   23.1087 H   0  0  0  0  0  0
  -25.0122  -33.9712   25.0449 H   0  0  0  0  0  0
  -22.7181  -31.3048   21.4094 H   0  0  0  0  0  0
  -23.3781  -35.9575   23.3259 H   0  0  0  0  0  0
  -24.3599  -36.8943   22.2065 H   0  0  0  0  0  0
  -23.7198  -37.6443   23.6691 H   0  0  0  0  0  0
  -26.1293  -31.5399   20.6265 H   0  0  0  0  0  0
  -26.8437  -30.8051   22.0299 H   0  0  0  0  0  0
  -28.1179  -28.9343   21.2029 H   0  0  0  0  0  0
  -25.9632  -25.9594   18.9256 H   0  0  0  0  0  0
  -23.9751  -27.3478   18.9578 H   0  0  0  0  0  0
  -23.7645  -30.6096   19.4109 H   0  0  0  0  0  0
  -22.7580  -29.2645   19.8522 H   0  0  0  0  0  0
  -25.1287  -36.1926   25.0823 H   0  0  0  0  0  0
  -20.9997  -28.3249   24.1393 H   0  0  0  0  0  0
  -20.5688  -26.2280   23.3612 H   0  0  0  0  0  0
  -21.6652  -26.7419   22.1201 H   0  0  0  0  0  0
  -19.6921  -25.6274   21.1237 H   0  0  0  0  0  0
  -19.6698  -27.3172   20.6737 H   0  0  0  0  0  0
  -17.4216  -26.6670   21.4005 H   0  0  0  0  0  0
  -18.0328  -26.0055   22.9011 H   0  0  0  0  0  0
  -19.7944  -30.7285   24.2208 H   0  0  0  0  0  0
  -17.5008  -31.6247   24.5161 H   0  0  0  0  0  0
  -15.5344  -30.2929   23.7682 H   0  0  0  0  0  0
  -15.8692  -28.0787   22.7053 H   0  0  0  0  0  0
  -24.5850  -30.7176   25.7756 H   0  0  0  0  0  0
  -24.9044  -32.2893   26.5010 H   0  0  0  0  0  0
  -25.8062  -30.8752   27.0181 H   0  0  0  0  0  0
  -26.2969  -29.6714   24.1285 H   0  0  0  0  0  0
  -27.4106  -29.7291   25.4744 H   0  0  0  0  0  0
  -27.8833  -30.4278   23.9464 H   0  0  0  0  0  0
  -27.2696  -33.3615   26.2089 H   0  0  0  0  0  0
  -28.3842  -32.6937   25.0268 H   0  0  0  0  0  0
  -28.0826  -31.8463   26.5351 H   0  0  0  0  0  0
  -28.2564  -38.0124   24.7596 H   0  0  0  0  0  0
  -28.1150  -36.2663   24.6159 H   0  0  0  0  0  0
  -27.2345  -37.1281   25.8863 H   0  0  0  0  0  0
  -20.9415  -29.8723   21.6851 H   0  0  0  0  0  0
  -26.0173  -38.2849   24.1466 H   0  0  0  0  0  0
  -30.5096  -25.0114   19.5003 H   0  0  0  0  0  0
  -27.5502  -22.1242   20.6639 H   0  0  0  0  0  0
  -32.2160  -24.3628   18.1087 H   0  0  0  0  0  0
  -32.4858  -22.7052   17.6360 H   0  0  0  0  0  0
  -33.2011  -23.3479   19.1369 H   0  0  0  0  0  0
  -34.0870  -19.2192   20.6841 H   0  0  0  0  0  0
  -32.6591  -18.3428   20.1626 H   0  0  0  0  0  0
  -32.5350  -19.6289   21.3661 H   0  0  0  0  0  0
  -34.5921  -19.9964   18.1041 H   0  0  0  0  0  0
  -33.2108  -20.5848   17.1904 H   0  0  0  0  0  0
  -33.2496  -18.9180   17.7278 H   0  0  0  0  0  0
  -29.1292  -19.4601   18.8438 H   0  0  0  0  0  0
  -27.8711  -19.6909   19.9854 H   0  0  0  0  0  0
  -27.8732  -24.9567   21.6194 H   0  0  0  0  0  0
  -26.9923  -24.6407   20.1737 H   0  0  0  0  0  0
  -28.9492  -18.3718   21.6294 H   0  0  0  0  0  0
  -30.5188  -18.8850   21.1919 H   0  0  0  0  0  0
  -30.8445  -17.2128   19.4974 H   0  0  0  0  0  0
  -29.1600  -17.0316   19.2074 H   0  0  0  0  0  0
  -33.2461  -21.2878   19.6748 H   0  0  0  0  0  0
  -28.9456  -15.5702   21.1531 H   0  0  0  0  0  0
  1 25  1  0  0  0
  1 30  2  0  0  0
  1 85  1  0  0  0
  2  3  1  0  0  0
  2 25  1  0  0  0
  2 87  1  0  0  0
  2 88  1  0  0  0
  3  4  1  0  0  0
  3 89  1  0  0  0
  3 90  1  0  0  0
  4  5  1  0  0  0
  4 91  1  0  0  0
  4 92  1  0  0  0
  5  6  1  0  0  0
  5 26  1  0  0  0
  5 93  1  0  0  0
  6 25  1  0  0  0
  6 94  1  0  0  0
  6 95  1  0  0  0
  7  8  2  0  0  0
  7 26  1  0  0  0
  7 29  1  0  0  0
  8  9  1  0  0  0
  8 22  1  0  0  0
  9 10  1  0  0  0
  9 27  2  0  0  0
 10 11  2  0  0  0
 10 15  1  0  0  0
 11 12  1  0  0  0
 11 96  1  0  0  0
 12 13  2  0  0  0
 12 97  1  0  0  0
 13 14  1  0  0  0
 13 31  1  0  0  0
 14 15  2  0  0  0
 14 98  1  0  0  0
 15 99  1  0  0  0
 16 17  2  0  0  0
 16 21  1  0  0  0
 16 31  1  0  0  0
 17 18  1  0  0  0
 17100  1  0  0  0
 18 19  2  0  0  0
 18101  1  0  0  0
 19 20  1  0  0  0
 19 24  1  0  0  0
 20 21  2  0  0  0
 20102  1  0  0  0
 21 23  1  0  0  0
 22 28  1  0  0  0
 22 32  2  0  0  0
 26 27  1  0  0  0
 28103  1  0  0  0
 28104  1  0  0  0
 29105  1  0  0  0
 29106  1  0  0  0
 33 34  1  0  0  0
 33 66  1  0  0  0
 33 70  2  0  0  0
 34 36  1  0  0  0
 34 59  1  0  0  0
 34107  1  0  0  0
 35 44  2  0  0  0
 35 45  1  0  0  0
 35 68  1  0  0  0
 36 56  1  0  0  0
 36108  1  0  0  0
 37 39  1  0  0  0
 37 47  1  0  0  0
 37 66  1  0  0  0
 37109  1  0  0  0
 38 43  2  0  0  0
 38 46  1  0  0  0
 38 47  1  0  0  0
 39 64  1  0  0  0
 39 67  2  0  0  0
 40 52  1  0  0  0
 40 53  2  0  0  0
 40 58  1  0  0  0
 41110  1  0  0  0
 41111  1  0  0  0
 41112  1  0  0  0
 41 48  1  0  0  0
 42 43  1  0  0  0
 42 66  1  0  0  0
 42113  1  0  0  0
 42114  1  0  0  0
 43 44  1  0  0  0
 44115  1  0  0  0
 45 46  2  0  0  0
 45116  1  0  0  0
 46117  1  0  0  0
 47118  1  0  0  0
 47119  1  0  0  0
 48 56  1  0  0  0
 48 65  1  0  0  0
 48120  1  0  0  0
 49 50  1  0  0  0
 49 53  1  0  0  0
 49 64  1  0  0  0
 49121  1  0  0  0
 50 51  1  0  0  0
 50122  1  0  0  0
 50123  1  0  0  0
 51 52  1  0  0  0
 51124  1  0  0  0
 51125  1  0  0  0
 52126  1  0  0  0
 52127  1  0  0  0
 53 54  1  0  0  0
 54 55  2  0  0  0
 54128  1  0  0  0
 55 57  1  0  0  0
 55129  1  0  0  0
 56 69  2  0  0  0
 57 58  2  0  0  0
 57130  1  0  0  0
 58131  1  0  0  0
 59 60  1  0  0  0
 59 61  1  0  0  0
 59 62  1  0  0  0
 60132  1  0  0  0
 60133  1  0  0  0
 60134  1  0  0  0
 61135  1  0  0  0
 61136  1  0  0  0
 61137  1  0  0  0
 62138  1  0  0  0
 62139  1  0  0  0
 62140  1  0  0  0
 63 65  1  0  0  0
 63141  1  0  0  0
 63142  1  0  0  0
 63143  1  0  0  0
 64144  1  0  0  0
 65145  1  0  0  0
 68 81  1  0  0  0
 71 73  2  0  0  0
 71 74  1  0  0  0
 71146  1  0  0  0
 72 73  1  0  0  0
 72 75  2  0  0  0
 72147  1  0  0  0
 73 81  1  0  0  0
 74 76  2  0  0  0
 74 77  1  0  0  0
 75 76  1  0  0  0
 75 80  1  0  0  0
 76 86  1  0  0  0
 77148  1  0  0  0
 77149  1  0  0  0
 77150  1  0  0  0
 78151  1  0  0  0
 78152  1  0  0  0
 78153  1  0  0  0
 78 84  1  0  0  0
 79 84  1  0  0  0
 79154  1  0  0  0
 79155  1  0  0  0
 79156  1  0  0  0
 80 82  1  0  0  0
 80157  1  0  0  0
 80158  1  0  0  0
 81159  1  0  0  0
 81160  1  0  0  0
 82 83  1  0  0  0
 82161  1  0  0  0
 82162  1  0  0  0
 83 85  1  0  0  0
 83163  1  0  0  0
 83164  1  0  0  0
 84 86  1  0  0  0
 84165  1  0  0  0
 85166  1  0  0  0
M  ISO  4   1 100  68 101  81 101  85 100
M  END
> <chiral flag>
0

> <version>
0

> <s_m_source_file>
/data/baiqing/PycharmProjects/Reinvent-master-3.2/result/LINK_invent/BTK/process_docking_weight1_custom_sum_contain_oxygen_bond_distance_aromatic_linkinvent_7_9_3/rearranged_h_0038.sdf

> <i_m_source_file_index>
62

> <r_mmod_Potential_Energy-OPLS-2005>
162.904541015625

> <r_mmod_Stretch_Energy-OPLS-2005>
109.429718017578

> <r_mmod_Bend_Energy-OPLS-2005>
168.916610717773

> <r_mmod_Torsional_Energy-OPLS-2005>
273.422546386719

> <r_mmod_Improper_Torsional_Energy-OPLS-2005>
10.0630197525024

> <r_mmod_Van_der_Waal_Energy-OPLS-2005>
143.977951049805

> <r_mmod_Electrostatic_Energy-OPLS-2005>
-402.570617675781

> <r_mmod_Solvation_Energy-OPLS-2005>
-208.929443359375

> <b_mmod_Minimization_Converged-OPLS-2005>
0

> <r_mmod_RMS_Derivative-OPLS-2005>
3.94161796569824

$$$$
64
                    3D
 Structure written by MMmdl.
148156  0  0  1  0            999 V2000
  -30.5017  -15.3027   20.3439 C   0  0  0  0  0  0
  -30.4125  -12.8325   19.5421 C   0  0  0  0  0  0
  -29.5297  -12.5778   18.2968 C   0  0  0  0  0  0
  -28.0812  -12.2981   18.7222 C   0  0  0  0  0  0
  -27.5973  -13.2924   19.8064 C   0  0  2  0  0  0
  -28.6212  -13.5354   20.9346 C   0  0  0  0  0  0
  -25.2339  -13.8292   20.5766 C   0  0  0  0  0  0
  -24.1710  -13.0452   20.9259 C   0  0  0  0  0  0
  -24.6389  -11.6955   20.8754 C   0  0  0  0  0  0
  -23.9098  -10.4302   21.0399 C   0  0  0  0  0  0
  -24.3643   -9.4215   21.9178 C   0  0  0  0  0  0
  -23.6311   -8.2252   22.0752 C   0  0  0  0  0  0
  -22.4291   -8.0288   21.3544 C   0  0  0  0  0  0
  -21.9932   -9.0261   20.4644 C   0  0  0  0  0  0
  -22.7267  -10.2137   20.3051 C   0  0  0  0  0  0
  -21.6860   -6.0740   22.5279 C   0  0  0  0  0  0
  -21.4020   -6.5642   23.8212 C   0  0  0  0  0  0
  -21.3661   -5.6794   24.9174 C   0  0  0  0  0  0
  -21.6044   -4.3056   24.7224 C   0  0  0  0  0  0
  -21.8818   -3.8149   23.4344 C   0  0  0  0  0  0
  -21.9195   -4.6966   22.3401 C   0  0  0  0  0  0
  -22.7727  -13.5186   21.1912 C   0  0  0  0  0  0
  -22.1662   -4.2151   21.0979 F   0  0  0  0  0  0
  -21.5628   -3.4539   25.7736 F   0  0  0  0  0  0
  -29.8585  -14.0236   20.3041 N   0  0  0  0  0  0
  -26.2756  -12.9594   20.3177 N   0  0  0  0  0  0
  -25.9325  -11.6681   20.5693 N   0  0  0  0  0  0
  -22.0400  -12.8158   22.0469 N   0  0  0  0  0  0
  -25.3987  -15.2031   20.4265 N   0  0  0  0  0  0
  -31.7255  -15.1395   20.2016 O   0  0  0  0  0  0
  -21.6651   -6.8886   21.4242 O   0  0  0  0  0  0
  -22.3397  -14.5484   20.6754 O   0  0  0  0  0  0
  -24.6650  -31.8216   23.1688 C   0  0  0  0  0  0
  -25.9323  -32.4576   23.8160 C   0  0  1  0  0  0
  -27.2091  -26.9024   20.1909 C   0  0  0  0  0  0
  -25.5982  -33.8392   24.2062 N   0  0  0  0  0  0
  -23.4800  -30.4332   21.5189 C   0  0  2  0  0  0
  -24.9313  -28.8151   20.1143 C   0  0  0  0  0  0
  -22.7674  -29.4433   22.4776 C   0  0  0  0  0  0
  -18.0324  -28.1410   22.8465 C   0  0  0  0  0  0
  -24.1494  -36.7202   23.2647 C   0  0  0  0  0  0
  -26.0507  -30.6207   21.4019 C   0  0  0  0  0  0
  -26.1170  -29.2077   20.7477 C   0  0  0  0  0  0
  -27.2518  -28.2740   20.7574 C   0  0  0  0  0  0
  -25.9942  -26.6680   19.5089 C   0  0  0  0  0  0
  -24.8968  -27.5667   19.4735 C   0  0  0  0  0  0
  -23.7205  -29.7477   20.1460 C   0  0  0  0  0  0
  -25.4136  -36.2960   24.0296 C   0  0  1  0  0  0
  -20.5950  -28.3756   23.1183 C   0  0  2  0  0  0
  -20.6799  -26.9435   22.5401 C   0  0  0  0  0  0
  -19.5773  -26.6376   21.5213 C   0  0  0  0  0  0
  -18.1956  -26.7942   22.1622 C   0  0  0  0  0  0
  -19.1586  -28.8904   23.2811 C   0  0  0  0  0  0
  -18.9495  -30.1493   23.8847 C   0  0  0  0  0  0
  -17.6488  -30.6598   24.0554 C   0  0  0  0  0  0
  -25.9103  -34.9343   23.5002 C   0  0  0  0  0  0
  -16.5378  -29.9084   23.6344 C   0  0  0  0  0  0
  -16.7306  -28.6505   23.0362 C   0  0  0  0  0  0
  -26.4566  -31.6530   25.0698 C   0  0  0  0  0  0
  -25.3685  -31.3788   26.1349 C   0  0  0  0  0  0
  -27.0468  -30.2894   24.6450 C   0  0  0  0  0  0
  -27.6050  -32.4348   25.7505 C   0  0  0  0  0  0
  -27.5570  -37.1758   24.8466 C   0  0  0  0  0  0
  -21.4342  -29.3043   22.3528 N   0  0  0  0  0  0
  -26.4280  -37.3698   23.9407 N   0  0  0  0  0  0
  -24.7536  -30.9861   22.0834 N   0  0  0  0  0  0
  -23.4213  -28.8004   23.3026 O   0  0  0  0  0  0
  -28.2056  -25.7849   20.2519 O   0  0  0  0  0  0
  -26.5717  -34.8883   22.4601 O   0  0  0  0  0  0
  -23.5715  -32.1197   23.6769 O   0  0  0  0  0  0
  -30.9870  -17.8306   19.6299 C   0  0  0  0  0  0
  -30.0258  -16.9489   20.2537 C   0  0  0  0  0  0
  -30.6024  -19.1760   19.6290 C   0  0  0  0  0  0
  -31.3542  -20.3251   19.0448 C   0  0  0  0  0  0
  -28.9039  -22.6081   20.2530 C   0  0  0  0  0  0
  -28.4976  -20.8382   20.3863 C   0  0  0  0  0  0
  -27.9212  -24.1447   20.2344 C   0  0  0  0  0  0
  -29.0512  -17.9777   20.6123 N   0  0  0  0  0  0
  -29.3764  -19.3961   20.2508 N   0  0  0  0  0  0
  -31.4398  -12.9877   19.2113 H   0  0  0  0  0  0
  -30.4506  -11.9458   20.1771 H   0  0  0  0  0  0
  -29.9198  -11.7414   17.7154 H   0  0  0  0  0  0
  -29.5607  -13.4508   17.6431 H   0  0  0  0  0  0
  -28.0462  -11.2813   19.1152 H   0  0  0  0  0  0
  -27.4160  -12.3159   17.8580 H   0  0  0  0  0  0
  -27.4924  -14.2417   19.2793 H   0  0  0  0  0  0
  -28.7908  -12.6334   21.5244 H   0  0  0  0  0  0
  -28.2477  -14.2930   21.6254 H   0  0  0  0  0  0
  -25.2784   -9.5694   22.4758 H   0  0  0  0  0  0
  -24.0017   -7.4645   22.7475 H   0  0  0  0  0  0
  -21.0862   -8.8783   19.8950 H   0  0  0  0  0  0
  -22.3721  -10.9676   19.6162 H   0  0  0  0  0  0
  -21.2015   -7.6151   23.9717 H   0  0  0  0  0  0
  -21.1483   -6.0524   25.9076 H   0  0  0  0  0  0
  -22.0595   -2.7611   23.2844 H   0  0  0  0  0  0
  -22.4047  -11.9833   22.4857 H   0  0  0  0  0  0
  -21.1008  -13.1151   22.2676 H   0  0  0  0  0  0
  -24.6370  -15.8584   20.5641 H   0  0  0  0  0  0
  -26.2613  -15.6540   20.1460 H   0  0  0  0  0  0
  -26.7392  -32.5106   23.0872 H   0  0  0  0  0  0
  -25.0072  -33.9467   25.0175 H   0  0  0  0  0  0
  -22.7943  -31.2656   21.3469 H   0  0  0  0  0  0
  -23.3768  -35.9519   23.3276 H   0  0  0  0  0  0
  -24.3569  -36.8884   22.2068 H   0  0  0  0  0  0
  -23.7240  -37.6375   23.6728 H   0  0  0  0  0  0
  -26.2332  -31.3599   20.6208 H   0  0  0  0  0  0
  -26.9100  -30.6786   22.0580 H   0  0  0  0  0  0
  -28.1507  -28.5742   21.2773 H   0  0  0  0  0  0
  -25.8570  -25.7176   19.0154 H   0  0  0  0  0  0
  -23.9966  -27.2606   18.9583 H   0  0  0  0  0  0
  -23.8801  -30.5154   19.3880 H   0  0  0  0  0  0
  -22.8288  -29.2052   19.8267 H   0  0  0  0  0  0
  -25.1336  -36.1751   25.0787 H   0  0  0  0  0  0
  -21.0038  -28.3365   24.1306 H   0  0  0  0  0  0
  -20.5677  -26.2375   23.3643 H   0  0  0  0  0  0
  -21.6663  -26.7406   22.1209 H   0  0  0  0  0  0
  -19.6931  -25.6274   21.1276 H   0  0  0  0  0  0
  -19.6712  -27.3158   20.6720 H   0  0  0  0  0  0
  -17.4224  -26.6683   21.4027 H   0  0  0  0  0  0
  -18.0351  -26.0097   22.9031 H   0  0  0  0  0  0
  -19.7970  -30.7323   24.2194 H   0  0  0  0  0  0
  -17.5038  -31.6273   24.5166 H   0  0  0  0  0  0
  -15.5376  -30.2969   23.7696 H   0  0  0  0  0  0
  -15.8707  -28.0806   22.7105 H   0  0  0  0  0  0
  -24.5885  -30.7120   25.7656 H   0  0  0  0  0  0
  -24.8856  -32.2991   26.4642 H   0  0  0  0  0  0
  -25.7910  -30.9041   27.0214 H   0  0  0  0  0  0
  -26.3142  -29.6560   24.1438 H   0  0  0  0  0  0
  -27.3970  -29.7271   25.5117 H   0  0  0  0  0  0
  -27.9094  -30.4068   23.9889 H   0  0  0  0  0  0
  -27.2612  -33.3694   26.1949 H   0  0  0  0  0  0
  -28.3932  -32.6837   25.0387 H   0  0  0  0  0  0
  -28.0640  -31.8565   26.5534 H   0  0  0  0  0  0
  -28.2566  -38.0074   24.7513 H   0  0  0  0  0  0
  -28.1088  -36.2599   24.6295 H   0  0  0  0  0  0
  -27.2285  -37.1400   25.8868 H   0  0  0  0  0  0
  -20.9600  -29.8730   21.6652 H   0  0  0  0  0  0
  -26.0124  -38.2755   24.1416 H   0  0  0  0  0  0
  -31.9202  -17.4911   19.2016 H   0  0  0  0  0  0
  -32.3061  -20.0004   18.6248 H   0  0  0  0  0  0
  -31.5651  -21.0785   19.8037 H   0  0  0  0  0  0
  -30.7822  -20.7974   18.2462 H   0  0  0  0  0  0
  -29.5014  -22.6763   19.3446 H   0  0  0  0  0  0
  -29.6295  -22.7674   21.0505 H   0  0  0  0  0  0
  -27.6897  -20.7064   19.6666 H   0  0  0  0  0  0
  -27.9935  -20.7493   21.3485 H   0  0  0  0  0  0
  -27.2401  -24.0244   21.0771 H   0  0  0  0  0  0
  -27.2795  -24.0148   19.3638 H   0  0  0  0  0  0
  1 25  1  0  0  0
  1 30  2  0  0  0
  1 72  1  0  0  0
  2  3  1  0  0  0
  2 25  1  0  0  0
  2 80  1  0  0  0
  2 81  1  0  0  0
  3  4  1  0  0  0
  3 82  1  0  0  0
  3 83  1  0  0  0
  4  5  1  0  0  0
  4 84  1  0  0  0
  4 85  1  0  0  0
  5  6  1  0  0  0
  5 26  1  0  0  0
  5 86  1  0  0  0
  6 25  1  0  0  0
  6 87  1  0  0  0
  6 88  1  0  0  0
  7  8  2  0  0  0
  7 26  1  0  0  0
  7 29  1  0  0  0
  8  9  1  0  0  0
  8 22  1  0  0  0
  9 10  1  0  0  0
  9 27  2  0  0  0
 10 11  2  0  0  0
 10 15  1  0  0  0
 11 12  1  0  0  0
 11 89  1  0  0  0
 12 13  2  0  0  0
 12 90  1  0  0  0
 13 14  1  0  0  0
 13 31  1  0  0  0
 14 15  2  0  0  0
 14 91  1  0  0  0
 15 92  1  0  0  0
 16 17  2  0  0  0
 16 21  1  0  0  0
 16 31  1  0  0  0
 17 18  1  0  0  0
 17 93  1  0  0  0
 18 19  2  0  0  0
 18 94  1  0  0  0
 19 20  1  0  0  0
 19 24  1  0  0  0
 20 21  2  0  0  0
 20 95  1  0  0  0
 21 23  1  0  0  0
 22 28  1  0  0  0
 22 32  2  0  0  0
 26 27  1  0  0  0
 28 96  1  0  0  0
 28 97  1  0  0  0
 29 98  1  0  0  0
 29 99  1  0  0  0
 33 34  1  0  0  0
 33 66  1  0  0  0
 33 70  2  0  0  0
 34 36  1  0  0  0
 34 59  1  0  0  0
 34100  1  0  0  0
 35 44  2  0  0  0
 35 45  1  0  0  0
 35 68  1  0  0  0
 36 56  1  0  0  0
 36101  1  0  0  0
 37 39  1  0  0  0
 37 47  1  0  0  0
 37 66  1  0  0  0
 37102  1  0  0  0
 38 43  2  0  0  0
 38 46  1  0  0  0
 38 47  1  0  0  0
 39 64  1  0  0  0
 39 67  2  0  0  0
 40 52  1  0  0  0
 40 53  2  0  0  0
 40 58  1  0  0  0
 41103  1  0  0  0
 41104  1  0  0  0
 41105  1  0  0  0
 41 48  1  0  0  0
 42 43  1  0  0  0
 42 66  1  0  0  0
 42106  1  0  0  0
 42107  1  0  0  0
 43 44  1  0  0  0
 44108  1  0  0  0
 45 46  2  0  0  0
 45109  1  0  0  0
 46110  1  0  0  0
 47111  1  0  0  0
 47112  1  0  0  0
 48 56  1  0  0  0
 48 65  1  0  0  0
 48113  1  0  0  0
 49 50  1  0  0  0
 49 53  1  0  0  0
 49 64  1  0  0  0
 49114  1  0  0  0
 50 51  1  0  0  0
 50115  1  0  0  0
 50116  1  0  0  0
 51 52  1  0  0  0
 51117  1  0  0  0
 51118  1  0  0  0
 52119  1  0  0  0
 52120  1  0  0  0
 53 54  1  0  0  0
 54 55  2  0  0  0
 54121  1  0  0  0
 55 57  1  0  0  0
 55122  1  0  0  0
 56 69  2  0  0  0
 57 58  2  0  0  0
 57123  1  0  0  0
 58124  1  0  0  0
 59 60  1  0  0  0
 59 61  1  0  0  0
 59 62  1  0  0  0
 60125  1  0  0  0
 60126  1  0  0  0
 60127  1  0  0  0
 61128  1  0  0  0
 61129  1  0  0  0
 61130  1  0  0  0
 62131  1  0  0  0
 62132  1  0  0  0
 62133  1  0  0  0
 63 65  1  0  0  0
 63134  1  0  0  0
 63135  1  0  0  0
 63136  1  0  0  0
 64137  1  0  0  0
 65138  1  0  0  0
 68 77  1  0  0  0
 71 72  1  0  0  0
 71 73  2  0  0  0
 71139  1  0  0  0
 72 78  2  0  0  0
 73 74  1  0  0  0
 73 79  1  0  0  0
 74140  1  0  0  0
 74141  1  0  0  0
 74142  1  0  0  0
 75 76  1  0  0  0
 75 77  1  0  0  0
 75143  1  0  0  0
 75144  1  0  0  0
 76 79  1  0  0  0
 76145  1  0  0  0
 76146  1  0  0  0
 77147  1  0  0  0
 77148  1  0  0  0
 78 79  1  0  0  0
M  ISO  4   1 100  68 101  72 100  77 101
M  END
> <chiral flag>
0

> <version>
0

> <s_m_source_file>
/data/baiqing/PycharmProjects/Reinvent-master-3.2/result/LINK_invent/BTK/process_docking_weight1_custom_sum_contain_oxygen_bond_distance_aromatic_linkinvent_7_9_3/rearranged_h_0038.sdf

> <i_m_source_file_index>
63

> <r_mmod_Potential_Energy-OPLS-2005>
1516.13122558594

> <r_mmod_Stretch_Energy-OPLS-2005>
646.953002929688

> <r_mmod_Bend_Energy-OPLS-2005>
513.7119140625

> <r_mmod_Torsional_Energy-OPLS-2005>
219.316055297852

> <r_mmod_Improper_Torsional_Energy-OPLS-2005>
7.03081607818604

> <r_mmod_Van_der_Waal_Energy-OPLS-2005>
111.972160339355

> <r_mmod_Electrostatic_Energy-OPLS-2005>
-270.344573974609

> <r_mmod_Solvation_Energy-OPLS-2005>
-203.470230102539

> <b_mmod_Minimization_Converged-OPLS-2005>
0

> <r_mmod_RMS_Derivative-OPLS-2005>
0.0837304294109344

$$$$
65
                    3D
 Structure written by MMmdl.
154162  0  0  1  0            999 V2000
  -30.6959  -14.4459   20.5897 C   0  0  0  0  0  0
  -30.4240  -12.3008   19.4145 C   0  0  0  0  0  0
  -29.4971  -12.5083   18.2013 C   0  0  0  0  0  0
  -28.0162  -12.3681   18.6100 C   0  0  0  0  0  0
  -27.6598  -13.2051   19.8688 C   0  0  2  0  0  0
  -28.6968  -12.9659   20.9892 C   0  0  0  0  0  0
  -25.2575  -13.8148   20.5691 C   0  0  0  0  0  0
  -24.1818  -13.0425   20.9168 C   0  0  0  0  0  0
  -24.6335  -11.6879   20.8679 C   0  0  0  0  0  0
  -23.8977  -10.4273   21.0350 C   0  0  0  0  0  0
  -24.3551   -9.4208   21.9127 C   0  0  0  0  0  0
  -23.6259   -8.2220   22.0708 C   0  0  0  0  0  0
  -22.4243   -8.0233   21.3504 C   0  0  0  0  0  0
  -21.9844   -9.0187   20.4608 C   0  0  0  0  0  0
  -22.7148  -10.2093   20.3009 C   0  0  0  0  0  0
  -21.6860   -6.0699   22.5254 C   0  0  0  0  0  0
  -21.4024   -6.5590   23.8192 C   0  0  0  0  0  0
  -21.3676   -5.6746   24.9147 C   0  0  0  0  0  0
  -21.6063   -4.3006   24.7198 C   0  0  0  0  0  0
  -21.8839   -3.8104   23.4306 C   0  0  0  0  0  0
  -21.9202   -4.6922   22.3382 C   0  0  0  0  0  0
  -22.7846  -13.5241   21.1817 C   0  0  0  0  0  0
  -22.1682   -4.2111   21.0960 F   0  0  0  0  0  0
  -21.5617   -3.4502   25.7713 F   0  0  0  0  0  0
  -30.0308  -13.2697   20.4474 N   0  0  0  0  0  0
  -26.2993  -12.9317   20.3281 N   0  0  0  0  0  0
  -25.9258  -11.6468   20.5656 N   0  0  0  0  0  0
  -22.0481  -12.8267   22.0406 N   0  0  0  0  0  0
  -25.4293  -15.1872   20.4174 N   0  0  0  0  0  0
  -31.8190  -14.6476   20.1163 O   0  0  0  0  0  0
  -21.6622   -6.8822   21.4215 O   0  0  0  0  0  0
  -22.3528  -14.5547   20.6642 O   0  0  0  0  0  0
  -24.6148  -31.8756   23.2206 C   0  0  0  0  0  0
  -25.9058  -32.4851   23.8457 C   0  0  1  0  0  0
  -27.1953  -27.4310   20.0659 C   0  0  0  0  0  0
  -25.5932  -33.8658   24.2360 N   0  0  0  0  0  0
  -23.3958  -30.5130   21.5656 C   0  0  2  0  0  0
  -24.8287  -28.9892   20.1244 C   0  0  0  0  0  0
  -22.7394  -29.4722   22.5010 C   0  0  0  0  0  0
  -18.0275  -28.1402   22.8487 C   0  0  0  0  0  0
  -24.1496  -36.7302   23.2638 C   0  0  0  0  0  0
  -25.9337  -30.8315   21.3852 C   0  0  0  0  0  0
  -25.9969  -29.4702   20.7259 C   0  0  0  0  0  0
  -27.1780  -28.6899   20.7139 C   0  0  0  0  0  0
  -25.9976  -26.9791   19.4634 C   0  0  0  0  0  0
  -24.8194  -27.7345   19.5076 C   0  0  0  0  0  0
  -23.6030  -29.8701   20.1741 C   0  0  0  0  0  0
  -25.4122  -36.3117   24.0328 C   0  0  1  0  0  0
  -20.5861  -28.3680   23.1321 C   0  0  2  0  0  0
  -20.6772  -26.9421   22.5415 C   0  0  0  0  0  0
  -19.5755  -26.6403   21.5214 C   0  0  0  0  0  0
  -18.1928  -26.7944   22.1615 C   0  0  0  0  0  0
  -19.1511  -28.8851   23.2905 C   0  0  0  0  0  0
  -18.9447  -30.1457   23.8921 C   0  0  0  0  0  0
  -17.6446  -30.6602   24.0568 C   0  0  0  0  0  0
  -25.9044  -34.9486   23.5133 C   0  0  0  0  0  0
  -16.5346  -29.9112   23.6330 C   0  0  0  0  0  0
  -16.7259  -28.6529   23.0342 C   0  0  0  0  0  0
  -26.4493  -31.6616   25.0762 C   0  0  0  0  0  0
  -25.3760  -31.3720   26.1506 C   0  0  0  0  0  0
  -27.0308  -30.3047   24.6144 C   0  0  0  0  0  0
  -27.6059  -32.4348   25.7504 C   0  0  0  0  0  0
  -27.5582  -37.1831   24.8479 C   0  0  0  0  0  0
  -21.4125  -29.3063   22.3729 N   0  0  0  0  0  0
  -26.4316  -37.3800   23.9386 N   0  0  0  0  0  0
  -24.6656  -31.0865   22.1135 N   0  0  0  0  0  0
  -23.4170  -28.8233   23.3009 O   0  0  0  0  0  0
  -28.3524  -26.6737   20.0585 O   0  0  0  0  0  0
  -26.5595  -34.8933   22.4688 O   0  0  0  0  0  0
  -23.5333  -32.1527   23.7607 O   0  0  0  0  0  0
  -28.6969  -21.6805   21.1308 C   0  0  0  0  0  0
  -28.4347  -23.3850   19.9443 C   0  0  0  0  0  0
  -28.5253  -20.2981   21.6809 C   0  0  0  0  0  0
  -27.9730  -24.3695   18.9231 C   0  0  0  0  0  0
  -29.5977  -19.3059   21.1821 C   0  0  0  0  0  0
  -29.2188  -17.8182   21.3822 C   0  0  0  0  0  0
  -30.4056  -16.8539   21.1638 C   0  0  0  0  0  0
  -28.5949  -25.7995   18.9416 C   0  0  0  0  0  0
  -27.9590  -22.1458   20.0882 N   0  0  0  0  0  0
  -29.6050  -22.5292   21.6076 N   0  0  0  0  0  0
  -29.9919  -15.4452   21.1488 N   0  0  0  0  0  0
  -29.4402  -23.6739   20.8081 O   0  0  0  0  0  0
  -31.4669  -12.4119   19.1134 H   0  0  0  0  0  0
  -30.3305  -11.2850   19.7985 H   0  0  0  0  0  0
  -29.7360  -11.7865   17.4193 H   0  0  0  0  0  0
  -29.6686  -13.4986   17.7700 H   0  0  0  0  0  0
  -27.8312  -11.3099   18.8020 H   0  0  0  0  0  0
  -27.3664  -12.6427   17.7762 H   0  0  0  0  0  0
  -27.7115  -14.2532   19.5727 H   0  0  0  0  0  0
  -28.6679  -11.9233   21.3118 H   0  0  0  0  0  0
  -28.4562  -13.5502   21.8769 H   0  0  0  0  0  0
  -25.2706   -9.5714   22.4663 H   0  0  0  0  0  0
  -23.9985   -7.4646   22.7438 H   0  0  0  0  0  0
  -21.0752   -8.8685   19.8937 H   0  0  0  0  0  0
  -22.3574  -10.9593   19.6098 H   0  0  0  0  0  0
  -21.2028   -7.6111   23.9691 H   0  0  0  0  0  0
  -21.1491   -6.0460   25.9055 H   0  0  0  0  0  0
  -22.0614   -2.7562   23.2809 H   0  0  0  0  0  0
  -22.4102  -11.9974   22.4872 H   0  0  0  0  0  0
  -21.1078  -13.1250   22.2569 H   0  0  0  0  0  0
  -24.6536  -15.8337   20.5128 H   0  0  0  0  0  0
  -26.2759  -15.6295   20.0828 H   0  0  0  0  0  0
  -26.7109  -32.5567   23.1198 H   0  0  0  0  0  0
  -25.0098  -33.9851   25.0516 H   0  0  0  0  0  0
  -22.6823  -31.3311   21.4444 H   0  0  0  0  0  0
  -23.3752  -35.9649   23.3372 H   0  0  0  0  0  0
  -24.3562  -36.8845   22.2037 H   0  0  0  0  0  0
  -23.7278  -37.6537   23.6613 H   0  0  0  0  0  0
  -26.0639  -31.6037   20.6256 H   0  0  0  0  0  0
  -26.8149  -30.8659   22.0132 H   0  0  0  0  0  0
  -28.0760  -29.0551   21.1921 H   0  0  0  0  0  0
  -25.9087  -26.0506   18.9394 H   0  0  0  0  0  0
  -23.9127  -27.3526   19.0577 H   0  0  0  0  0  0
  -23.7360  -30.6628   19.4365 H   0  0  0  0  0  0
  -22.7173  -29.3175   19.8565 H   0  0  0  0  0  0
  -25.1318  -36.1987   25.0823 H   0  0  0  0  0  0
  -20.9947  -28.3259   24.1442 H   0  0  0  0  0  0
  -20.5700  -26.2292   23.3595 H   0  0  0  0  0  0
  -21.6651  -26.7506   22.1198 H   0  0  0  0  0  0
  -19.6923  -25.6316   21.1244 H   0  0  0  0  0  0
  -19.6705  -27.3213   20.6743 H   0  0  0  0  0  0
  -17.4200  -26.6683   21.4020 H   0  0  0  0  0  0
  -18.0339  -26.0095   22.9020 H   0  0  0  0  0  0
  -19.7923  -30.7267   24.2301 H   0  0  0  0  0  0
  -17.5014  -31.6292   24.5178 H   0  0  0  0  0  0
  -15.5344  -30.3023   23.7662 H   0  0  0  0  0  0
  -15.8654  -28.0875   22.7028 H   0  0  0  0  0  0
  -24.5928  -30.7076   25.7844 H   0  0  0  0  0  0
  -24.8959  -32.2878   26.4973 H   0  0  0  0  0  0
  -25.8111  -30.8871   27.0259 H   0  0  0  0  0  0
  -26.2847  -29.6823   24.1187 H   0  0  0  0  0  0
  -27.4052  -29.7266   25.4610 H   0  0  0  0  0  0
  -27.8717  -30.4342   23.9316 H   0  0  0  0  0  0
  -27.2673  -33.3642   26.2104 H   0  0  0  0  0  0
  -28.3846  -32.6942   25.0315 H   0  0  0  0  0  0
  -28.0772  -31.8484   26.5406 H   0  0  0  0  0  0
  -28.2658  -38.0072   24.7454 H   0  0  0  0  0  0
  -28.1018  -36.2603   24.6410 H   0  0  0  0  0  0
  -27.2279  -37.1610   25.8881 H   0  0  0  0  0  0
  -20.9255  -29.8801   21.6993 H   0  0  0  0  0  0
  -26.0199  -38.2881   24.1367 H   0  0  0  0  0  0
  -27.5318  -19.9465   21.3996 H   0  0  0  0  0  0
  -28.5284  -20.3448   22.7701 H   0  0  0  0  0  0
  -26.8904  -24.3528   18.9807 H   0  0  0  0  0  0
  -28.1844  -23.9272   17.9493 H   0  0  0  0  0  0
  -30.5404  -19.5413   21.6813 H   0  0  0  0  0  0
  -29.7752  -19.4769   20.1185 H   0  0  0  0  0  0
  -28.4197  -17.5731   20.6807 H   0  0  0  0  0  0
  -28.8121  -17.6673   22.3847 H   0  0  0  0  0  0
  -31.1502  -16.9932   21.9518 H   0  0  0  0  0  0
  -30.8931  -17.1011   20.2180 H   0  0  0  0  0  0
  -28.3000  -26.3199   18.0288 H   0  0  0  0  0  0
  -29.6775  -25.6886   18.8659 H   0  0  0  0  0  0
  -29.0711  -15.2171   21.4958 H   0  0  0  0  0  0
  1 25  1  0  0  0
  1 30  2  0  0  0
  1 81  1  0  0  0
  2  3  1  0  0  0
  2 25  1  0  0  0
  2 83  1  0  0  0
  2 84  1  0  0  0
  3  4  1  0  0  0
  3 85  1  0  0  0
  3 86  1  0  0  0
  4  5  1  0  0  0
  4 87  1  0  0  0
  4 88  1  0  0  0
  5  6  1  0  0  0
  5 26  1  0  0  0
  5 89  1  0  0  0
  6 25  1  0  0  0
  6 90  1  0  0  0
  6 91  1  0  0  0
  7  8  2  0  0  0
  7 26  1  0  0  0
  7 29  1  0  0  0
  8  9  1  0  0  0
  8 22  1  0  0  0
  9 10  1  0  0  0
  9 27  2  0  0  0
 10 11  2  0  0  0
 10 15  1  0  0  0
 11 12  1  0  0  0
 11 92  1  0  0  0
 12 13  2  0  0  0
 12 93  1  0  0  0
 13 14  1  0  0  0
 13 31  1  0  0  0
 14 15  2  0  0  0
 14 94  1  0  0  0
 15 95  1  0  0  0
 16 17  2  0  0  0
 16 21  1  0  0  0
 16 31  1  0  0  0
 17 18  1  0  0  0
 17 96  1  0  0  0
 18 19  2  0  0  0
 18 97  1  0  0  0
 19 20  1  0  0  0
 19 24  1  0  0  0
 20 21  2  0  0  0
 20 98  1  0  0  0
 21 23  1  0  0  0
 22 28  1  0  0  0
 22 32  2  0  0  0
 26 27  1  0  0  0
 28 99  1  0  0  0
 28100  1  0  0  0
 29101  1  0  0  0
 29102  1  0  0  0
 33 34  1  0  0  0
 33 66  1  0  0  0
 33 70  2  0  0  0
 34 36  1  0  0  0
 34 59  1  0  0  0
 34103  1  0  0  0
 35 44  2  0  0  0
 35 45  1  0  0  0
 35 68  1  0  0  0
 36 56  1  0  0  0
 36104  1  0  0  0
 37 39  1  0  0  0
 37 47  1  0  0  0
 37 66  1  0  0  0
 37105  1  0  0  0
 38 43  2  0  0  0
 38 46  1  0  0  0
 38 47  1  0  0  0
 39 64  1  0  0  0
 39 67  2  0  0  0
 40 52  1  0  0  0
 40 53  2  0  0  0
 40 58  1  0  0  0
 41106  1  0  0  0
 41107  1  0  0  0
 41108  1  0  0  0
 41 48  1  0  0  0
 42 43  1  0  0  0
 42 66  1  0  0  0
 42109  1  0  0  0
 42110  1  0  0  0
 43 44  1  0  0  0
 44111  1  0  0  0
 45 46  2  0  0  0
 45112  1  0  0  0
 46113  1  0  0  0
 47114  1  0  0  0
 47115  1  0  0  0
 48 56  1  0  0  0
 48 65  1  0  0  0
 48116  1  0  0  0
 49 50  1  0  0  0
 49 53  1  0  0  0
 49 64  1  0  0  0
 49117  1  0  0  0
 50 51  1  0  0  0
 50118  1  0  0  0
 50119  1  0  0  0
 51 52  1  0  0  0
 51120  1  0  0  0
 51121  1  0  0  0
 52122  1  0  0  0
 52123  1  0  0  0
 53 54  1  0  0  0
 54 55  2  0  0  0
 54124  1  0  0  0
 55 57  1  0  0  0
 55125  1  0  0  0
 56 69  2  0  0  0
 57 58  2  0  0  0
 57126  1  0  0  0
 58127  1  0  0  0
 59 60  1  0  0  0
 59 61  1  0  0  0
 59 62  1  0  0  0
 60128  1  0  0  0
 60129  1  0  0  0
 60130  1  0  0  0
 61131  1  0  0  0
 61132  1  0  0  0
 61133  1  0  0  0
 62134  1  0  0  0
 62135  1  0  0  0
 62136  1  0  0  0
 63 65  1  0  0  0
 63137  1  0  0  0
 63138  1  0  0  0
 63139  1  0  0  0
 64140  1  0  0  0
 65141  1  0  0  0
 68 78  1  0  0  0
 71 73  1  0  0  0
 71 79  1  0  0  0
 71 80  2  0  0  0
 72 74  1  0  0  0
 72 79  2  0  0  0
 72 82  1  0  0  0
 73 75  1  0  0  0
 73142  1  0  0  0
 73143  1  0  0  0
 74 78  1  0  0  0
 74144  1  0  0  0
 74145  1  0  0  0
 75 76  1  0  0  0
 75146  1  0  0  0
 75147  1  0  0  0
 76 77  1  0  0  0
 76148  1  0  0  0
 76149  1  0  0  0
 77 81  1  0  0  0
 77150  1  0  0  0
 77151  1  0  0  0
 78152  1  0  0  0
 78153  1  0  0  0
 80 82  1  0  0  0
 81154  1  0  0  0
M  ISO  4   1 100  68 101  78 101  81 100
M  END
> <chiral flag>
0

> <version>
0

> <s_m_source_file>
/data/baiqing/PycharmProjects/Reinvent-master-3.2/result/LINK_invent/BTK/process_docking_weight1_custom_sum_contain_oxygen_bond_distance_aromatic_linkinvent_7_9_3/rearranged_h_0038.sdf

> <i_m_source_file_index>
64

> <r_mmod_Potential_Energy-OPLS-2005>
-132.674530029297

> <r_mmod_Stretch_Energy-OPLS-2005>
33.1335144042969

> <r_mmod_Bend_Energy-OPLS-2005>
103.926643371582

> <r_mmod_Torsional_Energy-OPLS-2005>
188.800201416016

> <r_mmod_Improper_Torsional_Energy-OPLS-2005>
3.65739631652832

> <r_mmod_Van_der_Waal_Energy-OPLS-2005>
135.373062133789

> <r_mmod_Electrostatic_Energy-OPLS-2005>
-373.757354736328

> <r_mmod_Solvation_Energy-OPLS-2005>
-238.202026367188

> <b_mmod_Minimization_Converged-OPLS-2005>
0

> <r_mmod_RMS_Derivative-OPLS-2005>
4.17147493362427

$$$$
66
                    3D
 Structure written by MMmdl.
165173  0  0  1  0            999 V2000
  -30.6925  -14.4275   20.6073 C   0  0  0  0  0  0
  -30.4262  -12.2808   19.4223 C   0  0  0  0  0  0
  -29.5006  -12.5076   18.2078 C   0  0  0  0  0  0
  -28.0169  -12.3810   18.6109 C   0  0  0  0  0  0
  -27.6693  -13.1993   19.8855 C   0  0  2  0  0  0
  -28.7053  -12.9321   21.0011 C   0  0  0  0  0  0
  -25.2644  -13.8152   20.5706 C   0  0  0  0  0  0
  -24.1867  -13.0441   20.9192 C   0  0  0  0  0  0
  -24.6397  -11.6903   20.8730 C   0  0  0  0  0  0
  -23.9041  -10.4298   21.0390 C   0  0  0  0  0  0
  -24.3606   -9.4222   21.9170 C   0  0  0  0  0  0
  -23.6301   -8.2246   22.0741 C   0  0  0  0  0  0
  -22.4275   -8.0278   21.3540 C   0  0  0  0  0  0
  -21.9893   -9.0243   20.4637 C   0  0  0  0  0  0
  -22.7205  -10.2134   20.3040 C   0  0  0  0  0  0
  -21.6854   -6.0733   22.5282 C   0  0  0  0  0  0
  -21.4015   -6.5641   23.8221 C   0  0  0  0  0  0
  -21.3661   -5.6793   24.9180 C   0  0  0  0  0  0
  -21.6046   -4.3057   24.7227 C   0  0  0  0  0  0
  -21.8820   -3.8147   23.4345 C   0  0  0  0  0  0
  -21.9199   -4.6967   22.3405 C   0  0  0  0  0  0
  -22.7896  -13.5264   21.1851 C   0  0  0  0  0  0
  -22.1675   -4.2156   21.0979 F   0  0  0  0  0  0
  -21.5618   -3.4539   25.7732 F   0  0  0  0  0  0
  -30.0441  -13.2410   20.4661 N   0  0  0  0  0  0
  -26.3066  -12.9301   20.3407 N   0  0  0  0  0  0
  -25.9330  -11.6465   20.5771 N   0  0  0  0  0  0
  -22.0523  -12.8264   22.0400 N   0  0  0  0  0  0
  -25.4383  -15.1858   20.4100 N   0  0  0  0  0  0
  -31.7788  -14.6784   20.0784 O   0  0  0  0  0  0
  -21.6644   -6.8876   21.4241 O   0  0  0  0  0  0
  -22.3588  -14.5576   20.6697 O   0  0  0  0  0  0
  -24.6106  -31.8670   23.2105 C   0  0  0  0  0  0
  -25.9017  -32.4817   23.8380 C   0  0  1  0  0  0
  -27.2435  -27.4518   20.0799 C   0  0  0  0  0  0
  -25.5894  -33.8619   24.2332 N   0  0  0  0  0  0
  -23.3968  -30.4874   21.5530 C   0  0  2  0  0  0
  -24.8418  -28.9484   20.1226 C   0  0  0  0  0  0
  -22.7382  -29.4631   22.5032 C   0  0  0  0  0  0
  -18.0272  -28.1337   22.8501 C   0  0  0  0  0  0
  -24.1497  -36.7310   23.2641 C   0  0  0  0  0  0
  -25.9228  -30.8353   21.3607 C   0  0  0  0  0  0
  -26.0001  -29.4697   20.7099 C   0  0  0  0  0  0
  -27.2002  -28.7282   20.6839 C   0  0  0  0  0  0
  -26.0595  -26.9310   19.5090 C   0  0  0  0  0  0
  -24.8649  -27.6761   19.5260 C   0  0  0  0  0  0
  -23.6002  -29.8080   20.1712 C   0  0  0  0  0  0
  -25.4112  -36.3114   24.0351 C   0  0  1  0  0  0
  -20.5859  -28.3606   23.1340 C   0  0  2  0  0  0
  -20.6750  -26.9347   22.5420 C   0  0  0  0  0  0
  -19.5727  -26.6356   21.5210 C   0  0  0  0  0  0
  -18.1907  -26.7895   22.1622 C   0  0  0  0  0  0
  -19.1519  -28.8790   23.2918 C   0  0  0  0  0  0
  -18.9446  -30.1414   23.8906 C   0  0  0  0  0  0
  -17.6445  -30.6558   24.0546 C   0  0  0  0  0  0
  -25.9029  -34.9475   23.5135 C   0  0  0  0  0  0
  -16.5335  -29.9046   23.6341 C   0  0  0  0  0  0
  -16.7261  -28.6461   23.0367 C   0  0  0  0  0  0
  -26.4462  -31.6595   25.0706 C   0  0  0  0  0  0
  -25.3747  -31.3682   26.1471 C   0  0  0  0  0  0
  -27.0290  -30.3052   24.6061 C   0  0  0  0  0  0
  -27.6051  -32.4305   25.7450 C   0  0  0  0  0  0
  -27.5594  -37.1795   24.8470 C   0  0  0  0  0  0
  -21.4118  -29.2987   22.3757 N   0  0  0  0  0  0
  -26.4302  -37.3796   23.9420 N   0  0  0  0  0  0
  -24.6614  -31.0768   22.1009 N   0  0  0  0  0  0
  -23.4165  -28.8179   23.3070 O   0  0  0  0  0  0
  -28.4532  -26.7892   20.0584 O   0  0  0  0  0  0
  -26.5579  -34.8921   22.4697 O   0  0  0  0  0  0
  -23.5315  -32.1423   23.7530 O   0  0  0  0  0  0
  -27.2582  -22.0858   19.3373 C   0  0  0  0  0  0
  -27.7440  -22.1174   20.6753 C   0  0  0  0  0  0
  -27.2720  -20.9462   21.2220 C   0  0  0  0  0  0
  -25.7494  -19.0905   20.3054 C   0  0  0  0  0  0
  -28.5953  -23.1946   21.3158 C   0  0  0  0  0  0
  -27.4367  -20.3635   22.6007 C   0  0  0  0  0  0
  -28.0580  -24.6361   21.1428 C   0  0  0  0  0  0
  -28.1566  -18.9989   22.6720 C   0  0  0  0  0  0
  -29.6601  -19.0164   22.3275 C   0  0  0  0  0  0
  -30.2762  -17.5984   22.3546 C   0  0  0  0  0  0
  -30.0562  -16.8158   21.0434 C   0  0  0  0  0  0
  -28.5044  -25.3729   19.8627 C   0  0  0  0  0  0
  -26.5113  -21.0243   19.0882 N   0  0  0  0  0  0
  -26.5063  -20.3289   20.2440 N   0  0  0  0  0  0
  -29.9779  -15.3676   21.2452 N   0  0  0  0  0  0
  -31.4737  -12.3798   19.1303 H   0  0  0  0  0  0
  -30.3185  -11.2632   19.8000 H   0  0  0  0  0  0
  -29.7364  -11.7943   17.4178 H   0  0  0  0  0  0
  -29.6864  -13.4972   17.7887 H   0  0  0  0  0  0
  -27.8074  -11.3243   18.7823 H   0  0  0  0  0  0
  -27.3770  -12.6890   17.7821 H   0  0  0  0  0  0
  -27.7274  -14.2544   19.6198 H   0  0  0  0  0  0
  -28.6698  -11.8850   21.3027 H   0  0  0  0  0  0
  -28.4638  -13.4934   21.9046 H   0  0  0  0  0  0
  -25.2742   -9.5732   22.4749 H   0  0  0  0  0  0
  -24.0032   -7.4636   22.7455 H   0  0  0  0  0  0
  -21.0825   -8.8740   19.8944 H   0  0  0  0  0  0
  -22.3642  -10.9670   19.6160 H   0  0  0  0  0  0
  -21.2000   -7.6142   23.9728 H   0  0  0  0  0  0
  -21.1491   -6.0517   25.9093 H   0  0  0  0  0  0
  -22.0597   -2.7607   23.2842 H   0  0  0  0  0  0
  -22.4129  -11.9925   22.4805 H   0  0  0  0  0  0
  -21.1129  -13.1294   22.2567 H   0  0  0  0  0  0
  -24.6726  -15.8418   20.5131 H   0  0  0  0  0  0
  -26.2933  -15.6186   20.0852 H   0  0  0  0  0  0
  -26.7071  -32.5516   23.1118 H   0  0  0  0  0  0
  -25.0080  -33.9781   25.0504 H   0  0  0  0  0  0
  -22.6857  -31.3039   21.4099 H   0  0  0  0  0  0
  -23.3773  -35.9628   23.3299 H   0  0  0  0  0  0
  -24.3596  -36.8917   22.2055 H   0  0  0  0  0  0
  -23.7225  -37.6514   23.6639 H   0  0  0  0  0  0
  -26.0344  -31.6008   20.5910 H   0  0  0  0  0  0
  -26.8136  -30.8882   21.9751 H   0  0  0  0  0  0
  -28.0968  -29.1327   21.1324 H   0  0  0  0  0  0
  -26.0368  -25.9595   19.0393 H   0  0  0  0  0  0
  -23.9725  -27.2612   19.0789 H   0  0  0  0  0  0
  -23.6880  -30.5720   19.3972 H   0  0  0  0  0  0
  -22.7308  -29.2078   19.8953 H   0  0  0  0  0  0
  -25.1279  -36.1988   25.0842 H   0  0  0  0  0  0
  -20.9949  -28.3132   24.1461 H   0  0  0  0  0  0
  -20.5626  -26.2200   23.3590 H   0  0  0  0  0  0
  -21.6613  -26.7371   22.1202 H   0  0  0  0  0  0
  -19.6871  -25.6278   21.1204 H   0  0  0  0  0  0
  -19.6672  -27.3193   20.6761 H   0  0  0  0  0  0
  -17.4183  -26.6681   21.4016 H   0  0  0  0  0  0
  -18.0287  -26.0021   22.8996 H   0  0  0  0  0  0
  -19.7915  -30.7236   24.2269 H   0  0  0  0  0  0
  -17.4996  -31.6251   24.5114 H   0  0  0  0  0  0
  -15.5334  -30.2930   23.7683 H   0  0  0  0  0  0
  -15.8665  -28.0773   22.7094 H   0  0  0  0  0  0
  -24.5912  -30.7037   25.7814 H   0  0  0  0  0  0
  -24.8944  -32.2829   26.4951 H   0  0  0  0  0  0
  -25.8113  -30.8822   27.0206 H   0  0  0  0  0  0
  -26.2813  -29.6794   24.1177 H   0  0  0  0  0  0
  -27.4161  -29.7300   25.4481 H   0  0  0  0  0  0
  -27.8599  -30.4409   23.9136 H   0  0  0  0  0  0
  -27.2696  -33.3609   26.2042 H   0  0  0  0  0  0
  -28.3837  -32.6853   25.0249 H   0  0  0  0  0  0
  -28.0746  -31.8416   26.5341 H   0  0  0  0  0  0
  -28.2607  -38.0100   24.7535 H   0  0  0  0  0  0
  -28.1088  -36.2630   24.6262 H   0  0  0  0  0  0
  -27.2305  -37.1404   25.8871 H   0  0  0  0  0  0
  -20.9282  -29.8716   21.6984 H   0  0  0  0  0  0
  -26.0203  -38.2882   24.1417 H   0  0  0  0  0  0
  -27.4101  -22.8048   18.5459 H   0  0  0  0  0  0
  -25.3695  -18.9222   21.3139 H   0  0  0  0  0  0
  -26.3920  -18.2563   20.0237 H   0  0  0  0  0  0
  -24.8997  -19.1264   19.6224 H   0  0  0  0  0  0
  -29.6267  -23.1399   20.9664 H   0  0  0  0  0  0
  -28.6633  -23.0132   22.3876 H   0  0  0  0  0  0
  -26.4461  -20.2412   23.0405 H   0  0  0  0  0  0
  -27.9435  -21.0738   23.2518 H   0  0  0  0  0  0
  -28.4631  -25.2145   21.9735 H   0  0  0  0  0  0
  -26.9753  -24.6794   21.2668 H   0  0  0  0  0  0
  -27.6375  -18.2732   22.0491 H   0  0  0  0  0  0
  -28.0508  -18.6213   23.6890 H   0  0  0  0  0  0
  -30.1778  -19.6448   23.0549 H   0  0  0  0  0  0
  -29.8241  -19.4851   21.3558 H   0  0  0  0  0  0
  -29.8744  -17.0503   23.2088 H   0  0  0  0  0  0
  -31.3506  -17.6728   22.5348 H   0  0  0  0  0  0
  -30.8185  -17.0837   20.3088 H   0  0  0  0  0  0
  -29.1067  -17.1123   20.5963 H   0  0  0  0  0  0
  -27.9622  -25.0479   18.9757 H   0  0  0  0  0  0
  -29.5513  -25.1384   19.6653 H   0  0  0  0  0  0
  -29.1312  -15.0290   21.6763 H   0  0  0  0  0  0
  1 25  1  0  0  0
  1 30  2  0  0  0
  1 85  1  0  0  0
  2  3  1  0  0  0
  2 25  1  0  0  0
  2 86  1  0  0  0
  2 87  1  0  0  0
  3  4  1  0  0  0
  3 88  1  0  0  0
  3 89  1  0  0  0
  4  5  1  0  0  0
  4 90  1  0  0  0
  4 91  1  0  0  0
  5  6  1  0  0  0
  5 26  1  0  0  0
  5 92  1  0  0  0
  6 25  1  0  0  0
  6 93  1  0  0  0
  6 94  1  0  0  0
  7  8  2  0  0  0
  7 26  1  0  0  0
  7 29  1  0  0  0
  8  9  1  0  0  0
  8 22  1  0  0  0
  9 10  1  0  0  0
  9 27  2  0  0  0
 10 11  2  0  0  0
 10 15  1  0  0  0
 11 12  1  0  0  0
 11 95  1  0  0  0
 12 13  2  0  0  0
 12 96  1  0  0  0
 13 14  1  0  0  0
 13 31  1  0  0  0
 14 15  2  0  0  0
 14 97  1  0  0  0
 15 98  1  0  0  0
 16 17  2  0  0  0
 16 21  1  0  0  0
 16 31  1  0  0  0
 17 18  1  0  0  0
 17 99  1  0  0  0
 18 19  2  0  0  0
 18100  1  0  0  0
 19 20  1  0  0  0
 19 24  1  0  0  0
 20 21  2  0  0  0
 20101  1  0  0  0
 21 23  1  0  0  0
 22 28  1  0  0  0
 22 32  2  0  0  0
 26 27  1  0  0  0
 28102  1  0  0  0
 28103  1  0  0  0
 29104  1  0  0  0
 29105  1  0  0  0
 33 34  1  0  0  0
 33 66  1  0  0  0
 33 70  2  0  0  0
 34 36  1  0  0  0
 34 59  1  0  0  0
 34106  1  0  0  0
 35 44  2  0  0  0
 35 45  1  0  0  0
 35 68  1  0  0  0
 36 56  1  0  0  0
 36107  1  0  0  0
 37 39  1  0  0  0
 37 47  1  0  0  0
 37 66  1  0  0  0
 37108  1  0  0  0
 38 43  2  0  0  0
 38 46  1  0  0  0
 38 47  1  0  0  0
 39 64  1  0  0  0
 39 67  2  0  0  0
 40 52  1  0  0  0
 40 53  2  0  0  0
 40 58  1  0  0  0
 41109  1  0  0  0
 41110  1  0  0  0
 41111  1  0  0  0
 41 48  1  0  0  0
 42 43  1  0  0  0
 42 66  1  0  0  0
 42112  1  0  0  0
 42113  1  0  0  0
 43 44  1  0  0  0
 44114  1  0  0  0
 45 46  2  0  0  0
 45115  1  0  0  0
 46116  1  0  0  0
 47117  1  0  0  0
 47118  1  0  0  0
 48 56  1  0  0  0
 48 65  1  0  0  0
 48119  1  0  0  0
 49 50  1  0  0  0
 49 53  1  0  0  0
 49 64  1  0  0  0
 49120  1  0  0  0
 50 51  1  0  0  0
 50121  1  0  0  0
 50122  1  0  0  0
 51 52  1  0  0  0
 51123  1  0  0  0
 51124  1  0  0  0
 52125  1  0  0  0
 52126  1  0  0  0
 53 54  1  0  0  0
 54 55  2  0  0  0
 54127  1  0  0  0
 55 57  1  0  0  0
 55128  1  0  0  0
 56 69  2  0  0  0
 57 58  2  0  0  0
 57129  1  0  0  0
 58130  1  0  0  0
 59 60  1  0  0  0
 59 61  1  0  0  0
 59 62  1  0  0  0
 60131  1  0  0  0
 60132  1  0  0  0
 60133  1  0  0  0
 61134  1  0  0  0
 61135  1  0  0  0
 61136  1  0  0  0
 62137  1  0  0  0
 62138  1  0  0  0
 62139  1  0  0  0
 63 65  1  0  0  0
 63140  1  0  0  0
 63141  1  0  0  0
 63142  1  0  0  0
 64143  1  0  0  0
 65144  1  0  0  0
 68 82  1  0  0  0
 71 72  1  0  0  0
 71 83  2  0  0  0
 71145  1  0  0  0
 72 73  2  0  0  0
 72 75  1  0  0  0
 73 76  1  0  0  0
 73 84  1  0  0  0
 74 84  1  0  0  0
 74146  1  0  0  0
 74147  1  0  0  0
 74148  1  0  0  0
 75 77  1  0  0  0
 75149  1  0  0  0
 75150  1  0  0  0
 76 78  1  0  0  0
 76151  1  0  0  0
 76152  1  0  0  0
 77 82  1  0  0  0
 77153  1  0  0  0
 77154  1  0  0  0
 78 79  1  0  0  0
 78155  1  0  0  0
 78156  1  0  0  0
 79 80  1  0  0  0
 79157  1  0  0  0
 79158  1  0  0  0
 80 81  1  0  0  0
 80159  1  0  0  0
 80160  1  0  0  0
 81 85  1  0  0  0
 81161  1  0  0  0
 81162  1  0  0  0
 82163  1  0  0  0
 82164  1  0  0  0
 83 84  1  0  0  0
 85165  1  0  0  0
M  ISO  4   1 100  68 101  82 101  85 100
M  END
> <chiral flag>
0

> <version>
0

> <s_m_source_file>
/data/baiqing/PycharmProjects/Reinvent-master-3.2/result/LINK_invent/BTK/process_docking_weight1_custom_sum_contain_oxygen_bond_distance_aromatic_linkinvent_7_9_3/rearranged_h_0038.sdf

> <i_m_source_file_index>
65

> <r_mmod_Potential_Energy-OPLS-2005>
-99.6567535400391

> <r_mmod_Stretch_Energy-OPLS-2005>
33.2622756958008

> <r_mmod_Bend_Energy-OPLS-2005>
103.843254089355

> <r_mmod_Torsional_Energy-OPLS-2005>
217.414337158203

> <r_mmod_Improper_Torsional_Energy-OPLS-2005>
4.57932901382446

> <r_mmod_Van_der_Waal_Energy-OPLS-2005>
122.361907958984

> <r_mmod_Electrostatic_Energy-OPLS-2005>
-368.564270019531

> <r_mmod_Solvation_Energy-OPLS-2005>
-221.892120361328

> <b_mmod_Minimization_Converged-OPLS-2005>
0

> <r_mmod_RMS_Derivative-OPLS-2005>
2.58718299865723

$$$$
67
                    3D
 Structure written by MMmdl.
157165  0  0  1  0            999 V2000
  -30.6945  -14.4718   20.6013 C   0  0  0  0  0  0
  -30.4238  -12.3253   19.3991 C   0  0  0  0  0  0
  -29.4809  -12.5104   18.1934 C   0  0  0  0  0  0
  -28.0056  -12.3668   18.6154 C   0  0  0  0  0  0
  -27.6587  -13.2045   19.8737 C   0  0  2  0  0  0
  -28.7037  -12.9714   20.9852 C   0  0  0  0  0  0
  -25.2584  -13.8163   20.5689 C   0  0  0  0  0  0
  -24.1835  -13.0434   20.9191 C   0  0  0  0  0  0
  -24.6395  -11.6908   20.8765 C   0  0  0  0  0  0
  -23.9071  -10.4290   21.0433 C   0  0  0  0  0  0
  -24.3621   -9.4198   21.9206 C   0  0  0  0  0  0
  -23.6292   -8.2235   22.0765 C   0  0  0  0  0  0
  -22.4274   -8.0287   21.3551 C   0  0  0  0  0  0
  -21.9916   -9.0264   20.4657 C   0  0  0  0  0  0
  -22.7247  -10.2146   20.3073 C   0  0  0  0  0  0
  -21.6849   -6.0743   22.5277 C   0  0  0  0  0  0
  -21.4010   -6.5644   23.8214 C   0  0  0  0  0  0
  -21.3667   -5.6796   24.9180 C   0  0  0  0  0  0
  -21.6040   -4.3056   24.7223 C   0  0  0  0  0  0
  -21.8820   -3.8155   23.4341 C   0  0  0  0  0  0
  -21.9188   -4.6971   22.3397 C   0  0  0  0  0  0
  -22.7861  -13.5239   21.1840 C   0  0  0  0  0  0
  -22.1658   -4.2156   21.0972 F   0  0  0  0  0  0
  -21.5632   -3.4541   25.7738 F   0  0  0  0  0  0
  -30.0270  -13.2989   20.4273 N   0  0  0  0  0  0
  -26.3014  -12.9327   20.3377 N   0  0  0  0  0  0
  -25.9319  -11.6493   20.5788 N   0  0  0  0  0  0
  -22.0511  -12.8227   22.0406 N   0  0  0  0  0  0
  -25.4311  -15.1880   20.4122 N   0  0  0  0  0  0
  -31.8187  -14.6838   20.1370 O   0  0  0  0  0  0
  -21.6634   -6.8889   21.4240 O   0  0  0  0  0  0
  -22.3539  -14.5542   20.6692 O   0  0  0  0  0  0
  -24.6178  -31.8660   23.2085 C   0  0  0  0  0  0
  -25.9041  -32.4821   23.8399 C   0  0  1  0  0  0
  -27.2259  -27.3987   20.0940 C   0  0  0  0  0  0
  -25.5867  -33.8622   24.2310 N   0  0  0  0  0  0
  -23.4078  -30.4895   21.5509 C   0  0  2  0  0  0
  -24.8508  -28.9566   20.1126 C   0  0  0  0  0  0
  -22.7454  -29.4639   22.4984 C   0  0  0  0  0  0
  -18.0284  -28.1381   22.8479 C   0  0  0  0  0  0
  -24.1484  -36.7337   23.2635 C   0  0  0  0  0  0
  -25.9402  -30.8207   21.3674 C   0  0  0  0  0  0
  -26.0155  -29.4547   20.7081 C   0  0  0  0  0  0
  -27.2065  -28.6851   20.6912 C   0  0  0  0  0  0
  -26.0334  -26.9222   19.4973 C   0  0  0  0  0  0
  -24.8556  -27.6906   19.5052 C   0  0  0  0  0  0
  -23.6173  -29.8297   20.1634 C   0  0  0  0  0  0
  -25.4103  -36.3118   24.0332 C   0  0  1  0  0  0
  -20.5872  -28.3676   23.1310 C   0  0  2  0  0  0
  -20.6782  -26.9415   22.5409 C   0  0  0  0  0  0
  -19.5762  -26.6389   21.5204 C   0  0  0  0  0  0
  -18.1939  -26.7918   22.1616 C   0  0  0  0  0  0
  -19.1529  -28.8842   23.2887 C   0  0  0  0  0  0
  -18.9456  -30.1440   23.8922 C   0  0  0  0  0  0
  -17.6459  -30.6586   24.0555 C   0  0  0  0  0  0
  -25.9032  -34.9482   23.5131 C   0  0  0  0  0  0
  -16.5352  -29.9091   23.6301 C   0  0  0  0  0  0
  -16.7271  -28.6497   23.0331 C   0  0  0  0  0  0
  -26.4462  -31.6610   25.0731 C   0  0  0  0  0  0
  -25.3720  -31.3673   26.1466 C   0  0  0  0  0  0
  -27.0303  -30.3059   24.6110 C   0  0  0  0  0  0
  -27.6061  -32.4327   25.7480 C   0  0  0  0  0  0
  -27.5605  -37.1806   24.8462 C   0  0  0  0  0  0
  -21.4179  -29.3027   22.3723 N   0  0  0  0  0  0
  -26.4307  -37.3794   23.9406 N   0  0  0  0  0  0
  -24.6735  -31.0742   22.0999 N   0  0  0  0  0  0
  -23.4226  -28.8174   23.3021 O   0  0  0  0  0  0
  -28.3891  -26.6417   20.1062 O   0  0  0  0  0  0
  -26.5631  -34.8943   22.4717 O   0  0  0  0  0  0
  -23.5357  -32.1422   23.7459 O   0  0  0  0  0  0
  -29.6195  -20.8512   19.3511 C   0  0  0  0  0  0
  -29.3942  -20.1802   20.5798 C   0  0  0  0  0  0
  -29.2382  -22.2424   21.6422 C   0  0  0  0  0  0
  -29.4709  -22.9193   20.4111 C   0  0  0  0  0  0
  -28.9876  -22.9834   22.9435 C   0  0  0  0  0  0
  -29.2939  -18.6480   20.6842 C   0  0  0  0  0  0
  -29.5794  -24.4553   20.3120 C   0  0  0  0  0  0
  -30.6283  -17.9265   21.0091 C   0  0  0  0  0  0
  -30.5521  -16.6411   21.8858 C   0  0  0  0  0  0
  -28.2565  -25.2012   20.0013 C   0  0  0  0  0  0
  -29.6595  -22.2098   19.2650 N   0  0  0  0  0  0
  -29.2122  -20.8860   21.7256 N   0  0  0  0  0  0
  -30.0090  -15.4257   21.2604 N   0  0  0  0  0  0
  -31.4625  -12.4490   19.0878 H   0  0  0  0  0  0
  -30.3483  -11.3122   19.7955 H   0  0  0  0  0  0
  -29.7154  -11.7851   17.4134 H   0  0  0  0  0  0
  -29.6370  -13.4955   17.7519 H   0  0  0  0  0  0
  -27.8174  -11.3107   18.8123 H   0  0  0  0  0  0
  -27.3475  -12.6424   17.7900 H   0  0  0  0  0  0
  -27.7062  -14.2530   19.5800 H   0  0  0  0  0  0
  -28.6916  -11.9277   21.3017 H   0  0  0  0  0  0
  -28.4598  -13.5443   21.8803 H   0  0  0  0  0  0
  -25.2776   -9.5665   22.4776 H   0  0  0  0  0  0
  -24.0000   -7.4628   22.7492 H   0  0  0  0  0  0
  -21.0845   -8.8803   19.8969 H   0  0  0  0  0  0
  -22.3724  -10.9693   19.6187 H   0  0  0  0  0  0
  -21.2009   -7.6156   23.9721 H   0  0  0  0  0  0
  -21.1484   -6.0529   25.9083 H   0  0  0  0  0  0
  -22.0593   -2.7615   23.2840 H   0  0  0  0  0  0
  -22.4135  -11.9871   22.4751 H   0  0  0  0  0  0
  -21.1154  -13.1267   22.2673 H   0  0  0  0  0  0
  -24.6680  -15.8459   20.5311 H   0  0  0  0  0  0
  -26.2855  -15.6277   20.0933 H   0  0  0  0  0  0
  -26.7115  -32.5527   23.1170 H   0  0  0  0  0  0
  -24.9934  -33.9783   25.0400 H   0  0  0  0  0  0
  -22.6944  -31.3049   21.4177 H   0  0  0  0  0  0
  -23.3748  -35.9668   23.3281 H   0  0  0  0  0  0
  -24.3581  -36.8976   22.2051 H   0  0  0  0  0  0
  -23.7248  -37.6534   23.6686 H   0  0  0  0  0  0
  -26.0555  -31.5905   20.6034 H   0  0  0  0  0  0
  -26.8256  -30.8696   21.9895 H   0  0  0  0  0  0
  -28.1071  -29.0639   21.1550 H   0  0  0  0  0  0
  -25.9847  -25.9556   19.0189 H   0  0  0  0  0  0
  -23.9564  -27.2993   19.0471 H   0  0  0  0  0  0
  -23.7332  -30.6105   19.4105 H   0  0  0  0  0  0
  -22.7377  -29.2576   19.8628 H   0  0  0  0  0  0
  -25.1282  -36.1979   25.0825 H   0  0  0  0  0  0
  -20.9941  -28.3263   24.1437 H   0  0  0  0  0  0
  -20.5683  -26.2301   23.3598 H   0  0  0  0  0  0
  -21.6663  -26.7474   22.1211 H   0  0  0  0  0  0
  -19.6931  -25.6297   21.1250 H   0  0  0  0  0  0
  -19.6701  -27.3189   20.6725 H   0  0  0  0  0  0
  -17.4202  -26.6629   21.4027 H   0  0  0  0  0  0
  -18.0349  -26.0075   22.9029 H   0  0  0  0  0  0
  -19.7941  -30.7213   24.2353 H   0  0  0  0  0  0
  -17.5023  -31.6271   24.5150 H   0  0  0  0  0  0
  -15.5350  -30.2997   23.7620 H   0  0  0  0  0  0
  -15.8668  -28.0826   22.7045 H   0  0  0  0  0  0
  -24.5924  -30.7005   25.7757 H   0  0  0  0  0  0
  -24.8871  -32.2796   26.4955 H   0  0  0  0  0  0
  -25.8076  -30.8807   27.0205 H   0  0  0  0  0  0
  -26.2843  -29.6790   24.1208 H   0  0  0  0  0  0
  -27.4104  -29.7334   25.4578 H   0  0  0  0  0  0
  -27.8676  -30.4369   23.9251 H   0  0  0  0  0  0
  -27.2727  -33.3642   26.2079 H   0  0  0  0  0  0
  -28.3862  -32.6845   25.0279 H   0  0  0  0  0  0
  -28.0741  -31.8416   26.5359 H   0  0  0  0  0  0
  -28.2591  -38.0138   24.7559 H   0  0  0  0  0  0
  -28.1148  -36.2674   24.6245 H   0  0  0  0  0  0
  -27.2340  -37.1386   25.8869 H   0  0  0  0  0  0
  -20.9362  -29.8765   21.6944 H   0  0  0  0  0  0
  -26.0209  -38.2884   24.1401 H   0  0  0  0  0  0
  -29.7651  -20.2990   18.4326 H   0  0  0  0  0  0
  -28.1168  -23.6346   22.8583 H   0  0  0  0  0  0
  -29.8472  -23.5942   23.2187 H   0  0  0  0  0  0
  -28.7999  -22.2871   23.7620 H   0  0  0  0  0  0
  -28.8785  -18.2445   19.7601 H   0  0  0  0  0  0
  -28.5589  -18.4179   21.4568 H   0  0  0  0  0  0
  -30.3054  -24.6952   19.5366 H   0  0  0  0  0  0
  -30.0058  -24.8471   21.2357 H   0  0  0  0  0  0
  -31.2355  -18.6312   21.5780 H   0  0  0  0  0  0
  -31.1911  -17.7409   20.0931 H   0  0  0  0  0  0
  -29.9552  -16.8469   22.7756 H   0  0  0  0  0  0
  -31.5494  -16.4091   22.2639 H   0  0  0  0  0  0
  -27.4959  -24.8611   20.7058 H   0  0  0  0  0  0
  -27.9254  -24.9152   19.0022 H   0  0  0  0  0  0
  -29.0695  -15.1701   21.5260 H   0  0  0  0  0  0
  1 25  1  0  0  0
  1 30  2  0  0  0
  1 83  1  0  0  0
  2  3  1  0  0  0
  2 25  1  0  0  0
  2 84  1  0  0  0
  2 85  1  0  0  0
  3  4  1  0  0  0
  3 86  1  0  0  0
  3 87  1  0  0  0
  4  5  1  0  0  0
  4 88  1  0  0  0
  4 89  1  0  0  0
  5  6  1  0  0  0
  5 26  1  0  0  0
  5 90  1  0  0  0
  6 25  1  0  0  0
  6 91  1  0  0  0
  6 92  1  0  0  0
  7  8  2  0  0  0
  7 26  1  0  0  0
  7 29  1  0  0  0
  8  9  1  0  0  0
  8 22  1  0  0  0
  9 10  1  0  0  0
  9 27  2  0  0  0
 10 11  2  0  0  0
 10 15  1  0  0  0
 11 12  1  0  0  0
 11 93  1  0  0  0
 12 13  2  0  0  0
 12 94  1  0  0  0
 13 14  1  0  0  0
 13 31  1  0  0  0
 14 15  2  0  0  0
 14 95  1  0  0  0
 15 96  1  0  0  0
 16 17  2  0  0  0
 16 21  1  0  0  0
 16 31  1  0  0  0
 17 18  1  0  0  0
 17 97  1  0  0  0
 18 19  2  0  0  0
 18 98  1  0  0  0
 19 20  1  0  0  0
 19 24  1  0  0  0
 20 21  2  0  0  0
 20 99  1  0  0  0
 21 23  1  0  0  0
 22 28  1  0  0  0
 22 32  2  0  0  0
 26 27  1  0  0  0
 28100  1  0  0  0
 28101  1  0  0  0
 29102  1  0  0  0
 29103  1  0  0  0
 33 34  1  0  0  0
 33 66  1  0  0  0
 33 70  2  0  0  0
 34 36  1  0  0  0
 34 59  1  0  0  0
 34104  1  0  0  0
 35 44  2  0  0  0
 35 45  1  0  0  0
 35 68  1  0  0  0
 36 56  1  0  0  0
 36105  1  0  0  0
 37 39  1  0  0  0
 37 47  1  0  0  0
 37 66  1  0  0  0
 37106  1  0  0  0
 38 43  2  0  0  0
 38 46  1  0  0  0
 38 47  1  0  0  0
 39 64  1  0  0  0
 39 67  2  0  0  0
 40 52  1  0  0  0
 40 53  2  0  0  0
 40 58  1  0  0  0
 41107  1  0  0  0
 41108  1  0  0  0
 41109  1  0  0  0
 41 48  1  0  0  0
 42 43  1  0  0  0
 42 66  1  0  0  0
 42110  1  0  0  0
 42111  1  0  0  0
 43 44  1  0  0  0
 44112  1  0  0  0
 45 46  2  0  0  0
 45113  1  0  0  0
 46114  1  0  0  0
 47115  1  0  0  0
 47116  1  0  0  0
 48 56  1  0  0  0
 48 65  1  0  0  0
 48117  1  0  0  0
 49 50  1  0  0  0
 49 53  1  0  0  0
 49 64  1  0  0  0
 49118  1  0  0  0
 50 51  1  0  0  0
 50119  1  0  0  0
 50120  1  0  0  0
 51 52  1  0  0  0
 51121  1  0  0  0
 51122  1  0  0  0
 52123  1  0  0  0
 52124  1  0  0  0
 53 54  1  0  0  0
 54 55  2  0  0  0
 54125  1  0  0  0
 55 57  1  0  0  0
 55126  1  0  0  0
 56 69  2  0  0  0
 57 58  2  0  0  0
 57127  1  0  0  0
 58128  1  0  0  0
 59 60  1  0  0  0
 59 61  1  0  0  0
 59 62  1  0  0  0
 60129  1  0  0  0
 60130  1  0  0  0
 60131  1  0  0  0
 61132  1  0  0  0
 61133  1  0  0  0
 61134  1  0  0  0
 62135  1  0  0  0
 62136  1  0  0  0
 62137  1  0  0  0
 63 65  1  0  0  0
 63138  1  0  0  0
 63139  1  0  0  0
 63140  1  0  0  0
 64141  1  0  0  0
 65142  1  0  0  0
 68 80  1  0  0  0
 71 72  2  0  0  0
 71 81  1  0  0  0
 71143  1  0  0  0
 72 76  1  0  0  0
 72 82  1  0  0  0
 73 74  1  0  0  0
 73 75  1  0  0  0
 73 82  2  0  0  0
 74 77  1  0  0  0
 74 81  2  0  0  0
 75144  1  0  0  0
 75145  1  0  0  0
 75146  1  0  0  0
 76 78  1  0  0  0
 76147  1  0  0  0
 76148  1  0  0  0
 77 80  1  0  0  0
 77149  1  0  0  0
 77150  1  0  0  0
 78 79  1  0  0  0
 78151  1  0  0  0
 78152  1  0  0  0
 79 83  1  0  0  0
 79153  1  0  0  0
 79154  1  0  0  0
 80155  1  0  0  0
 80156  1  0  0  0
 83157  1  0  0  0
M  ISO  4   1 100  68 101  80 101  83 100
M  END
> <chiral flag>
0

> <version>
0

> <s_m_source_file>
/data/baiqing/PycharmProjects/Reinvent-master-3.2/result/LINK_invent/BTK/process_docking_weight1_custom_sum_contain_oxygen_bond_distance_aromatic_linkinvent_7_9_3/rearranged_h_0038.sdf

> <i_m_source_file_index>
66

> <r_mmod_Potential_Energy-OPLS-2005>
-52.2802467346191

> <r_mmod_Stretch_Energy-OPLS-2005>
43.9238395690918

> <r_mmod_Bend_Energy-OPLS-2005>
103.020957946777

> <r_mmod_Torsional_Energy-OPLS-2005>
192.534652709961

> <r_mmod_Improper_Torsional_Energy-OPLS-2005>
2.65548205375671

> <r_mmod_Van_der_Waal_Energy-OPLS-2005>
153.46044921875

> <r_mmod_Electrostatic_Energy-OPLS-2005>
-340.136383056641

> <r_mmod_Solvation_Energy-OPLS-2005>
-223.224716186523

> <b_mmod_Minimization_Converged-OPLS-2005>
0

> <r_mmod_RMS_Derivative-OPLS-2005>
2.36673736572266

$$$$
68
                    3D
 Structure written by MMmdl.
161169  0  0  1  0            999 V2000
  -30.7280  -14.3699   20.6865 C   0  0  0  0  0  0
  -30.4168  -12.2905   19.3905 C   0  0  0  0  0  0
  -29.4807  -12.5171   18.1877 C   0  0  0  0  0  0
  -28.0046  -12.3684   18.6052 C   0  0  0  0  0  0
  -27.6603  -13.1936   19.8723 C   0  0  2  0  0  0
  -28.6915  -12.9208   20.9861 C   0  0  0  0  0  0
  -25.2580  -13.8139   20.5651 C   0  0  0  0  0  0
  -24.1815  -13.0439   20.9157 C   0  0  0  0  0  0
  -24.6344  -11.6892   20.8698 C   0  0  0  0  0  0
  -23.9004  -10.4284   21.0378 C   0  0  0  0  0  0
  -24.3572   -9.4222   21.9177 C   0  0  0  0  0  0
  -23.6258   -8.2258   22.0760 C   0  0  0  0  0  0
  -22.4251   -8.0270   21.3544 C   0  0  0  0  0  0
  -21.9874   -9.0222   20.4641 C   0  0  0  0  0  0
  -22.7178  -10.2116   20.3039 C   0  0  0  0  0  0
  -21.6850   -6.0723   22.5284 C   0  0  0  0  0  0
  -21.4005   -6.5628   23.8219 C   0  0  0  0  0  0
  -21.3652   -5.6777   24.9179 C   0  0  0  0  0  0
  -21.6040   -4.3038   24.7229 C   0  0  0  0  0  0
  -21.8818   -3.8131   23.4348 C   0  0  0  0  0  0
  -21.9188   -4.6946   22.3408 C   0  0  0  0  0  0
  -22.7849  -13.5249   21.1845 C   0  0  0  0  0  0
  -22.1658   -4.2136   21.0981 F   0  0  0  0  0  0
  -21.5628   -3.4522   25.7743 F   0  0  0  0  0  0
  -30.0321  -13.2284   20.4545 N   0  0  0  0  0  0
  -26.2980  -12.9280   20.3309 N   0  0  0  0  0  0
  -25.9255  -11.6445   20.5699 N   0  0  0  0  0  0
  -22.0492  -12.8242   22.0407 N   0  0  0  0  0  0
  -25.4335  -15.1860   20.4092 N   0  0  0  0  0  0
  -31.7727  -14.6616   20.0936 O   0  0  0  0  0  0
  -21.6636   -6.8853   21.4245 O   0  0  0  0  0  0
  -22.3542  -14.5562   20.6701 O   0  0  0  0  0  0
  -24.6121  -31.8689   23.2131 C   0  0  0  0  0  0
  -25.9048  -32.4800   23.8417 C   0  0  1  0  0  0
  -27.2410  -27.4560   20.0986 C   0  0  0  0  0  0
  -25.5958  -33.8596   24.2376 N   0  0  0  0  0  0
  -23.3977  -30.4940   21.5481 C   0  0  2  0  0  0
  -24.8444  -28.9562   20.1153 C   0  0  0  0  0  0
  -22.7379  -29.4691   22.4978 C   0  0  0  0  0  0
  -18.0266  -28.1392   22.8487 C   0  0  0  0  0  0
  -24.1501  -36.7285   23.2659 C   0  0  0  0  0  0
  -25.9227  -30.8406   21.3623 C   0  0  0  0  0  0
  -25.9983  -29.4738   20.7151 C   0  0  0  0  0  0
  -27.1928  -28.7253   20.7122 C   0  0  0  0  0  0
  -26.0678  -26.9410   19.4999 C   0  0  0  0  0  0
  -24.8726  -27.6867   19.5096 C   0  0  0  0  0  0
  -23.6062  -29.8224   20.1622 C   0  0  0  0  0  0
  -25.4125  -36.3085   24.0357 C   0  0  1  0  0  0
  -20.5854  -28.3691   23.1288 C   0  0  2  0  0  0
  -20.6760  -26.9430   22.5400 C   0  0  0  0  0  0
  -19.5742  -26.6384   21.5205 C   0  0  0  0  0  0
  -18.1908  -26.7945   22.1595 C   0  0  0  0  0  0
  -19.1521  -28.8857   23.2877 C   0  0  0  0  0  0
  -18.9458  -30.1459   23.8887 C   0  0  0  0  0  0
  -17.6470  -30.6604   24.0566 C   0  0  0  0  0  0
  -25.9043  -34.9449   23.5149 C   0  0  0  0  0  0
  -16.5352  -29.9106   23.6343 C   0  0  0  0  0  0
  -16.7259  -28.6517   23.0368 C   0  0  0  0  0  0
  -26.4519  -31.6540   25.0712 C   0  0  0  0  0  0
  -25.3838  -31.3551   26.1484 C   0  0  0  0  0  0
  -27.0368  -30.3014   24.6017 C   0  0  0  0  0  0
  -27.6090  -32.4263   25.7480 C   0  0  0  0  0  0
  -27.5566  -37.1825   24.8506 C   0  0  0  0  0  0
  -21.4118  -29.3054   22.3689 N   0  0  0  0  0  0
  -26.4314  -37.3763   23.9400 N   0  0  0  0  0  0
  -24.6615  -31.0831   22.0999 N   0  0  0  0  0  0
  -23.4156  -28.8261   23.3040 O   0  0  0  0  0  0
  -28.4495  -26.7971   20.1186 O   0  0  0  0  0  0
  -26.5540  -34.8883   22.4671 O   0  0  0  0  0  0
  -23.5322  -32.1447   23.7538 O   0  0  0  0  0  0
  -28.2295  -22.6792   21.8736 C   0  0  0  0  0  0
  -27.2785  -22.1809   19.7123 C   0  0  0  0  0  0
  -27.6406  -21.7512   20.9996 C   0  0  0  0  0  0
  -28.5074  -23.9773   21.4053 C   0  0  0  0  0  0
  -28.1705  -24.3037   20.0681 C   0  0  0  0  0  0
  -29.1988  -24.9572   22.3380 C   0  0  0  0  0  0
  -27.4962  -20.2970   21.4170 C   0  0  0  0  0  0
  -28.6375  -25.5916   19.3804 C   0  0  0  0  0  0
  -28.7239  -19.4951   20.9501 C   0  0  0  0  0  0
  -28.9588  -18.1593   21.6761 C   0  0  0  0  0  0
  -30.3770  -17.6375   21.3772 C   0  0  0  0  0  0
  -30.7991  -16.3827   22.1600 C   0  0  0  0  0  0
  -27.5385  -23.4242   19.2576 N   0  0  0  0  0  0
  -30.2024  -15.1609   21.6322 N   0  0  0  0  0  0
  -31.4579  -12.4083   19.0860 H   0  0  0  0  0  0
  -30.3303  -11.2651   19.7539 H   0  0  0  0  0  0
  -29.7158  -11.8095   17.3912 H   0  0  0  0  0  0
  -29.6479  -13.5121   17.7720 H   0  0  0  0  0  0
  -27.8176  -11.3097   18.7919 H   0  0  0  0  0  0
  -27.3494  -12.6484   17.7806 H   0  0  0  0  0  0
  -27.7231  -14.2478   19.6009 H   0  0  0  0  0  0
  -28.6591  -11.8703   21.2813 H   0  0  0  0  0  0
  -28.4281  -13.4750   21.8866 H   0  0  0  0  0  0
  -25.2711   -9.5738   22.4748 H   0  0  0  0  0  0
  -23.9976   -7.4672   22.7499 H   0  0  0  0  0  0
  -21.0810   -8.8703   19.8946 H   0  0  0  0  0  0
  -22.3599  -10.9637   19.6139 H   0  0  0  0  0  0
  -21.1989   -7.6135   23.9718 H   0  0  0  0  0  0
  -21.1465   -6.0504   25.9083 H   0  0  0  0  0  0
  -22.0589   -2.7595   23.2850 H   0  0  0  0  0  0
  -22.4099  -11.9894   22.4782 H   0  0  0  0  0  0
  -21.1115  -13.1289   22.2618 H   0  0  0  0  0  0
  -24.6750  -15.8474   20.5341 H   0  0  0  0  0  0
  -26.2962  -15.6225   20.1088 H   0  0  0  0  0  0
  -26.7120  -32.5533   23.1182 H   0  0  0  0  0  0
  -25.0313  -33.9758   25.0669 H   0  0  0  0  0  0
  -22.6864  -31.3113   21.4076 H   0  0  0  0  0  0
  -23.3772  -35.9602   23.3293 H   0  0  0  0  0  0
  -24.3611  -36.8934   22.2082 H   0  0  0  0  0  0
  -23.7217  -37.6462   23.6704 H   0  0  0  0  0  0
  -26.0348  -31.6060   20.5930 H   0  0  0  0  0  0
  -26.8107  -30.8947   21.9794 H   0  0  0  0  0  0
  -28.0847  -29.1217   21.1795 H   0  0  0  0  0  0
  -26.0550  -25.9694   19.0282 H   0  0  0  0  0  0
  -23.9846  -27.2764   19.0480 H   0  0  0  0  0  0
  -23.7180  -30.5950   19.3998 H   0  0  0  0  0  0
  -22.7302  -29.2419   19.8660 H   0  0  0  0  0  0
  -25.1309  -36.1967   25.0849 H   0  0  0  0  0  0
  -20.9947  -28.3278   24.1410 H   0  0  0  0  0  0
  -20.5707  -26.2314   23.3598 H   0  0  0  0  0  0
  -21.6633  -26.7512   22.1182 H   0  0  0  0  0  0
  -19.6908  -25.6293   21.1248 H   0  0  0  0  0  0
  -19.6667  -27.3167   20.6710 H   0  0  0  0  0  0
  -17.4207  -26.6743   21.3956 H   0  0  0  0  0  0
  -18.0256  -26.0062   22.8948 H   0  0  0  0  0  0
  -19.7937  -30.7268   24.2241 H   0  0  0  0  0  0
  -17.5039  -31.6282   24.5181 H   0  0  0  0  0  0
  -15.5355  -30.3021   23.7681 H   0  0  0  0  0  0
  -15.8645  -28.0836   22.7110 H   0  0  0  0  0  0
  -24.6049  -30.6852   25.7838 H   0  0  0  0  0  0
  -24.8992  -32.2643   26.5030 H   0  0  0  0  0  0
  -25.8284  -30.8687   27.0181 H   0  0  0  0  0  0
  -26.2844  -29.6667   24.1321 H   0  0  0  0  0  0
  -27.4464  -29.7350   25.4395 H   0  0  0  0  0  0
  -27.8542  -30.4378   23.8933 H   0  0  0  0  0  0
  -27.2755  -33.3653   26.1909 H   0  0  0  0  0  0
  -28.3984  -32.6635   25.0338 H   0  0  0  0  0  0
  -28.0634  -31.8448   26.5514 H   0  0  0  0  0  0
  -28.2651  -38.0059   24.7472 H   0  0  0  0  0  0
  -28.0994  -36.2577   24.6483 H   0  0  0  0  0  0
  -27.2252  -37.1660   25.8904 H   0  0  0  0  0  0
  -20.9294  -29.8773   21.6897 H   0  0  0  0  0  0
  -26.0199  -38.2859   24.1315 H   0  0  0  0  0  0
  -28.5142  -22.3791   22.8711 H   0  0  0  0  0  0
  -26.8275  -21.4970   19.0095 H   0  0  0  0  0  0
  -29.4945  -24.4749   23.2717 H   0  0  0  0  0  0
  -28.5284  -25.7795   22.5911 H   0  0  0  0  0  0
  -30.0975  -25.3669   21.8780 H   0  0  0  0  0  0
  -26.5772  -19.8722   21.0116 H   0  0  0  0  0  0
  -27.4057  -20.2524   22.5045 H   0  0  0  0  0  0
  -28.2226  -25.6833   18.3753 H   0  0  0  0  0  0
  -29.7133  -25.4873   19.2338 H   0  0  0  0  0  0
  -29.6065  -20.1149   21.1160 H   0  0  0  0  0  0
  -28.6763  -19.3317   19.8718 H   0  0  0  0  0  0
  -28.2033  -17.4278   21.3855 H   0  0  0  0  0  0
  -28.8506  -18.3088   22.7513 H   0  0  0  0  0  0
  -31.0850  -18.4269   21.6314 H   0  0  0  0  0  0
  -30.4914  -17.4718   20.3050 H   0  0  0  0  0  0
  -30.5317  -16.4850   23.2123 H   0  0  0  0  0  0
  -31.8867  -16.2930   22.1380 H   0  0  0  0  0  0
  -29.3468  -14.8401   22.0620 H   0  0  0  0  0  0
  1 25  1  0  0  0
  1 30  2  0  0  0
  1 84  1  0  0  0
  2  3  1  0  0  0
  2 25  1  0  0  0
  2 85  1  0  0  0
  2 86  1  0  0  0
  3  4  1  0  0  0
  3 87  1  0  0  0
  3 88  1  0  0  0
  4  5  1  0  0  0
  4 89  1  0  0  0
  4 90  1  0  0  0
  5  6  1  0  0  0
  5 26  1  0  0  0
  5 91  1  0  0  0
  6 25  1  0  0  0
  6 92  1  0  0  0
  6 93  1  0  0  0
  7  8  2  0  0  0
  7 26  1  0  0  0
  7 29  1  0  0  0
  8  9  1  0  0  0
  8 22  1  0  0  0
  9 10  1  0  0  0
  9 27  2  0  0  0
 10 11  2  0  0  0
 10 15  1  0  0  0
 11 12  1  0  0  0
 11 94  1  0  0  0
 12 13  2  0  0  0
 12 95  1  0  0  0
 13 14  1  0  0  0
 13 31  1  0  0  0
 14 15  2  0  0  0
 14 96  1  0  0  0
 15 97  1  0  0  0
 16 17  2  0  0  0
 16 21  1  0  0  0
 16 31  1  0  0  0
 17 18  1  0  0  0
 17 98  1  0  0  0
 18 19  2  0  0  0
 18 99  1  0  0  0
 19 20  1  0  0  0
 19 24  1  0  0  0
 20 21  2  0  0  0
 20100  1  0  0  0
 21 23  1  0  0  0
 22 28  1  0  0  0
 22 32  2  0  0  0
 26 27  1  0  0  0
 28101  1  0  0  0
 28102  1  0  0  0
 29103  1  0  0  0
 29104  1  0  0  0
 33 34  1  0  0  0
 33 66  1  0  0  0
 33 70  2  0  0  0
 34 36  1  0  0  0
 34 59  1  0  0  0
 34105  1  0  0  0
 35 44  2  0  0  0
 35 45  1  0  0  0
 35 68  1  0  0  0
 36 56  1  0  0  0
 36106  1  0  0  0
 37 39  1  0  0  0
 37 47  1  0  0  0
 37 66  1  0  0  0
 37107  1  0  0  0
 38 43  2  0  0  0
 38 46  1  0  0  0
 38 47  1  0  0  0
 39 64  1  0  0  0
 39 67  2  0  0  0
 40 52  1  0  0  0
 40 53  2  0  0  0
 40 58  1  0  0  0
 41108  1  0  0  0
 41109  1  0  0  0
 41110  1  0  0  0
 41 48  1  0  0  0
 42 43  1  0  0  0
 42 66  1  0  0  0
 42111  1  0  0  0
 42112  1  0  0  0
 43 44  1  0  0  0
 44113  1  0  0  0
 45 46  2  0  0  0
 45114  1  0  0  0
 46115  1  0  0  0
 47116  1  0  0  0
 47117  1  0  0  0
 48 56  1  0  0  0
 48 65  1  0  0  0
 48118  1  0  0  0
 49 50  1  0  0  0
 49 53  1  0  0  0
 49 64  1  0  0  0
 49119  1  0  0  0
 50 51  1  0  0  0
 50120  1  0  0  0
 50121  1  0  0  0
 51 52  1  0  0  0
 51122  1  0  0  0
 51123  1  0  0  0
 52124  1  0  0  0
 52125  1  0  0  0
 53 54  1  0  0  0
 54 55  2  0  0  0
 54126  1  0  0  0
 55 57  1  0  0  0
 55127  1  0  0  0
 56 69  2  0  0  0
 57 58  2  0  0  0
 57128  1  0  0  0
 58129  1  0  0  0
 59 60  1  0  0  0
 59 61  1  0  0  0
 59 62  1  0  0  0
 60130  1  0  0  0
 60131  1  0  0  0
 60132  1  0  0  0
 61133  1  0  0  0
 61134  1  0  0  0
 61135  1  0  0  0
 62136  1  0  0  0
 62137  1  0  0  0
 62138  1  0  0  0
 63 65  1  0  0  0
 63139  1  0  0  0
 63140  1  0  0  0
 63141  1  0  0  0
 64142  1  0  0  0
 65143  1  0  0  0
 68 78  1  0  0  0
 71 73  2  0  0  0
 71 74  1  0  0  0
 71144  1  0  0  0
 72 73  1  0  0  0
 72 83  2  0  0  0
 72145  1  0  0  0
 73 77  1  0  0  0
 74 75  2  0  0  0
 74 76  1  0  0  0
 75 78  1  0  0  0
 75 83  1  0  0  0
 76146  1  0  0  0
 76147  1  0  0  0
 76148  1  0  0  0
 77 79  1  0  0  0
 77149  1  0  0  0
 77150  1  0  0  0
 78151  1  0  0  0
 78152  1  0  0  0
 79 80  1  0  0  0
 79153  1  0  0  0
 79154  1  0  0  0
 80 81  1  0  0  0
 80155  1  0  0  0
 80156  1  0  0  0
 81 82  1  0  0  0
 81157  1  0  0  0
 81158  1  0  0  0
 82 84  1  0  0  0
 82159  1  0  0  0
 82160  1  0  0  0
 84161  1  0  0  0
M  ISO  4   1 100  68 101  78 101  84 100
M  END
> <chiral flag>
0

> <version>
0

> <s_m_source_file>
/data/baiqing/PycharmProjects/Reinvent-master-3.2/result/LINK_invent/BTK/process_docking_weight1_custom_sum_contain_oxygen_bond_distance_aromatic_linkinvent_7_9_3/rearranged_h_0038.sdf

> <i_m_source_file_index>
67

> <r_mmod_Potential_Energy-OPLS-2005>
-199.55842590332

> <r_mmod_Stretch_Energy-OPLS-2005>
31.9633827209473

> <r_mmod_Bend_Energy-OPLS-2005>
101.154067993164

> <r_mmod_Torsional_Energy-OPLS-2005>
199.756454467773

> <r_mmod_Improper_Torsional_Energy-OPLS-2005>
2.48754858970642

> <r_mmod_Van_der_Waal_Energy-OPLS-2005>
153.628005981445

> <r_mmod_Electrostatic_Energy-OPLS-2005>
-483.893981933594

> <r_mmod_Solvation_Energy-OPLS-2005>
-213.251022338867

> <b_mmod_Minimization_Converged-OPLS-2005>
0

> <r_mmod_RMS_Derivative-OPLS-2005>
2.1077983379364

$$$$
69
                    3D
 Structure written by MMmdl.
154162  0  0  1  0            999 V2000
  -30.6057  -14.7488   20.4181 C   0  0  0  0  0  0
  -30.4268  -12.4512   19.4687 C   0  0  0  0  0  0
  -29.5048  -12.4950   18.2316 C   0  0  0  0  0  0
  -28.0318  -12.3212   18.6484 C   0  0  0  0  0  0
  -27.6377  -13.2286   19.8468 C   0  0  2  0  0  0
  -28.6862  -13.1787   20.9786 C   0  0  0  0  0  0
  -25.2511  -13.8133   20.5756 C   0  0  0  0  0  0
  -24.1785  -13.0393   20.9210 C   0  0  0  0  0  0
  -24.6380  -11.6883   20.8739 C   0  0  0  0  0  0
  -23.9053  -10.4263   21.0385 C   0  0  0  0  0  0
  -24.3607   -9.4186   21.9177 C   0  0  0  0  0  0
  -23.6288   -8.2223   22.0744 C   0  0  0  0  0  0
  -22.4277   -8.0261   21.3528 C   0  0  0  0  0  0
  -21.9891   -9.0230   20.4634 C   0  0  0  0  0  0
  -22.7208  -10.2120   20.3045 C   0  0  0  0  0  0
  -21.6846   -6.0728   22.5274 C   0  0  0  0  0  0
  -21.4021   -6.5630   23.8207 C   0  0  0  0  0  0
  -21.3659   -5.6781   24.9168 C   0  0  0  0  0  0
  -21.6043   -4.3044   24.7207 C   0  0  0  0  0  0
  -21.8823   -3.8140   23.4326 C   0  0  0  0  0  0
  -21.9194   -4.6959   22.3390 C   0  0  0  0  0  0
  -22.7820  -13.5196   21.1854 C   0  0  0  0  0  0
  -22.1663   -4.2148   21.0963 F   0  0  0  0  0  0
  -21.5625   -3.4522   25.7719 F   0  0  0  0  0  0
  -29.9803  -13.5247   20.3826 N   0  0  0  0  0  0
  -26.2930  -12.9343   20.3302 N   0  0  0  0  0  0
  -25.9317  -11.6487   20.5754 N   0  0  0  0  0  0
  -22.0466  -12.8214   22.0431 N   0  0  0  0  0  0
  -25.4187  -15.1848   20.4318 N   0  0  0  0  0  0
  -31.8075  -14.8305   20.1503 O   0  0  0  0  0  0
  -21.6629   -6.8875   21.4243 O   0  0  0  0  0  0
  -22.3510  -14.5494   20.6688 O   0  0  0  0  0  0
  -24.6284  -31.8520   23.1960 C   0  0  0  0  0  0
  -25.9102  -32.4753   23.8313 C   0  0  1  0  0  0
  -27.2337  -27.2705   20.1154 C   0  0  0  0  0  0
  -25.5898  -33.8555   24.2229 N   0  0  0  0  0  0
  -23.4257  -30.4718   21.5378 C   0  0  2  0  0  0
  -24.8748  -28.9122   20.1065 C   0  0  0  0  0  0
  -22.7479  -29.4579   22.4906 C   0  0  0  0  0  0
  -18.0277  -28.1379   22.8486 C   0  0  0  0  0  0
  -24.1481  -36.7290   23.2642 C   0  0  0  0  0  0
  -25.9687  -30.7660   21.3741 C   0  0  0  0  0  0
  -26.0418  -29.3884   20.7152 C   0  0  0  0  0  0
  -27.2184  -28.5762   20.7118 C   0  0  0  0  0  0
  -26.0412  -26.8499   19.4893 C   0  0  0  0  0  0
  -24.8774  -27.6496   19.4886 C   0  0  0  0  0  0
  -23.6431  -29.7965   20.1559 C   0  0  0  0  0  0
  -25.4115  -36.3072   24.0313 C   0  0  1  0  0  0
  -20.5868  -28.3700   23.1257 C   0  0  2  0  0  0
  -20.6770  -26.9422   22.5401 C   0  0  0  0  0  0
  -19.5749  -26.6383   21.5202 C   0  0  0  0  0  0
  -18.1928  -26.7924   22.1622 C   0  0  0  0  0  0
  -19.1523  -28.8857   23.2876 C   0  0  0  0  0  0
  -18.9462  -30.1458   23.8900 C   0  0  0  0  0  0
  -17.6462  -30.6594   24.0553 C   0  0  0  0  0  0
  -25.9050  -34.9432   23.5078 C   0  0  0  0  0  0
  -16.5352  -29.9089   23.6331 C   0  0  0  0  0  0
  -16.7261  -28.6493   23.0368 C   0  0  0  0  0  0
  -26.4478  -31.6603   25.0717 C   0  0  0  0  0  0
  -25.3715  -31.3747   26.1457 C   0  0  0  0  0  0
  -27.0324  -30.3009   24.6229 C   0  0  0  0  0  0
  -27.6022  -32.4357   25.7492 C   0  0  0  0  0  0
  -27.5578  -37.1794   24.8457 C   0  0  0  0  0  0
  -21.4187  -29.3042   22.3643 N   0  0  0  0  0  0
  -26.4291  -37.3773   23.9399 N   0  0  0  0  0  0
  -24.6927  -31.0490   22.0923 N   0  0  0  0  0  0
  -23.4166  -28.8130   23.3023 O   0  0  0  0  0  0
  -28.3666  -26.4305   20.1982 O   0  0  0  0  0  0
  -26.5644  -34.8900   22.4656 O   0  0  0  0  0  0
  -23.5434  -32.1335   23.7257 O   0  0  0  0  0  0
  -27.4246  -20.4981   19.7476 C   0  0  0  0  0  0
  -27.0906  -19.1358   19.7775 C   0  0  0  0  0  0
  -28.7581  -20.8660   19.9436 C   0  0  0  0  0  0
  -29.2671  -18.5304   20.1916 C   0  0  0  0  0  0
  -25.6712  -18.7034   19.4866 C   0  0  0  0  0  0
  -29.1866  -22.3799   19.6964 C   0  0  0  0  0  0
  -30.3023  -17.3399   20.3798 C   0  0  0  0  0  0
  -28.3679  -23.6565   20.2821 C   0  0  0  0  0  0
  -28.5205  -25.0915   19.5399 C   0  0  0  0  0  0
  -28.0009  -18.1643   20.0096 N   0  0  0  0  0  0
  -29.6714  -19.8426   20.1597 N   0  0  0  0  0  0
  -29.8391  -15.8925   20.5239 N   0  0  0  0  0  0
  -31.4695  -12.5691   19.1681 H   0  0  0  0  0  0
  -30.3669  -11.4812   19.9662 H   0  0  0  0  0  0
  -29.7884  -11.7168   17.5208 H   0  0  0  0  0  0
  -29.6300  -13.4456   17.7114 H   0  0  0  0  0  0
  -27.8927  -11.2743   18.9204 H   0  0  0  0  0  0
  -27.3737  -12.5037   17.7975 H   0  0  0  0  0  0
  -27.6225  -14.2468   19.4579 H   0  0  0  0  0  0
  -28.7275  -12.1887   21.4351 H   0  0  0  0  0  0
  -28.4259  -13.8756   21.7763 H   0  0  0  0  0  0
  -25.2757   -9.5669   22.4742 H   0  0  0  0  0  0
  -23.9994   -7.4620   22.7473 H   0  0  0  0  0  0
  -21.0815   -8.8742   19.8951 H   0  0  0  0  0  0
  -22.3657  -10.9658   19.6156 H   0  0  0  0  0  0
  -21.2027   -7.6141   23.9705 H   0  0  0  0  0  0
  -21.1478   -6.0513   25.9069 H   0  0  0  0  0  0
  -22.0612   -2.7601   23.2819 H   0  0  0  0  0  0
  -22.4085  -11.9884   22.4834 H   0  0  0  0  0  0
  -21.1091  -13.1257   22.2616 H   0  0  0  0  0  0
  -24.6530  -15.8313   20.5766 H   0  0  0  0  0  0
  -26.2781  -15.6433   20.1564 H   0  0  0  0  0  0
  -26.7165  -32.5410   23.1057 H   0  0  0  0  0  0
  -25.0017  -33.9703   25.0350 H   0  0  0  0  0  0
  -22.7241  -31.2946   21.3884 H   0  0  0  0  0  0
  -23.3742  -35.9627   23.3301 H   0  0  0  0  0  0
  -24.3572  -36.8933   22.2066 H   0  0  0  0  0  0
  -23.7240  -37.6478   23.6685 H   0  0  0  0  0  0
  -26.1039  -31.5287   20.6057 H   0  0  0  0  0  0
  -26.8463  -30.8170   22.0077 H   0  0  0  0  0  0
  -28.1124  -28.9397   21.1977 H   0  0  0  0  0  0
  -25.9778  -25.8771   19.0251 H   0  0  0  0  0  0
  -23.9778  -27.2759   19.0186 H   0  0  0  0  0  0
  -23.7586  -30.5677   19.3929 H   0  0  0  0  0  0
  -22.7634  -29.2222   19.8591 H   0  0  0  0  0  0
  -25.1300  -36.1918   25.0809 H   0  0  0  0  0  0
  -20.9972  -28.3297   24.1369 H   0  0  0  0  0  0
  -20.5665  -26.2333   23.3617 H   0  0  0  0  0  0
  -21.6649  -26.7447   22.1204 H   0  0  0  0  0  0
  -19.6923  -25.6287   21.1251 H   0  0  0  0  0  0
  -19.6676  -27.3184   20.6713 H   0  0  0  0  0  0
  -17.4199  -26.6650   21.4025 H   0  0  0  0  0  0
  -18.0347  -26.0065   22.9021 H   0  0  0  0  0  0
  -19.7942  -30.7267   24.2280 H   0  0  0  0  0  0
  -17.5016  -31.6275   24.5161 H   0  0  0  0  0  0
  -15.5356  -30.2996   23.7646 H   0  0  0  0  0  0
  -15.8659  -28.0806   22.7099 H   0  0  0  0  0  0
  -24.5877  -30.7107   25.7794 H   0  0  0  0  0  0
  -24.8926  -32.2918   26.4895 H   0  0  0  0  0  0
  -25.8051  -30.8922   27.0229 H   0  0  0  0  0  0
  -26.2903  -29.6767   24.1244 H   0  0  0  0  0  0
  -27.3963  -29.7277   25.4769 H   0  0  0  0  0  0
  -27.8801  -30.4258   23.9489 H   0  0  0  0  0  0
  -27.2601  -33.3647   26.2061 H   0  0  0  0  0  0
  -28.3830  -32.6948   25.0330 H   0  0  0  0  0  0
  -28.0698  -31.8512   26.5426 H   0  0  0  0  0  0
  -28.2586  -38.0098   24.7514 H   0  0  0  0  0  0
  -28.1079  -36.2627   24.6268 H   0  0  0  0  0  0
  -27.2300  -37.1442   25.8860 H   0  0  0  0  0  0
  -20.9379  -29.8782   21.6857 H   0  0  0  0  0  0
  -26.0162  -38.2835   24.1422 H   0  0  0  0  0  0
  -26.6774  -21.2456   19.5163 H   0  0  0  0  0  0
  -24.9924  -19.0955   20.2424 H   0  0  0  0  0  0
  -25.5759  -17.6220   19.4634 H   0  0  0  0  0  0
  -25.3549  -19.0801   18.5134 H   0  0  0  0  0  0
  -29.1783  -22.4843   18.6106 H   0  0  0  0  0  0
  -30.2356  -22.4834   19.9739 H   0  0  0  0  0  0
  -30.9238  -17.5751   21.2441 H   0  0  0  0  0  0
  -30.9684  -17.3828   19.5186 H   0  0  0  0  0  0
  -28.6356  -23.7678   21.3328 H   0  0  0  0  0  0
  -27.3065  -23.4132   20.2817 H   0  0  0  0  0  0
  -27.9701  -25.0707   18.6001 H   0  0  0  0  0  0
  -29.5612  -25.1180   19.2140 H   0  0  0  0  0  0
  -28.8423  -15.7904   20.6399 H   0  0  0  0  0  0
  1 25  1  0  0  0
  1 30  2  0  0  0
  1 82  1  0  0  0
  2  3  1  0  0  0
  2 25  1  0  0  0
  2 83  1  0  0  0
  2 84  1  0  0  0
  3  4  1  0  0  0
  3 85  1  0  0  0
  3 86  1  0  0  0
  4  5  1  0  0  0
  4 87  1  0  0  0
  4 88  1  0  0  0
  5  6  1  0  0  0
  5 26  1  0  0  0
  5 89  1  0  0  0
  6 25  1  0  0  0
  6 90  1  0  0  0
  6 91  1  0  0  0
  7  8  2  0  0  0
  7 26  1  0  0  0
  7 29  1  0  0  0
  8  9  1  0  0  0
  8 22  1  0  0  0
  9 10  1  0  0  0
  9 27  2  0  0  0
 10 11  2  0  0  0
 10 15  1  0  0  0
 11 12  1  0  0  0
 11 92  1  0  0  0
 12 13  2  0  0  0
 12 93  1  0  0  0
 13 14  1  0  0  0
 13 31  1  0  0  0
 14 15  2  0  0  0
 14 94  1  0  0  0
 15 95  1  0  0  0
 16 17  2  0  0  0
 16 21  1  0  0  0
 16 31  1  0  0  0
 17 18  1  0  0  0
 17 96  1  0  0  0
 18 19  2  0  0  0
 18 97  1  0  0  0
 19 20  1  0  0  0
 19 24  1  0  0  0
 20 21  2  0  0  0
 20 98  1  0  0  0
 21 23  1  0  0  0
 22 28  1  0  0  0
 22 32  2  0  0  0
 26 27  1  0  0  0
 28 99  1  0  0  0
 28100  1  0  0  0
 29101  1  0  0  0
 29102  1  0  0  0
 33 34  1  0  0  0
 33 66  1  0  0  0
 33 70  2  0  0  0
 34 36  1  0  0  0
 34 59  1  0  0  0
 34103  1  0  0  0
 35 44  2  0  0  0
 35 45  1  0  0  0
 35 68  1  0  0  0
 36 56  1  0  0  0
 36104  1  0  0  0
 37 39  1  0  0  0
 37 47  1  0  0  0
 37 66  1  0  0  0
 37105  1  0  0  0
 38 43  2  0  0  0
 38 46  1  0  0  0
 38 47  1  0  0  0
 39 64  1  0  0  0
 39 67  2  0  0  0
 40 52  1  0  0  0
 40 53  2  0  0  0
 40 58  1  0  0  0
 41106  1  0  0  0
 41107  1  0  0  0
 41108  1  0  0  0
 41 48  1  0  0  0
 42 43  1  0  0  0
 42 66  1  0  0  0
 42109  1  0  0  0
 42110  1  0  0  0
 43 44  1  0  0  0
 44111  1  0  0  0
 45 46  2  0  0  0
 45112  1  0  0  0
 46113  1  0  0  0
 47114  1  0  0  0
 47115  1  0  0  0
 48 56  1  0  0  0
 48 65  1  0  0  0
 48116  1  0  0  0
 49 50  1  0  0  0
 49 53  1  0  0  0
 49 64  1  0  0  0
 49117  1  0  0  0
 50 51  1  0  0  0
 50118  1  0  0  0
 50119  1  0  0  0
 51 52  1  0  0  0
 51120  1  0  0  0
 51121  1  0  0  0
 52122  1  0  0  0
 52123  1  0  0  0
 53 54  1  0  0  0
 54 55  2  0  0  0
 54124  1  0  0  0
 55 57  1  0  0  0
 55125  1  0  0  0
 56 69  2  0  0  0
 57 58  2  0  0  0
 57126  1  0  0  0
 58127  1  0  0  0
 59 60  1  0  0  0
 59 61  1  0  0  0
 59 62  1  0  0  0
 60128  1  0  0  0
 60129  1  0  0  0
 60130  1  0  0  0
 61131  1  0  0  0
 61132  1  0  0  0
 61133  1  0  0  0
 62134  1  0  0  0
 62135  1  0  0  0
 62136  1  0  0  0
 63 65  1  0  0  0
 63137  1  0  0  0
 63138  1  0  0  0
 63139  1  0  0  0
 64140  1  0  0  0
 65141  1  0  0  0
 68 79  1  0  0  0
 71 72  2  0  0  0
 71 73  1  0  0  0
 71142  1  0  0  0
 72 75  1  0  0  0
 72 80  1  0  0  0
 73 76  1  0  0  0
 73 81  2  0  0  0
 74 77  1  0  0  0
 74 80  2  0  0  0
 74 81  1  0  0  0
 75143  1  0  0  0
 75144  1  0  0  0
 75145  1  0  0  0
 76 78  1  0  0  0
 76146  1  0  0  0
 76147  1  0  0  0
 77 82  1  0  0  0
 77148  1  0  0  0
 77149  1  0  0  0
 78 79  1  0  0  0
 78150  1  0  0  0
 78151  1  0  0  0
 79152  1  0  0  0
 79153  1  0  0  0
 82154  1  0  0  0
M  ISO  4   1 100  68 101  79 101  82 100
M  END
> <chiral flag>
0

> <version>
0

> <s_m_source_file>
/data/baiqing/PycharmProjects/Reinvent-master-3.2/result/LINK_invent/BTK/process_docking_weight1_custom_sum_contain_oxygen_bond_distance_aromatic_linkinvent_7_9_3/rearranged_h_0038.sdf

> <i_m_source_file_index>
68

> <r_mmod_Potential_Energy-OPLS-2005>
-472.727386474609

> <r_mmod_Stretch_Energy-OPLS-2005>
113.215286254883

> <r_mmod_Bend_Energy-OPLS-2005>
181.243209838867

> <r_mmod_Torsional_Energy-OPLS-2005>
202.835021972656

> <r_mmod_Improper_Torsional_Energy-OPLS-2005>
6.06955862045288

> <r_mmod_Van_der_Waal_Energy-OPLS-2005>
138.647308349609

> <r_mmod_Electrostatic_Energy-OPLS-2005>
-970.485534667969

> <r_mmod_Solvation_Energy-OPLS-2005>
-228.37255859375

> <b_mmod_Minimization_Converged-OPLS-2005>
0

> <r_mmod_RMS_Derivative-OPLS-2005>
2.2892050743103

$$$$
70
                    3D
 Structure written by MMmdl.
180188  0  0  1  0            999 V2000
  -30.7856  -14.3563   20.6919 C   0  0  0  0  0  0
  -30.4137  -12.2918   19.3931 C   0  0  0  0  0  0
  -29.4815  -12.5281   18.1918 C   0  0  0  0  0  0
  -28.0081  -12.3781   18.6111 C   0  0  0  0  0  0
  -27.6653  -13.2053   19.8774 C   0  0  2  0  0  0
  -28.7033  -12.9581   20.9939 C   0  0  0  0  0  0
  -25.2599  -13.8166   20.5671 C   0  0  0  0  0  0
  -24.1841  -13.0445   20.9161 C   0  0  0  0  0  0
  -24.6388  -11.6908   20.8723 C   0  0  0  0  0  0
  -23.9055  -10.4292   21.0399 C   0  0  0  0  0  0
  -24.3609   -9.4211   21.9179 C   0  0  0  0  0  0
  -23.6288   -8.2246   22.0751 C   0  0  0  0  0  0
  -22.4271   -8.0281   21.3543 C   0  0  0  0  0  0
  -21.9904   -9.0254   20.4647 C   0  0  0  0  0  0
  -22.7229  -10.2134   20.3051 C   0  0  0  0  0  0
  -21.6853   -6.0738   22.5279 C   0  0  0  0  0  0
  -21.4014   -6.5637   23.8215 C   0  0  0  0  0  0
  -21.3662   -5.6790   24.9177 C   0  0  0  0  0  0
  -21.6041   -4.3054   24.7226 C   0  0  0  0  0  0
  -21.8821   -3.8148   23.4346 C   0  0  0  0  0  0
  -21.9191   -4.6965   22.3402 C   0  0  0  0  0  0
  -22.7865  -13.5245   21.1839 C   0  0  0  0  0  0
  -22.1661   -4.2149   21.0983 F   0  0  0  0  0  0
  -21.5630   -3.4538   25.7740 F   0  0  0  0  0  0
  -30.0480  -13.2407   20.4554 N   0  0  0  0  0  0
  -26.3040  -12.9334   20.3371 N   0  0  0  0  0  0
  -25.9314  -11.6492   20.5754 N   0  0  0  0  0  0
  -22.0506  -12.8235   22.0396 N   0  0  0  0  0  0
  -25.4332  -15.1884   20.4094 N   0  0  0  0  0  0
  -31.7952  -14.6501   20.0451 O   0  0  0  0  0  0
  -21.6638   -6.8879   21.4241 O   0  0  0  0  0  0
  -22.3553  -14.5559   20.6703 O   0  0  0  0  0  0
  -24.6160  -31.8688   23.2099 C   0  0  0  0  0  0
  -25.9067  -32.4829   23.8400 C   0  0  1  0  0  0
  -27.2404  -27.4559   20.0759 C   0  0  0  0  0  0
  -25.5931  -33.8631   24.2333 N   0  0  0  0  0  0
  -23.4013  -30.4929   21.5498 C   0  0  2  0  0  0
  -24.8420  -28.9486   20.1238 C   0  0  0  0  0  0
  -22.7405  -29.4675   22.4991 C   0  0  0  0  0  0
  -18.0278  -28.1383   22.8493 C   0  0  0  0  0  0
  -24.1476  -36.7304   23.2636 C   0  0  0  0  0  0
  -25.9274  -30.8377   21.3578 C   0  0  0  0  0  0
  -26.0030  -29.4722   20.7070 C   0  0  0  0  0  0
  -27.2058  -28.7346   20.6714 C   0  0  0  0  0  0
  -26.0539  -26.9278   19.5192 C   0  0  0  0  0  0
  -24.8596  -27.6708   19.5364 C   0  0  0  0  0  0
  -23.6091  -29.8211   20.1664 C   0  0  0  0  0  0
  -25.4105  -36.3115   24.0337 C   0  0  1  0  0  0
  -20.5868  -28.3670   23.1309 C   0  0  2  0  0  0
  -20.6773  -26.9416   22.5407 C   0  0  0  0  0  0
  -19.5746  -26.6393   21.5210 C   0  0  0  0  0  0
  -18.1924  -26.7936   22.1624 C   0  0  0  0  0  0
  -19.1527  -28.8841   23.2900 C   0  0  0  0  0  0
  -18.9462  -30.1450   23.8910 C   0  0  0  0  0  0
  -17.6468  -30.6584   24.0582 C   0  0  0  0  0  0
  -25.9035  -34.9483   23.5121 C   0  0  0  0  0  0
  -16.5358  -29.9100   23.6327 C   0  0  0  0  0  0
  -16.7275  -28.6517   23.0349 C   0  0  0  0  0  0
  -26.4497  -31.6610   25.0728 C   0  0  0  0  0  0
  -25.3771  -31.3722   26.1484 C   0  0  0  0  0  0
  -27.0319  -30.3049   24.6099 C   0  0  0  0  0  0
  -27.6076  -32.4325   25.7493 C   0  0  0  0  0  0
  -27.5572  -37.1811   24.8463 C   0  0  0  0  0  0
  -21.4138  -29.3042   22.3719 N   0  0  0  0  0  0
  -26.4281  -37.3820   23.9425 N   0  0  0  0  0  0
  -24.6664  -31.0811   22.0981 N   0  0  0  0  0  0
  -23.4171  -28.8224   23.3057 O   0  0  0  0  0  0
  -28.4461  -26.7965   19.9931 O   0  0  0  0  0  0
  -26.5584  -34.8936   22.4664 O   0  0  0  0  0  0
  -23.5358  -32.1451   23.7503 O   0  0  0  0  0  0
  -28.0399  -22.9885   19.6770 C   0  0  0  0  0  0
  -28.2043  -24.3773   19.4259 C   0  0  0  0  0  0
  -27.7548  -22.4294   18.4630 C   0  0  0  0  0  0
  -24.3365  -22.5794   13.9475 C   0  0  0  0  0  0
  -29.9826  -25.2821   20.9294 C   0  0  0  0  0  0
  -27.4308  -20.9932   18.1627 C   0  0  0  0  0  0
  -25.6982  -23.1974   14.2893 C   0  0  0  0  0  0
  -28.3788  -20.2848   17.1689 C   0  0  0  0  0  0
  -29.3287  -19.2536   17.8072 C   0  0  0  0  0  0
  -30.3697  -19.8631   18.7665 C   0  0  0  0  0  0
  -30.2107  -19.4142   20.2302 C   0  0  0  0  0  0
  -30.6556  -17.9627   20.4898 C   0  0  0  0  0  0
  -26.1009  -22.9312   15.7456 C   0  0  0  0  0  0
  -30.5382  -17.5811   21.9768 C   0  0  0  0  0  0
  -27.4989  -23.4693   16.1007 C   0  0  0  0  0  0
  -31.1282  -16.2045   22.3364 C   0  0  0  0  0  0
  -28.5324  -25.4456   20.4563 C   0  0  1  0  0  0
  -28.0983  -24.6443   18.1283 N   0  0  0  0  0  0
  -27.7636  -23.4696   17.5391 N   0  0  0  0  0  0
  -30.3908  -15.0888   21.7414 N   0  0  0  0  0  0
  -31.4569  -12.3890   19.0854 H   0  0  0  0  0  0
  -30.3093  -11.2701   19.7621 H   0  0  0  0  0  0
  -29.7155  -11.8274   17.3895 H   0  0  0  0  0  0
  -29.6478  -13.5272   17.7859 H   0  0  0  0  0  0
  -27.8220  -11.3197   18.7991 H   0  0  0  0  0  0
  -27.3505  -12.6601   17.7881 H   0  0  0  0  0  0
  -27.7205  -14.2578   19.5985 H   0  0  0  0  0  0
  -28.6617  -11.9194   21.3247 H   0  0  0  0  0  0
  -28.4489  -13.5501   21.8728 H   0  0  0  0  0  0
  -25.2756   -9.5692   22.4744 H   0  0  0  0  0  0
  -24.0003   -7.4641   22.7464 H   0  0  0  0  0  0
  -21.0837   -8.8770   19.8952 H   0  0  0  0  0  0
  -22.3687  -10.9669   19.6155 H   0  0  0  0  0  0
  -21.2004   -7.6144   23.9717 H   0  0  0  0  0  0
  -21.1482   -6.0522   25.9082 H   0  0  0  0  0  0
  -22.0596   -2.7607   23.2847 H   0  0  0  0  0  0
  -22.4117  -11.9891   22.4776 H   0  0  0  0  0  0
  -21.1127  -13.1268   22.2613 H   0  0  0  0  0  0
  -24.6728  -15.8499   20.5237 H   0  0  0  0  0  0
  -26.2992  -15.6248   20.1176 H   0  0  0  0  0  0
  -26.7141  -32.5549   23.1172 H   0  0  0  0  0  0
  -25.0203  -33.9793   25.0560 H   0  0  0  0  0  0
  -22.6905  -31.3092   21.4083 H   0  0  0  0  0  0
  -23.3732  -35.9640   23.3317 H   0  0  0  0  0  0
  -24.3563  -36.8900   22.2042 H   0  0  0  0  0  0
  -23.7221  -37.6518   23.6628 H   0  0  0  0  0  0
  -26.0345  -31.6012   20.5865 H   0  0  0  0  0  0
  -26.8176  -30.8913   21.9736 H   0  0  0  0  0  0
  -28.1098  -29.1508   21.0951 H   0  0  0  0  0  0
  -26.0453  -25.9579   19.0456 H   0  0  0  0  0  0
  -23.9654  -27.2568   19.0897 H   0  0  0  0  0  0
  -23.7334  -30.5951   19.4079 H   0  0  0  0  0  0
  -22.7291  -29.2493   19.8649 H   0  0  0  0  0  0
  -25.1278  -36.1984   25.0834 H   0  0  0  0  0  0
  -20.9970  -28.3244   24.1421 H   0  0  0  0  0  0
  -20.5674  -26.2292   23.3602 H   0  0  0  0  0  0
  -21.6647  -26.7461   22.1204 H   0  0  0  0  0  0
  -19.6896  -25.6308   21.1217 H   0  0  0  0  0  0
  -19.6673  -27.3216   20.6755 H   0  0  0  0  0  0
  -17.4210  -26.6708   21.4011 H   0  0  0  0  0  0
  -18.0306  -26.0067   22.9004 H   0  0  0  0  0  0
  -19.7945  -30.7272   24.2251 H   0  0  0  0  0  0
  -17.5035  -31.6256   24.5199 H   0  0  0  0  0  0
  -15.5359  -30.3019   23.7620 H   0  0  0  0  0  0
  -15.8685  -28.0845   22.7029 H   0  0  0  0  0  0
  -24.5916  -30.7092   25.7833 H   0  0  0  0  0  0
  -24.8992  -32.2881   26.4970 H   0  0  0  0  0  0
  -25.8144  -30.8869   27.0220 H   0  0  0  0  0  0
  -26.2861  -29.6811   24.1153 H   0  0  0  0  0  0
  -27.4082  -29.7289   25.4566 H   0  0  0  0  0  0
  -27.8706  -30.4348   23.9252 H   0  0  0  0  0  0
  -27.2695  -33.3606   26.2114 H   0  0  0  0  0  0
  -28.3892  -32.6919   25.0334 H   0  0  0  0  0  0
  -28.0759  -31.8427   26.5388 H   0  0  0  0  0  0
  -28.2614  -38.0094   24.7537 H   0  0  0  0  0  0
  -28.1041  -36.2621   24.6258 H   0  0  0  0  0  0
  -27.2289  -37.1463   25.8870 H   0  0  0  0  0  0
  -20.9283  -29.8767   21.6947 H   0  0  0  0  0  0
  -26.0145  -38.2892   24.1448 H   0  0  0  0  0  0
  -28.1053  -22.4791   20.6272 H   0  0  0  0  0  0
  -24.0447  -22.8238   12.9259 H   0  0  0  0  0  0
  -23.5554  -22.9471   14.6140 H   0  0  0  0  0  0
  -24.3634  -21.4918   14.0312 H   0  0  0  0  0  0
  -30.2353  -26.0189   21.6914 H   0  0  0  0  0  0
  -30.1493  -24.2938   21.3591 H   0  0  0  0  0  0
  -30.6768  -25.4032   20.0965 H   0  0  0  0  0  0
  -26.4021  -20.9277   17.8118 H   0  0  0  0  0  0
  -27.4074  -20.4328   19.0974 H   0  0  0  0  0  0
  -25.6617  -24.2727   14.1078 H   0  0  0  0  0  0
  -26.4570  -22.7937   13.6161 H   0  0  0  0  0  0
  -28.9469  -21.0030   16.5802 H   0  0  0  0  0  0
  -27.7610  -19.7482   16.4480 H   0  0  0  0  0  0
  -29.8592  -18.7360   17.0060 H   0  0  0  0  0  0
  -28.7434  -18.4815   18.3064 H   0  0  0  0  0  0
  -30.3147  -20.9510   18.7186 H   0  0  0  0  0  0
  -31.3750  -19.6169   18.4225 H   0  0  0  0  0  0
  -29.1779  -19.5528   20.5531 H   0  0  0  0  0  0
  -30.8095  -20.0767   20.8560 H   0  0  0  0  0  0
  -31.6907  -17.8387   20.1667 H   0  0  0  0  0  0
  -30.0648  -17.2744   19.8857 H   0  0  0  0  0  0
  -26.0712  -21.8554   15.9056 H   0  0  0  0  0  0
  -25.3581  -23.3700   16.4143 H   0  0  0  0  0  0
  -29.4944  -17.6264   22.2907 H   0  0  0  0  0  0
  -31.0616  -18.3309   22.5727 H   0  0  0  0  0  0
  -27.5922  -24.4921   15.7291 H   0  0  0  0  0  0
  -28.2747  -22.8957   15.5952 H   0  0  0  0  0  0
  -31.0941  -16.0756   23.4193 H   0  0  0  0  0  0
  -32.1871  -16.1661   22.0714 H   0  0  0  0  0  0
  -27.8780  -25.3265   21.3213 H   0  0  0  0  0  0
  -29.5645  -14.7674   22.2251 H   0  0  0  0  0  0
  1 25  1  0  0  0
  1 30  2  0  0  0
  1 90  1  0  0  0
  2  3  1  0  0  0
  2 25  1  0  0  0
  2 91  1  0  0  0
  2 92  1  0  0  0
  3  4  1  0  0  0
  3 93  1  0  0  0
  3 94  1  0  0  0
  4  5  1  0  0  0
  4 95  1  0  0  0
  4 96  1  0  0  0
  5  6  1  0  0  0
  5 26  1  0  0  0
  5 97  1  0  0  0
  6 25  1  0  0  0
  6 98  1  0  0  0
  6 99  1  0  0  0
  7  8  2  0  0  0
  7 26  1  0  0  0
  7 29  1  0  0  0
  8  9  1  0  0  0
  8 22  1  0  0  0
  9 10  1  0  0  0
  9 27  2  0  0  0
 10 11  2  0  0  0
 10 15  1  0  0  0
 11 12  1  0  0  0
 11100  1  0  0  0
 12 13  2  0  0  0
 12101  1  0  0  0
 13 14  1  0  0  0
 13 31  1  0  0  0
 14 15  2  0  0  0
 14102  1  0  0  0
 15103  1  0  0  0
 16 17  2  0  0  0
 16 21  1  0  0  0
 16 31  1  0  0  0
 17 18  1  0  0  0
 17104  1  0  0  0
 18 19  2  0  0  0
 18105  1  0  0  0
 19 20  1  0  0  0
 19 24  1  0  0  0
 20 21  2  0  0  0
 20106  1  0  0  0
 21 23  1  0  0  0
 22 28  1  0  0  0
 22 32  2  0  0  0
 26 27  1  0  0  0
 28107  1  0  0  0
 28108  1  0  0  0
 29109  1  0  0  0
 29110  1  0  0  0
 33 34  1  0  0  0
 33 66  1  0  0  0
 33 70  2  0  0  0
 34 36  1  0  0  0
 34 59  1  0  0  0
 34111  1  0  0  0
 35 44  2  0  0  0
 35 45  1  0  0  0
 35 68  1  0  0  0
 36 56  1  0  0  0
 36112  1  0  0  0
 37 39  1  0  0  0
 37 47  1  0  0  0
 37 66  1  0  0  0
 37113  1  0  0  0
 38 43  2  0  0  0
 38 46  1  0  0  0
 38 47  1  0  0  0
 39 64  1  0  0  0
 39 67  2  0  0  0
 40 52  1  0  0  0
 40 53  2  0  0  0
 40 58  1  0  0  0
 41114  1  0  0  0
 41115  1  0  0  0
 41116  1  0  0  0
 41 48  1  0  0  0
 42 43  1  0  0  0
 42 66  1  0  0  0
 42117  1  0  0  0
 42118  1  0  0  0
 43 44  1  0  0  0
 44119  1  0  0  0
 45 46  2  0  0  0
 45120  1  0  0  0
 46121  1  0  0  0
 47122  1  0  0  0
 47123  1  0  0  0
 48 56  1  0  0  0
 48 65  1  0  0  0
 48124  1  0  0  0
 49 50  1  0  0  0
 49 53  1  0  0  0
 49 64  1  0  0  0
 49125  1  0  0  0
 50 51  1  0  0  0
 50126  1  0  0  0
 50127  1  0  0  0
 51 52  1  0  0  0
 51128  1  0  0  0
 51129  1  0  0  0
 52130  1  0  0  0
 52131  1  0  0  0
 53 54  1  0  0  0
 54 55  2  0  0  0
 54132  1  0  0  0
 55 57  1  0  0  0
 55133  1  0  0  0
 56 69  2  0  0  0
 57 58  2  0  0  0
 57134  1  0  0  0
 58135  1  0  0  0
 59 60  1  0  0  0
 59 61  1  0  0  0
 59 62  1  0  0  0
 60136  1  0  0  0
 60137  1  0  0  0
 60138  1  0  0  0
 61139  1  0  0  0
 61140  1  0  0  0
 61141  1  0  0  0
 62142  1  0  0  0
 62143  1  0  0  0
 62144  1  0  0  0
 63 65  1  0  0  0
 63145  1  0  0  0
 63146  1  0  0  0
 63147  1  0  0  0
 64148  1  0  0  0
 65149  1  0  0  0
 68 87  1  0  0  0
 71 72  1  0  0  0
 71 73  2  0  0  0
 71150  1  0  0  0
 72 87  1  0  0  0
 72 88  2  0  0  0
 73 76  1  0  0  0
 73 89  1  0  0  0
 74 77  1  0  0  0
 74151  1  0  0  0
 74152  1  0  0  0
 74153  1  0  0  0
 75154  1  0  0  0
 75155  1  0  0  0
 75156  1  0  0  0
 75 87  1  0  0  0
 76 78  1  0  0  0
 76157  1  0  0  0
 76158  1  0  0  0
 77 83  1  0  0  0
 77159  1  0  0  0
 77160  1  0  0  0
 78 79  1  0  0  0
 78161  1  0  0  0
 78162  1  0  0  0
 79 80  1  0  0  0
 79163  1  0  0  0
 79164  1  0  0  0
 80 81  1  0  0  0
 80165  1  0  0  0
 80166  1  0  0  0
 81 82  1  0  0  0
 81167  1  0  0  0
 81168  1  0  0  0
 82 84  1  0  0  0
 82169  1  0  0  0
 82170  1  0  0  0
 83 85  1  0  0  0
 83171  1  0  0  0
 83172  1  0  0  0
 84 86  1  0  0  0
 84173  1  0  0  0
 84174  1  0  0  0
 85 89  1  0  0  0
 85175  1  0  0  0
 85176  1  0  0  0
 86 90  1  0  0  0
 86177  1  0  0  0
 86178  1  0  0  0
 87179  1  0  0  0
 88 89  1  0  0  0
 90180  1  0  0  0
M  ISO  4   1 100  68 101  87 101  90 100
M  END
> <chiral flag>
0

> <version>
0

> <s_m_source_file>
/data/baiqing/PycharmProjects/Reinvent-master-3.2/result/LINK_invent/BTK/process_docking_weight1_custom_sum_contain_oxygen_bond_distance_aromatic_linkinvent_7_9_3/rearranged_h_0038.sdf

> <i_m_source_file_index>
69

> <r_mmod_Potential_Energy-OPLS-2005>
-57.206298828125

> <r_mmod_Stretch_Energy-OPLS-2005>
33.0504837036133

> <r_mmod_Bend_Energy-OPLS-2005>
104.084175109863

> <r_mmod_Torsional_Energy-OPLS-2005>
250.730346679688

> <r_mmod_Improper_Torsional_Energy-OPLS-2005>
2.34500002861023

> <r_mmod_Van_der_Waal_Energy-OPLS-2005>
115.971046447754

> <r_mmod_Electrostatic_Energy-OPLS-2005>
-364.637542724609

> <r_mmod_Solvation_Energy-OPLS-2005>
-206.914291381836

> <b_mmod_Minimization_Converged-OPLS-2005>
0

> <r_mmod_RMS_Derivative-OPLS-2005>
2.44764566421509

$$$$
71
                    3D
 Structure written by MMmdl.
166174  0  0  1  0            999 V2000
  -30.7501  -14.4471   20.6451 C   0  0  0  0  0  0
  -30.4245  -12.3232   19.4086 C   0  0  0  0  0  0
  -29.4881  -12.5231   18.2005 C   0  0  0  0  0  0
  -28.0145  -12.3711   18.6240 C   0  0  0  0  0  0
  -27.6666  -13.2103   19.8821 C   0  0  2  0  0  0
  -28.7137  -13.0007   21.0026 C   0  0  0  0  0  0
  -25.2618  -13.8174   20.5724 C   0  0  0  0  0  0
  -24.1857  -13.0438   20.9204 C   0  0  0  0  0  0
  -24.6400  -11.6905   20.8737 C   0  0  0  0  0  0
  -23.9054  -10.4281   21.0403 C   0  0  0  0  0  0
  -24.3608   -9.4189   21.9174 C   0  0  0  0  0  0
  -23.6295   -8.2215   22.0729 C   0  0  0  0  0  0
  -22.4266   -8.0263   21.3532 C   0  0  0  0  0  0
  -21.9915   -9.0234   20.4625 C   0  0  0  0  0  0
  -22.7232  -10.2119   20.3040 C   0  0  0  0  0  0
  -21.6843   -6.0722   22.5274 C   0  0  0  0  0  0
  -21.4008   -6.5641   23.8212 C   0  0  0  0  0  0
  -21.3654   -5.6795   24.9181 C   0  0  0  0  0  0
  -21.6045   -4.3063   24.7231 C   0  0  0  0  0  0
  -21.8825   -3.8134   23.4362 C   0  0  0  0  0  0
  -21.9206   -4.6943   22.3411 C   0  0  0  0  0  0
  -22.7881  -13.5230   21.1905 C   0  0  0  0  0  0
  -22.1680   -4.2135   21.0986 F   0  0  0  0  0  0
  -21.5633   -3.4554   25.7751 F   0  0  0  0  0  0
  -30.0450  -13.2975   20.4479 N   0  0  0  0  0  0
  -26.3062  -12.9339   20.3429 N   0  0  0  0  0  0
  -25.9328  -11.6490   20.5770 N   0  0  0  0  0  0
  -22.0527  -12.8154   22.0439 N   0  0  0  0  0  0
  -25.4363  -15.1879   20.4120 N   0  0  0  0  0  0
  -31.8207  -14.6461   20.0635 O   0  0  0  0  0  0
  -21.6635   -6.8850   21.4227 O   0  0  0  0  0  0
  -22.3562  -14.5550   20.6786 O   0  0  0  0  0  0
  -24.6211  -31.8672   23.2121 C   0  0  0  0  0  0
  -25.9109  -32.4800   23.8420 C   0  0  1  0  0  0
  -27.2322  -27.4267   20.0670 C   0  0  0  0  0  0
  -25.5949  -33.8607   24.2357 N   0  0  0  0  0  0
  -23.4068  -30.4954   21.5543 C   0  0  2  0  0  0
  -24.8473  -28.9662   20.1098 C   0  0  0  0  0  0
  -22.7439  -29.4680   22.5013 C   0  0  0  0  0  0
  -18.0283  -28.1374   22.8497 C   0  0  0  0  0  0
  -24.1494  -36.7312   23.2643 C   0  0  0  0  0  0
  -25.9402  -30.8231   21.3727 C   0  0  0  0  0  0
  -26.0106  -29.4617   20.7109 C   0  0  0  0  0  0
  -27.2017  -28.6968   20.6924 C   0  0  0  0  0  0
  -26.0448  -26.9614   19.4466 C   0  0  0  0  0  0
  -24.8605  -27.7150   19.4763 C   0  0  0  0  0  0
  -23.6112  -29.8332   20.1665 C   0  0  0  0  0  0
  -25.4108  -36.3103   24.0357 C   0  0  1  0  0  0
  -20.5877  -28.3682   23.1306 C   0  0  2  0  0  0
  -20.6780  -26.9411   22.5417 C   0  0  0  0  0  0
  -19.5758  -26.6379   21.5219 C   0  0  0  0  0  0
  -18.1927  -26.7918   22.1614 C   0  0  0  0  0  0
  -19.1530  -28.8846   23.2894 C   0  0  0  0  0  0
  -18.9448  -30.1447   23.8901 C   0  0  0  0  0  0
  -17.6441  -30.6579   24.0564 C   0  0  0  0  0  0
  -25.9041  -34.9471   23.5150 C   0  0  0  0  0  0
  -16.5339  -29.9075   23.6318 C   0  0  0  0  0  0
  -16.7270  -28.6486   23.0350 C   0  0  0  0  0  0
  -26.4502  -31.6573   25.0760 C   0  0  0  0  0  0
  -25.3756  -31.3687   26.1506 C   0  0  0  0  0  0
  -27.0367  -30.3012   24.6183 C   0  0  0  0  0  0
  -27.6089  -32.4281   25.7518 C   0  0  0  0  0  0
  -27.5586  -37.1813   24.8470 C   0  0  0  0  0  0
  -21.4171  -29.3033   22.3714 N   0  0  0  0  0  0
  -26.4295  -37.3784   23.9409 N   0  0  0  0  0  0
  -24.6737  -31.0772   22.1028 N   0  0  0  0  0  0
  -23.4198  -28.8239   23.3085 O   0  0  0  0  0  0
  -28.4033  -26.6828   20.0926 O   0  0  0  0  0  0
  -26.5582  -34.8923   22.4705 O   0  0  0  0  0  0
  -23.5402  -32.1462   23.7503 O   0  0  0  0  0  0
  -31.3806  -22.5824   21.0803 C   0  0  0  0  0  0
  -30.6784  -24.8790   20.5617 C   0  0  0  0  0  0
  -29.2181  -23.0046   20.0542 C   0  0  0  0  0  0
  -31.6304  -23.9764   21.0884 C   0  0  0  0  0  0
  -30.1624  -22.0846   20.5642 C   0  0  0  0  0  0
  -29.4503  -24.3988   20.0705 C   0  0  0  0  0  0
  -33.7512  -25.6083   23.9204 C   0  0  0  0  0  0
  -32.8765  -24.5284   21.7546 C   0  0  0  0  0  0
  -29.7662  -20.6023   20.5719 C   0  0  0  0  0  0
  -28.3463  -25.3353   19.5873 C   0  0  0  0  0  0
  -30.2083  -15.5595   21.5829 C   0  0  0  0  0  0
  -32.5328  -25.1080   23.1381 C   0  0  0  0  0  0
  -30.7678  -19.5323   21.0781 C   0  0  0  0  0  0
  -30.9600  -16.9400   21.5671 C   0  0  0  0  0  0
  -30.0965  -18.1274   21.0737 C   0  0  0  0  0  0
  -31.4658  -12.4246   19.0927 H   0  0  0  0  0  0
  -30.3370  -11.3100   19.8004 H   0  0  0  0  0  0
  -29.7261  -11.8053   17.4142 H   0  0  0  0  0  0
  -29.6482  -13.5119   17.7671 H   0  0  0  0  0  0
  -27.8349  -11.3154   18.8292 H   0  0  0  0  0  0
  -27.3525  -12.6401   17.7988 H   0  0  0  0  0  0
  -27.7141  -14.2587   19.5851 H   0  0  0  0  0  0
  -28.6875  -11.9682   21.3551 H   0  0  0  0  0  0
  -28.4752  -13.6150   21.8717 H   0  0  0  0  0  0
  -25.2743   -9.5680   22.4747 H   0  0  0  0  0  0
  -24.0026   -7.4592   22.7428 H   0  0  0  0  0  0
  -21.0870   -8.8729   19.8913 H   0  0  0  0  0  0
  -22.3679  -10.9658   19.6151 H   0  0  0  0  0  0
  -21.1979   -7.6142   23.9710 H   0  0  0  0  0  0
  -21.1487   -6.0528   25.9090 H   0  0  0  0  0  0
  -22.0612   -2.7593   23.2862 H   0  0  0  0  0  0
  -22.4175  -11.9830   22.4819 H   0  0  0  0  0  0
  -21.1120  -13.1078   22.2656 H   0  0  0  0  0  0
  -24.6840  -15.8588   20.5223 H   0  0  0  0  0  0
  -26.3073  -15.6158   20.1220 H   0  0  0  0  0  0
  -26.7175  -32.5488   23.1187 H   0  0  0  0  0  0
  -25.0139  -33.9750   25.0531 H   0  0  0  0  0  0
  -22.6988  -31.3156   21.4193 H   0  0  0  0  0  0
  -23.3747  -35.9649   23.3308 H   0  0  0  0  0  0
  -24.3589  -36.8921   22.2054 H   0  0  0  0  0  0
  -23.7249  -37.6536   23.6632 H   0  0  0  0  0  0
  -26.0714  -31.5936   20.6102 H   0  0  0  0  0  0
  -26.8227  -30.8608   22.0011 H   0  0  0  0  0  0
  -28.0981  -29.0755   21.1645 H   0  0  0  0  0  0
  -25.9966  -26.0228   18.9155 H   0  0  0  0  0  0
  -23.9692  -27.3365   18.9925 H   0  0  0  0  0  0
  -23.7165  -30.6111   19.4094 H   0  0  0  0  0  0
  -22.7331  -29.2554   19.8730 H   0  0  0  0  0  0
  -25.1266  -36.1992   25.0848 H   0  0  0  0  0  0
  -20.9966  -28.3241   24.1434 H   0  0  0  0  0  0
  -20.5709  -26.2280   23.3616 H   0  0  0  0  0  0
  -21.6646  -26.7462   22.1201 H   0  0  0  0  0  0
  -19.6927  -25.6300   21.1236 H   0  0  0  0  0  0
  -19.6687  -27.3199   20.6763 H   0  0  0  0  0  0
  -17.4217  -26.6718   21.3984 H   0  0  0  0  0  0
  -18.0276  -26.0031   22.8975 H   0  0  0  0  0  0
  -19.7931  -30.7261   24.2267 H   0  0  0  0  0  0
  -17.5000  -31.6264   24.5181 H   0  0  0  0  0  0
  -15.5330  -30.2976   23.7638 H   0  0  0  0  0  0
  -15.8680  -28.0805   22.7055 H   0  0  0  0  0  0
  -24.5905  -30.7066   25.7836 H   0  0  0  0  0  0
  -24.8979  -32.2847   26.4993 H   0  0  0  0  0  0
  -25.8101  -30.8816   27.0248 H   0  0  0  0  0  0
  -26.2952  -29.6735   24.1224 H   0  0  0  0  0  0
  -27.4121  -29.7280   25.4675 H   0  0  0  0  0  0
  -27.8784  -30.4341   23.9379 H   0  0  0  0  0  0
  -27.2718  -33.3553   26.2170 H   0  0  0  0  0  0
  -28.3851  -32.6884   25.0303 H   0  0  0  0  0  0
  -28.0812  -31.8357   26.5373 H   0  0  0  0  0  0
  -28.2614  -38.0101   24.7494 H   0  0  0  0  0  0
  -28.1063  -36.2634   24.6290 H   0  0  0  0  0  0
  -27.2305  -37.1474   25.8875 H   0  0  0  0  0  0
  -20.9363  -29.8713   21.6880 H   0  0  0  0  0  0
  -26.0201  -38.2881   24.1350 H   0  0  0  0  0  0
  -32.1129  -21.9069   21.5021 H   0  0  0  0  0  0
  -30.8713  -25.9432   20.5766 H   0  0  0  0  0  0
  -28.2751  -22.6349   19.6743 H   0  0  0  0  0  0
  -33.4374  -26.0652   24.8599 H   0  0  0  0  0  0
  -34.3037  -26.3605   23.3568 H   0  0  0  0  0  0
  -34.4318  -24.7902   24.1599 H   0  0  0  0  0  0
  -33.3190  -25.3007   21.1214 H   0  0  0  0  0  0
  -33.6241  -23.7386   21.8503 H   0  0  0  0  0  0
  -29.4629  -20.3446   19.5559 H   0  0  0  0  0  0
  -28.8597  -20.5305   21.1755 H   0  0  0  0  0  0
  -27.4281  -24.8464   19.9135 H   0  0  0  0  0  0
  -28.3412  -25.3541   18.4965 H   0  0  0  0  0  0
  -29.1555  -15.7251   21.3546 H   0  0  0  0  0  0
  -30.2299  -15.1645   22.5987 H   0  0  0  0  0  0
  -31.8208  -25.9272   23.0230 H   0  0  0  0  0  0
  -32.0228  -24.3457   23.7297 H   0  0  0  0  0  0
  -31.0926  -19.7786   22.0906 H   0  0  0  0  0  0
  -31.6632  -19.5336   20.4537 H   0  0  0  0  0  0
  -31.8765  -16.9060   20.9763 H   0  0  0  0  0  0
  -31.2961  -17.1594   22.5819 H   0  0  0  0  0  0
  -29.7508  -17.9057   20.0628 H   0  0  0  0  0  0
  -29.1979  -18.1792   21.6922 H   0  0  0  0  0  0
  1 25  1  0  0  0
  1 30  2  0  0  0
  1 81  1  0  0  0
  2  3  1  0  0  0
  2 25  1  0  0  0
  2 86  1  0  0  0
  2 87  1  0  0  0
  3  4  1  0  0  0
  3 88  1  0  0  0
  3 89  1  0  0  0
  4  5  1  0  0  0
  4 90  1  0  0  0
  4 91  1  0  0  0
  5  6  1  0  0  0
  5 26  1  0  0  0
  5 92  1  0  0  0
  6 25  1  0  0  0
  6 93  1  0  0  0
  6 94  1  0  0  0
  7  8  2  0  0  0
  7 26  1  0  0  0
  7 29  1  0  0  0
  8  9  1  0  0  0
  8 22  1  0  0  0
  9 10  1  0  0  0
  9 27  2  0  0  0
 10 11  2  0  0  0
 10 15  1  0  0  0
 11 12  1  0  0  0
 11 95  1  0  0  0
 12 13  2  0  0  0
 12 96  1  0  0  0
 13 14  1  0  0  0
 13 31  1  0  0  0
 14 15  2  0  0  0
 14 97  1  0  0  0
 15 98  1  0  0  0
 16 17  2  0  0  0
 16 21  1  0  0  0
 16 31  1  0  0  0
 17 18  1  0  0  0
 17 99  1  0  0  0
 18 19  2  0  0  0
 18100  1  0  0  0
 19 20  1  0  0  0
 19 24  1  0  0  0
 20 21  2  0  0  0
 20101  1  0  0  0
 21 23  1  0  0  0
 22 28  1  0  0  0
 22 32  2  0  0  0
 26 27  1  0  0  0
 28102  1  0  0  0
 28103  1  0  0  0
 29104  1  0  0  0
 29105  1  0  0  0
 33 34  1  0  0  0
 33 66  1  0  0  0
 33 70  2  0  0  0
 34 36  1  0  0  0
 34 59  1  0  0  0
 34106  1  0  0  0
 35 44  2  0  0  0
 35 45  1  0  0  0
 35 68  1  0  0  0
 36 56  1  0  0  0
 36107  1  0  0  0
 37 39  1  0  0  0
 37 47  1  0  0  0
 37 66  1  0  0  0
 37108  1  0  0  0
 38 43  2  0  0  0
 38 46  1  0  0  0
 38 47  1  0  0  0
 39 64  1  0  0  0
 39 67  2  0  0  0
 40 52  1  0  0  0
 40 53  2  0  0  0
 40 58  1  0  0  0
 41109  1  0  0  0
 41110  1  0  0  0
 41111  1  0  0  0
 41 48  1  0  0  0
 42 43  1  0  0  0
 42 66  1  0  0  0
 42112  1  0  0  0
 42113  1  0  0  0
 43 44  1  0  0  0
 44114  1  0  0  0
 45 46  2  0  0  0
 45115  1  0  0  0
 46116  1  0  0  0
 47117  1  0  0  0
 47118  1  0  0  0
 48 56  1  0  0  0
 48 65  1  0  0  0
 48119  1  0  0  0
 49 50  1  0  0  0
 49 53  1  0  0  0
 49 64  1  0  0  0
 49120  1  0  0  0
 50 51  1  0  0  0
 50121  1  0  0  0
 50122  1  0  0  0
 51 52  1  0  0  0
 51123  1  0  0  0
 51124  1  0  0  0
 52125  1  0  0  0
 52126  1  0  0  0
 53 54  1  0  0  0
 54 55  2  0  0  0
 54127  1  0  0  0
 55 57  1  0  0  0
 55128  1  0  0  0
 56 69  2  0  0  0
 57 58  2  0  0  0
 57129  1  0  0  0
 58130  1  0  0  0
 59 60  1  0  0  0
 59 61  1  0  0  0
 59 62  1  0  0  0
 60131  1  0  0  0
 60132  1  0  0  0
 60133  1  0  0  0
 61134  1  0  0  0
 61135  1  0  0  0
 61136  1  0  0  0
 62137  1  0  0  0
 62138  1  0  0  0
 62139  1  0  0  0
 63 65  1  0  0  0
 63140  1  0  0  0
 63141  1  0  0  0
 63142  1  0  0  0
 64143  1  0  0  0
 65144  1  0  0  0
 68 80  1  0  0  0
 71 74  2  0  0  0
 71 75  1  0  0  0
 71145  1  0  0  0
 72 74  1  0  0  0
 72 76  2  0  0  0
 72146  1  0  0  0
 73 75  2  0  0  0
 73 76  1  0  0  0
 73147  1  0  0  0
 74 78  1  0  0  0
 75 79  1  0  0  0
 76 80  1  0  0  0
 77 82  1  0  0  0
 77148  1  0  0  0
 77149  1  0  0  0
 77150  1  0  0  0
 78 82  1  0  0  0
 78151  1  0  0  0
 78152  1  0  0  0
 79 83  1  0  0  0
 79153  1  0  0  0
 79154  1  0  0  0
 80155  1  0  0  0
 80156  1  0  0  0
 81 84  1  0  0  0
 81157  1  0  0  0
 81158  1  0  0  0
 82159  1  0  0  0
 82160  1  0  0  0
 83 85  1  0  0  0
 83161  1  0  0  0
 83162  1  0  0  0
 84 85  1  0  0  0
 84163  1  0  0  0
 84164  1  0  0  0
 85165  1  0  0  0
 85166  1  0  0  0
M  ISO  4   1 100  68 101  80 101  81 100
M  END
> <chiral flag>
0

> <version>
0

> <s_m_source_file>
/data/baiqing/PycharmProjects/Reinvent-master-3.2/result/LINK_invent/BTK/process_docking_weight1_custom_sum_contain_oxygen_bond_distance_aromatic_linkinvent_7_9_3/rearranged_h_0038.sdf

> <i_m_source_file_index>
70

> <r_mmod_Potential_Energy-OPLS-2005>
5.4342622756958

> <r_mmod_Stretch_Energy-OPLS-2005>
41.2560043334961

> <r_mmod_Bend_Energy-OPLS-2005>
104.830459594727

> <r_mmod_Torsional_Energy-OPLS-2005>
173.040649414062

> <r_mmod_Improper_Torsional_Energy-OPLS-2005>
1.92198991775513

> <r_mmod_Van_der_Waal_Energy-OPLS-2005>
155.03727722168

> <r_mmod_Electrostatic_Energy-OPLS-2005>
-298.5087890625

> <r_mmod_Solvation_Energy-OPLS-2005>
-184.682235717773

> <b_mmod_Minimization_Converged-OPLS-2005>
0

> <r_mmod_RMS_Derivative-OPLS-2005>
3.39123845100403

$$$$
72
                    3D
 Structure written by MMmdl.
177185  0  0  1  0            999 V2000
  -30.8585  -14.2389   20.7743 C   0  0  0  0  0  0
  -30.4020  -12.2848   19.3552 C   0  0  0  0  0  0
  -29.4611  -12.5445   18.1710 C   0  0  0  0  0  0
  -27.9963  -12.3816   18.6077 C   0  0  0  0  0  0
  -27.6648  -13.2060   19.8772 C   0  0  2  0  0  0
  -28.7061  -12.9630   20.9909 C   0  0  0  0  0  0
  -25.2603  -13.8163   20.5692 C   0  0  0  0  0  0
  -24.1836  -13.0444   20.9172 C   0  0  0  0  0  0
  -24.6388  -11.6909   20.8727 C   0  0  0  0  0  0
  -23.9046  -10.4297   21.0390 C   0  0  0  0  0  0
  -24.3602   -9.4216   21.9175 C   0  0  0  0  0  0
  -23.6283   -8.2251   22.0748 C   0  0  0  0  0  0
  -22.4266   -8.0275   21.3541 C   0  0  0  0  0  0
  -21.9897   -9.0247   20.4644 C   0  0  0  0  0  0
  -22.7216  -10.2132   20.3051 C   0  0  0  0  0  0
  -21.6854   -6.0728   22.5274 C   0  0  0  0  0  0
  -21.4015   -6.5635   23.8205 C   0  0  0  0  0  0
  -21.3664   -5.6790   24.9169 C   0  0  0  0  0  0
  -21.6042   -4.3053   24.7221 C   0  0  0  0  0  0
  -21.8822   -3.8141   23.4344 C   0  0  0  0  0  0
  -21.9193   -4.6957   22.3397 C   0  0  0  0  0  0
  -22.7866  -13.5238   21.1839 C   0  0  0  0  0  0
  -22.1661   -4.2142   21.0977 F   0  0  0  0  0  0
  -21.5630   -3.4539   25.7736 F   0  0  0  0  0  0
  -30.0560  -13.2022   20.4474 N   0  0  0  0  0  0
  -26.3042  -12.9341   20.3402 N   0  0  0  0  0  0
  -25.9318  -11.6496   20.5777 N   0  0  0  0  0  0
  -22.0507  -12.8231   22.0401 N   0  0  0  0  0  0
  -25.4351  -15.1879   20.4100 N   0  0  0  0  0  0
  -31.7501  -14.6804   20.0416 O   0  0  0  0  0  0
  -21.6637   -6.8867   21.4231 O   0  0  0  0  0  0
  -22.3547  -14.5552   20.6691 O   0  0  0  0  0  0
  -24.6059  -31.8719   23.2129 C   0  0  0  0  0  0
  -25.8969  -32.4870   23.8408 C   0  0  1  0  0  0
  -27.2504  -27.4819   20.1141 C   0  0  0  0  0  0
  -25.5838  -33.8654   24.2341 N   0  0  0  0  0  0
  -23.3942  -30.4942   21.5475 C   0  0  2  0  0  0
  -24.8461  -28.9650   20.1116 C   0  0  0  0  0  0
  -22.7381  -29.4690   22.4973 C   0  0  0  0  0  0
  -18.0298  -28.1362   22.8489 C   0  0  0  0  0  0
  -24.1487  -36.7332   23.2653 C   0  0  0  0  0  0
  -25.9142  -30.8600   21.3539 C   0  0  0  0  0  0
  -25.9986  -29.4999   20.6981 C   0  0  0  0  0  0
  -27.2045  -28.7763   20.6831 C   0  0  0  0  0  0
  -26.0900  -26.9639   19.5043 C   0  0  0  0  0  0
  -24.8854  -27.6955   19.5076 C   0  0  0  0  0  0
  -23.6012  -29.8201   20.1632 C   0  0  0  0  0  0
  -25.4106  -36.3139   24.0358 C   0  0  1  0  0  0
  -20.5884  -28.3644   23.1298 C   0  0  2  0  0  0
  -20.6770  -26.9371   22.5407 C   0  0  0  0  0  0
  -19.5755  -26.6375   21.5195 C   0  0  0  0  0  0
  -18.1943  -26.7911   22.1612 C   0  0  0  0  0  0
  -19.1545  -28.8816   23.2900 C   0  0  0  0  0  0
  -18.9486  -30.1431   23.8900 C   0  0  0  0  0  0
  -17.6489  -30.6570   24.0567 C   0  0  0  0  0  0
  -25.9019  -34.9502   23.5153 C   0  0  0  0  0  0
  -16.5373  -29.9062   23.6333 C   0  0  0  0  0  0
  -16.7291  -28.6489   23.0340 C   0  0  0  0  0  0
  -26.4476  -31.6671   25.0701 C   0  0  0  0  0  0
  -25.3786  -31.3616   26.1452 C   0  0  0  0  0  0
  -27.0485  -30.3263   24.5924 C   0  0  0  0  0  0
  -27.5973  -32.4443   25.7528 C   0  0  0  0  0  0
  -27.5590  -37.1816   24.8474 C   0  0  0  0  0  0
  -21.4118  -29.3032   22.3697 N   0  0  0  0  0  0
  -26.4307  -37.3808   23.9420 N   0  0  0  0  0  0
  -24.6552  -31.0886   22.0975 N   0  0  0  0  0  0
  -23.4176  -28.8250   23.2997 O   0  0  0  0  0  0
  -28.3704  -26.6813   20.1220 O   0  0  0  0  0  0
  -26.5605  -34.8941   22.4721 O   0  0  0  0  0  0
  -23.5268  -32.1435   23.7562 O   0  0  0  0  0  0
  -27.9678  -25.0574   25.0117 C   0  0  0  0  0  0
  -27.7156  -26.6285   23.1880 C   0  0  0  0  0  0
  -27.2640  -26.1077   24.4129 C   0  0  0  0  0  0
  -29.1141  -24.5237   24.3940 C   0  0  0  0  0  0
  -28.8593  -26.1144   22.5278 C   0  0  0  0  0  0
  -29.5770  -25.0401   23.1471 C   0  0  0  0  0  0
  -26.0192  -26.6619   25.0797 C   0  0  0  0  0  0
  -29.8088  -23.3748   25.1098 C   0  0  0  0  0  0
  -30.8272  -24.4076   22.5184 C   0  0  0  0  0  0
  -29.2999  -26.7871   21.2104 C   0  0  0  0  0  0
  -30.5340  -23.0377   21.8630 C   0  0  0  0  0  0
  -31.4475  -21.8981   22.3712 C   0  0  0  0  0  0
  -30.7129  -20.5681   22.6317 C   0  0  0  0  0  0
  -31.2873  -19.8246   23.8514 C   0  0  0  0  0  0
  -30.5215  -18.5414   24.2064 C   0  0  0  0  0  0
  -30.7676  -17.3980   23.2071 C   0  0  0  0  0  0
  -31.3736  -16.1538   23.8717 C   0  0  0  0  0  0
  -31.8857  -15.1308   22.8525 C   0  0  0  0  0  0
  -30.8000  -14.5395   22.0763 N   0  0  0  0  0  0
  -31.4428  -12.3859   19.0398 H   0  0  0  0  0  0
  -30.2966  -11.2567   19.7054 H   0  0  0  0  0  0
  -29.6856  -11.8591   17.3529 H   0  0  0  0  0  0
  -29.6213  -13.5519   17.7837 H   0  0  0  0  0  0
  -27.8167  -11.3225   18.7942 H   0  0  0  0  0  0
  -27.3275  -12.6647   17.7935 H   0  0  0  0  0  0
  -27.7199  -14.2589   19.5997 H   0  0  0  0  0  0
  -28.6489  -11.9370   21.3566 H   0  0  0  0  0  0
  -28.4705  -13.6026   21.8422 H   0  0  0  0  0  0
  -25.2747   -9.5694   22.4749 H   0  0  0  0  0  0
  -23.9992   -7.4640   22.7475 H   0  0  0  0  0  0
  -21.0828   -8.8756   19.8954 H   0  0  0  0  0  0
  -22.3662  -10.9664   19.6164 H   0  0  0  0  0  0
  -21.2011   -7.6146   23.9703 H   0  0  0  0  0  0
  -21.1485   -6.0525   25.9070 H   0  0  0  0  0  0
  -22.0599   -2.7605   23.2845 H   0  0  0  0  0  0
  -22.4122  -11.9882   22.4769 H   0  0  0  0  0  0
  -21.1139  -13.1268   22.2632 H   0  0  0  0  0  0
  -24.6781  -15.8534   20.5238 H   0  0  0  0  0  0
  -26.3036  -15.6205   20.1167 H   0  0  0  0  0  0
  -26.7029  -32.5629   23.1181 H   0  0  0  0  0  0
  -24.9930  -33.9818   25.0444 H   0  0  0  0  0  0
  -22.6820  -31.3085   21.4019 H   0  0  0  0  0  0
  -23.3735  -35.9677   23.3335 H   0  0  0  0  0  0
  -24.3598  -36.8924   22.2062 H   0  0  0  0  0  0
  -23.7237  -37.6545   23.6647 H   0  0  0  0  0  0
  -26.0217  -31.6332   20.5914 H   0  0  0  0  0  0
  -26.8022  -30.9140   21.9724 H   0  0  0  0  0  0
  -28.0737  -29.2240   21.1378 H   0  0  0  0  0  0
  -26.1183  -25.9839   19.0479 H   0  0  0  0  0  0
  -23.9994  -27.2754   19.0514 H   0  0  0  0  0  0
  -23.7004  -30.5914   19.3986 H   0  0  0  0  0  0
  -22.7288  -29.2300   19.8756 H   0  0  0  0  0  0
  -25.1263  -36.2029   25.0851 H   0  0  0  0  0  0
  -21.0009  -28.3223   24.1404 H   0  0  0  0  0  0
  -20.5654  -26.2240   23.3589 H   0  0  0  0  0  0
  -21.6638  -26.7408   22.1206 H   0  0  0  0  0  0
  -19.6904  -25.6287   21.1219 H   0  0  0  0  0  0
  -19.6698  -27.3172   20.6715 H   0  0  0  0  0  0
  -17.4204  -26.6681   21.4019 H   0  0  0  0  0  0
  -18.0346  -26.0042   22.9005 H   0  0  0  0  0  0
  -19.7974  -30.7250   24.2223 H   0  0  0  0  0  0
  -17.5063  -31.6254   24.5159 H   0  0  0  0  0  0
  -15.5372  -30.2971   23.7659 H   0  0  0  0  0  0
  -15.8703  -28.0825   22.7005 H   0  0  0  0  0  0
  -24.6020  -30.6901   25.7789 H   0  0  0  0  0  0
  -24.8886  -32.2694   26.4981 H   0  0  0  0  0  0
  -25.8222  -30.8792   27.0176 H   0  0  0  0  0  0
  -26.3239  -29.7291   24.0416 H   0  0  0  0  0  0
  -27.3930  -29.7221   25.4333 H   0  0  0  0  0  0
  -27.9108  -30.4797   23.9427 H   0  0  0  0  0  0
  -27.2466  -33.3623   26.2270 H   0  0  0  0  0  0
  -28.3718  -32.7235   25.0368 H   0  0  0  0  0  0
  -28.0739  -31.8507   26.5345 H   0  0  0  0  0  0
  -28.2605  -38.0117   24.7503 H   0  0  0  0  0  0
  -28.1084  -36.2640   24.6308 H   0  0  0  0  0  0
  -27.2317  -37.1480   25.8884 H   0  0  0  0  0  0
  -20.9253  -29.8756   21.6935 H   0  0  0  0  0  0
  -26.0217  -38.2896   24.1413 H   0  0  0  0  0  0
  -27.6192  -24.6572   25.9545 H   0  0  0  0  0  0
  -27.1549  -27.4451   22.7676 H   0  0  0  0  0  0
  -26.0740  -26.5493   26.1627 H   0  0  0  0  0  0
  -25.1319  -26.1403   24.7211 H   0  0  0  0  0  0
  -25.8859  -27.7207   24.8685 H   0  0  0  0  0  0
  -29.4251  -23.2525   26.1235 H   0  0  0  0  0  0
  -30.8822  -23.5282   25.2035 H   0  0  0  0  0  0
  -29.6275  -22.4369   24.5874 H   0  0  0  0  0  0
  -31.5810  -24.3251   23.3001 H   0  0  0  0  0  0
  -31.3407  -25.0464   21.8082 H   0  0  0  0  0  0
  -29.5856  -27.8161   21.4205 H   0  0  0  0  0  0
  -30.2089  -26.3600   20.8104 H   0  0  0  0  0  0
  -30.6100  -23.1230   20.7779 H   0  0  0  0  0  0
  -29.4879  -22.7823   22.0366 H   0  0  0  0  0  0
  -31.9250  -22.2032   23.3016 H   0  0  0  0  0  0
  -32.2700  -21.7366   21.6709 H   0  0  0  0  0  0
  -30.7456  -19.9435   21.7375 H   0  0  0  0  0  0
  -29.6561  -20.7469   22.8267 H   0  0  0  0  0  0
  -31.2469  -20.4863   24.7182 H   0  0  0  0  0  0
  -32.3441  -19.5996   23.6974 H   0  0  0  0  0  0
  -29.4524  -18.7481   24.2797 H   0  0  0  0  0  0
  -30.8222  -18.2315   25.2095 H   0  0  0  0  0  0
  -31.4350  -17.7305   22.4107 H   0  0  0  0  0  0
  -29.8297  -17.1345   22.7154 H   0  0  0  0  0  0
  -30.6440  -15.6916   24.5395 H   0  0  0  0  0  0
  -32.2126  -16.4535   24.5021 H   0  0  0  0  0  0
  -32.3930  -14.3216   23.3775 H   0  0  0  0  0  0
  -32.6384  -15.5950   22.2108 H   0  0  0  0  0  0
  -30.0639  -14.0804   22.5928 H   0  0  0  0  0  0
  1 25  1  0  0  0
  1 30  2  0  0  0
  1 89  1  0  0  0
  2  3  1  0  0  0
  2 25  1  0  0  0
  2 90  1  0  0  0
  2 91  1  0  0  0
  3  4  1  0  0  0
  3 92  1  0  0  0
  3 93  1  0  0  0
  4  5  1  0  0  0
  4 94  1  0  0  0
  4 95  1  0  0  0
  5  6  1  0  0  0
  5 26  1  0  0  0
  5 96  1  0  0  0
  6 25  1  0  0  0
  6 97  1  0  0  0
  6 98  1  0  0  0
  7  8  2  0  0  0
  7 26  1  0  0  0
  7 29  1  0  0  0
  8  9  1  0  0  0
  8 22  1  0  0  0
  9 10  1  0  0  0
  9 27  2  0  0  0
 10 11  2  0  0  0
 10 15  1  0  0  0
 11 12  1  0  0  0
 11 99  1  0  0  0
 12 13  2  0  0  0
 12100  1  0  0  0
 13 14  1  0  0  0
 13 31  1  0  0  0
 14 15  2  0  0  0
 14101  1  0  0  0
 15102  1  0  0  0
 16 17  2  0  0  0
 16 21  1  0  0  0
 16 31  1  0  0  0
 17 18  1  0  0  0
 17103  1  0  0  0
 18 19  2  0  0  0
 18104  1  0  0  0
 19 20  1  0  0  0
 19 24  1  0  0  0
 20 21  2  0  0  0
 20105  1  0  0  0
 21 23  1  0  0  0
 22 28  1  0  0  0
 22 32  2  0  0  0
 26 27  1  0  0  0
 28106  1  0  0  0
 28107  1  0  0  0
 29108  1  0  0  0
 29109  1  0  0  0
 33 34  1  0  0  0
 33 66  1  0  0  0
 33 70  2  0  0  0
 34 36  1  0  0  0
 34 59  1  0  0  0
 34110  1  0  0  0
 35 44  2  0  0  0
 35 45  1  0  0  0
 35 68  1  0  0  0
 36 56  1  0  0  0
 36111  1  0  0  0
 37 39  1  0  0  0
 37 47  1  0  0  0
 37 66  1  0  0  0
 37112  1  0  0  0
 38 43  2  0  0  0
 38 46  1  0  0  0
 38 47  1  0  0  0
 39 64  1  0  0  0
 39 67  2  0  0  0
 40 52  1  0  0  0
 40 53  2  0  0  0
 40 58  1  0  0  0
 41113  1  0  0  0
 41114  1  0  0  0
 41115  1  0  0  0
 41 48  1  0  0  0
 42 43  1  0  0  0
 42 66  1  0  0  0
 42116  1  0  0  0
 42117  1  0  0  0
 43 44  1  0  0  0
 44118  1  0  0  0
 45 46  2  0  0  0
 45119  1  0  0  0
 46120  1  0  0  0
 47121  1  0  0  0
 47122  1  0  0  0
 48 56  1  0  0  0
 48 65  1  0  0  0
 48123  1  0  0  0
 49 50  1  0  0  0
 49 53  1  0  0  0
 49 64  1  0  0  0
 49124  1  0  0  0
 50 51  1  0  0  0
 50125  1  0  0  0
 50126  1  0  0  0
 51 52  1  0  0  0
 51127  1  0  0  0
 51128  1  0  0  0
 52129  1  0  0  0
 52130  1  0  0  0
 53 54  1  0  0  0
 54 55  2  0  0  0
 54131  1  0  0  0
 55 57  1  0  0  0
 55132  1  0  0  0
 56 69  2  0  0  0
 57 58  2  0  0  0
 57133  1  0  0  0
 58134  1  0  0  0
 59 60  1  0  0  0
 59 61  1  0  0  0
 59 62  1  0  0  0
 60135  1  0  0  0
 60136  1  0  0  0
 60137  1  0  0  0
 61138  1  0  0  0
 61139  1  0  0  0
 61140  1  0  0  0
 62141  1  0  0  0
 62142  1  0  0  0
 62143  1  0  0  0
 63 65  1  0  0  0
 63144  1  0  0  0
 63145  1  0  0  0
 63146  1  0  0  0
 64147  1  0  0  0
 65148  1  0  0  0
 68 80  1  0  0  0
 71 73  2  0  0  0
 71 74  1  0  0  0
 71149  1  0  0  0
 72 73  1  0  0  0
 72 75  2  0  0  0
 72150  1  0  0  0
 73 77  1  0  0  0
 74 76  2  0  0  0
 74 78  1  0  0  0
 75 76  1  0  0  0
 75 80  1  0  0  0
 76 79  1  0  0  0
 77151  1  0  0  0
 77152  1  0  0  0
 77153  1  0  0  0
 78154  1  0  0  0
 78155  1  0  0  0
 78156  1  0  0  0
 79 81  1  0  0  0
 79157  1  0  0  0
 79158  1  0  0  0
 80159  1  0  0  0
 80160  1  0  0  0
 81 82  1  0  0  0
 81161  1  0  0  0
 81162  1  0  0  0
 82 83  1  0  0  0
 82163  1  0  0  0
 82164  1  0  0  0
 83 84  1  0  0  0
 83165  1  0  0  0
 83166  1  0  0  0
 84 85  1  0  0  0
 84167  1  0  0  0
 84168  1  0  0  0
 85 86  1  0  0  0
 85169  1  0  0  0
 85170  1  0  0  0
 86 87  1  0  0  0
 86171  1  0  0  0
 86172  1  0  0  0
 87 88  1  0  0  0
 87173  1  0  0  0
 87174  1  0  0  0
 88 89  1  0  0  0
 88175  1  0  0  0
 88176  1  0  0  0
 89177  1  0  0  0
M  ISO  4   1 100  68 101  80 101  89 100
M  END
> <chiral flag>
0

> <version>
0

> <s_m_source_file>
/data/baiqing/PycharmProjects/Reinvent-master-3.2/result/LINK_invent/BTK/process_docking_weight1_custom_sum_contain_oxygen_bond_distance_aromatic_linkinvent_7_9_3/rearranged_h_0038.sdf

> <i_m_source_file_index>
71

> <r_mmod_Potential_Energy-OPLS-2005>
16.0064888000488

> <r_mmod_Stretch_Energy-OPLS-2005>
36.6021919250488

> <r_mmod_Bend_Energy-OPLS-2005>
102.946723937988

> <r_mmod_Torsional_Energy-OPLS-2005>
261.669647216797

> <r_mmod_Improper_Torsional_Energy-OPLS-2005>
7.44060611724854

> <r_mmod_Van_der_Waal_Energy-OPLS-2005>
159.948974609375

> <r_mmod_Electrostatic_Energy-OPLS-2005>
-372.499572753906

> <r_mmod_Solvation_Energy-OPLS-2005>
-190.953643798828

> <b_mmod_Minimization_Converged-OPLS-2005>
0

> <r_mmod_RMS_Derivative-OPLS-2005>
2.43204569816589

$$$$
73
                    3D
 Structure written by MMmdl.
156164  0  0  1  0            999 V2000
  -30.6346  -14.7136   20.4352 C   0  0  0  0  0  0
  -30.4365  -12.4295   19.4705 C   0  0  0  0  0  0
  -29.5104  -12.5147   18.2334 C   0  0  0  0  0  0
  -28.0325  -12.3596   18.6400 C   0  0  0  0  0  0
  -27.6486  -13.2421   19.8557 C   0  0  2  0  0  0
  -28.7008  -13.1619   20.9856 C   0  0  0  0  0  0
  -25.2532  -13.8217   20.5736 C   0  0  0  0  0  0
  -24.1830  -13.0447   20.9199 C   0  0  0  0  0  0
  -24.6435  -11.6937   20.8724 C   0  0  0  0  0  0
  -23.9121  -10.4300   21.0414 C   0  0  0  0  0  0
  -24.3661   -9.4211   21.9190 C   0  0  0  0  0  0
  -23.6333   -8.2242   22.0746 C   0  0  0  0  0  0
  -22.4306   -8.0296   21.3545 C   0  0  0  0  0  0
  -21.9962   -9.0266   20.4646 C   0  0  0  0  0  0
  -22.7290  -10.2145   20.3063 C   0  0  0  0  0  0
  -21.6874   -6.0734   22.5282 C   0  0  0  0  0  0
  -21.4029   -6.5647   23.8215 C   0  0  0  0  0  0
  -21.3648   -5.6809   24.9182 C   0  0  0  0  0  0
  -21.6038   -4.3072   24.7250 C   0  0  0  0  0  0
  -21.8821   -3.8164   23.4374 C   0  0  0  0  0  0
  -21.9203   -4.6958   22.3424 C   0  0  0  0  0  0
  -22.7842  -13.5200   21.1885 C   0  0  0  0  0  0
  -22.1678   -4.2139   21.0999 F   0  0  0  0  0  0
  -21.5627   -3.4559   25.7771 F   0  0  0  0  0  0
  -30.0152  -13.4832   20.4164 N   0  0  0  0  0  0
  -26.3001  -12.9465   20.3347 N   0  0  0  0  0  0
  -25.9384  -11.6591   20.5749 N   0  0  0  0  0  0
  -22.0536  -12.8131   22.0437 N   0  0  0  0  0  0
  -25.4213  -15.1940   20.4191 N   0  0  0  0  0  0
  -31.8354  -14.7896   20.1656 O   0  0  0  0  0  0
  -21.6670   -6.8889   21.4256 O   0  0  0  0  0  0
  -22.3518  -14.5503   20.6755 O   0  0  0  0  0  0
  -24.6273  -31.8577   23.2007 C   0  0  0  0  0  0
  -25.9110  -32.4756   23.8350 C   0  0  1  0  0  0
  -27.2309  -27.2909   20.1311 C   0  0  0  0  0  0
  -25.5918  -33.8562   24.2264 N   0  0  0  0  0  0
  -23.4214  -30.4782   21.5468 C   0  0  2  0  0  0
  -24.8714  -28.9267   20.1169 C   0  0  0  0  0  0
  -22.7474  -29.4592   22.4963 C   0  0  0  0  0  0
  -18.0269  -28.1371   22.8471 C   0  0  0  0  0  0
  -24.1483  -36.7304   23.2634 C   0  0  0  0  0  0
  -25.9652  -30.7777   21.3780 C   0  0  0  0  0  0
  -26.0414  -29.4018   20.7236 C   0  0  0  0  0  0
  -27.2238  -28.5986   20.7168 C   0  0  0  0  0  0
  -26.0365  -26.8794   19.4940 C   0  0  0  0  0  0
  -24.8720  -27.6702   19.4938 C   0  0  0  0  0  0
  -23.6387  -29.8096   20.1638 C   0  0  0  0  0  0
  -25.4107  -36.3073   24.0321 C   0  0  1  0  0  0
  -20.5867  -28.3671   23.1281 C   0  0  2  0  0  0
  -20.6755  -26.9393   22.5421 C   0  0  0  0  0  0
  -19.5742  -26.6366   21.5207 C   0  0  0  0  0  0
  -18.1913  -26.7911   22.1611 C   0  0  0  0  0  0
  -19.1522  -28.8842   23.2859 C   0  0  0  0  0  0
  -18.9461  -30.1446   23.8867 C   0  0  0  0  0  0
  -17.6466  -30.6578   24.0556 C   0  0  0  0  0  0
  -25.9051  -34.9438   23.5094 C   0  0  0  0  0  0
  -16.5348  -29.9078   23.6341 C   0  0  0  0  0  0
  -16.7260  -28.6494   23.0355 C   0  0  0  0  0  0
  -26.4496  -31.6573   25.0730 C   0  0  0  0  0  0
  -25.3732  -31.3729   26.1469 C   0  0  0  0  0  0
  -27.0354  -30.2982   24.6222 C   0  0  0  0  0  0
  -27.6018  -32.4337   25.7520 C   0  0  0  0  0  0
  -27.5585  -37.1790   24.8447 C   0  0  0  0  0  0
  -21.4190  -29.3013   22.3690 N   0  0  0  0  0  0
  -26.4272  -37.3785   23.9421 N   0  0  0  0  0  0
  -24.6900  -31.0551   22.0987 N   0  0  0  0  0  0
  -23.4177  -28.8141   23.3063 O   0  0  0  0  0  0
  -28.3481  -26.4283   20.1636 O   0  0  0  0  0  0
  -26.5649  -34.8913   22.4680 O   0  0  0  0  0  0
  -23.5430  -32.1405   23.7301 O   0  0  0  0  0  0
  -31.5078  -18.9851   19.4639 C   0  0  0  0  0  0
  -30.9549  -21.3473   19.3341 C   0  0  0  0  0  0
  -31.7579  -20.2626   18.9271 C   0  0  0  0  0  0
  -30.4826  -18.7971   20.4082 C   0  0  0  0  0  0
  -29.9080  -21.1443   20.2553 C   0  0  0  0  0  0
  -32.8989  -20.4561   17.9446 C   0  0  0  0  0  0
  -30.4324  -17.3982   21.1457 C   0  0  0  0  0  0
  -28.9501  -22.3478   20.6443 C   0  0  0  0  0  0
  -29.8143  -16.0844   20.4626 C   0  0  0  0  0  0
  -29.2926  -23.8833   20.2728 C   0  0  0  0  0  0
  -28.1146  -24.9692   20.3973 C   0  0  0  0  0  0
  -29.6902  -19.8747   20.7806 N   0  0  0  0  0  0
  -31.4796  -12.5357   19.1684 H   0  0  0  0  0  0
  -30.3640  -11.4491   19.9440 H   0  0  0  0  0  0
  -29.7805  -11.7521   17.5037 H   0  0  0  0  0  0
  -29.6491  -13.4743   17.7301 H   0  0  0  0  0  0
  -27.8627  -11.3095   18.8769 H   0  0  0  0  0  0
  -27.3821  -12.5930   17.7943 H   0  0  0  0  0  0
  -27.6445  -14.2668   19.4878 H   0  0  0  0  0  0
  -28.7176  -12.1662   21.4285 H   0  0  0  0  0  0
  -28.4512  -13.8492   21.7958 H   0  0  0  0  0  0
  -25.2816   -9.5685   22.4759 H   0  0  0  0  0  0
  -24.0050   -7.4641   22.7469 H   0  0  0  0  0  0
  -21.0913   -8.8783   19.8965 H   0  0  0  0  0  0
  -22.3755  -10.9678   19.6175 H   0  0  0  0  0  0
  -21.2025   -7.6158   23.9708 H   0  0  0  0  0  0
  -21.1464   -6.0552   25.9072 H   0  0  0  0  0  0
  -22.0608   -2.7625   23.2890 H   0  0  0  0  0  0
  -22.4230  -11.9785   22.4757 H   0  0  0  0  0  0
  -21.1141  -13.1064   22.2687 H   0  0  0  0  0  0
  -24.6602  -15.8520   20.5480 H   0  0  0  0  0  0
  -26.2803  -15.6365   20.1196 H   0  0  0  0  0  0
  -26.7166  -32.5422   23.1090 H   0  0  0  0  0  0
  -25.0001  -33.9714   25.0359 H   0  0  0  0  0  0
  -22.7134  -31.2971   21.4027 H   0  0  0  0  0  0
  -23.3757  -35.9623   23.3252 H   0  0  0  0  0  0
  -24.3581  -36.8996   22.2061 H   0  0  0  0  0  0
  -23.7225  -37.6475   23.6715 H   0  0  0  0  0  0
  -26.1007  -31.5356   20.6050 H   0  0  0  0  0  0
  -26.8433  -30.8253   22.0109 H   0  0  0  0  0  0
  -28.1190  -28.9622   21.2013 H   0  0  0  0  0  0
  -25.9763  -25.9320   18.9830 H   0  0  0  0  0  0
  -23.9780  -27.2991   19.0107 H   0  0  0  0  0  0
  -23.7586  -30.5878   19.4096 H   0  0  0  0  0  0
  -22.7569  -29.2408   19.8609 H   0  0  0  0  0  0
  -25.1277  -36.1916   25.0813 H   0  0  0  0  0  0
  -20.9929  -28.3246   24.1411 H   0  0  0  0  0  0
  -20.5637  -26.2279   23.3617 H   0  0  0  0  0  0
  -21.6626  -26.7407   22.1226 H   0  0  0  0  0  0
  -19.6911  -25.6280   21.1224 H   0  0  0  0  0  0
  -19.6689  -27.3181   20.6738 H   0  0  0  0  0  0
  -17.4190  -26.6646   21.4011 H   0  0  0  0  0  0
  -18.0314  -26.0050   22.9005 H   0  0  0  0  0  0
  -19.7951  -30.7259   24.2203 H   0  0  0  0  0  0
  -17.5038  -31.6254   24.5176 H   0  0  0  0  0  0
  -15.5351  -30.2983   23.7694 H   0  0  0  0  0  0
  -15.8648  -28.0819   22.7083 H   0  0  0  0  0  0
  -24.5851  -30.7147   25.7815 H   0  0  0  0  0  0
  -24.9007  -32.2916   26.4956 H   0  0  0  0  0  0
  -25.8058  -30.8854   27.0216 H   0  0  0  0  0  0
  -26.2954  -29.6719   24.1229 H   0  0  0  0  0  0
  -27.4013  -29.7250   25.4756 H   0  0  0  0  0  0
  -27.8841  -30.4255   23.9491 H   0  0  0  0  0  0
  -27.2568  -33.3610   26.2118 H   0  0  0  0  0  0
  -28.3827  -32.6958   25.0363 H   0  0  0  0  0  0
  -28.0705  -31.8474   26.5442 H   0  0  0  0  0  0
  -28.2525  -38.0153   24.7568 H   0  0  0  0  0  0
  -28.1144  -36.2692   24.6163 H   0  0  0  0  0  0
  -27.2317  -37.1305   25.8841 H   0  0  0  0  0  0
  -20.9373  -29.8761   21.6918 H   0  0  0  0  0  0
  -26.0146  -38.2832   24.1508 H   0  0  0  0  0  0
  -32.1415  -18.1539   19.1872 H   0  0  0  0  0  0
  -31.1474  -22.3295   18.9249 H   0  0  0  0  0  0
  -33.8535  -20.2072   18.4102 H   0  0  0  0  0  0
  -32.9623  -21.4858   17.5917 H   0  0  0  0  0  0
  -32.7720  -19.8083   17.0766 H   0  0  0  0  0  0
  -29.9275  -17.5486   22.1013 H   0  0  0  0  0  0
  -31.4599  -17.1690   21.4276 H   0  0  0  0  0  0
  -28.7808  -22.2918   21.7205 H   0  0  0  0  0  0
  -27.9890  -22.1116   20.1908 H   0  0  0  0  0  0
  -29.6249  -16.3275   19.4175 H   0  0  0  0  0  0
  -28.8289  -15.9206   20.8921 H   0  0  0  0  0  0
  -29.6358  -23.9228   19.2404 H   0  0  0  0  0  0
  -30.1396  -24.2052   20.8796 H   0  0  0  0  0  0
  -27.6871  -24.8823   21.3977 H   0  0  0  0  0  0
  -27.3419  -24.6035   19.7263 H   0  0  0  0  0  0
  1 25  1  0  0  0
  1 30  2  0  0  0
  1 79  1  0  0  0
  2  3  1  0  0  0
  2 25  1  0  0  0
  2 83  1  0  0  0
  2 84  1  0  0  0
  3  4  1  0  0  0
  3 85  1  0  0  0
  3 86  1  0  0  0
  4  5  1  0  0  0
  4 87  1  0  0  0
  4 88  1  0  0  0
  5  6  1  0  0  0
  5 26  1  0  0  0
  5 89  1  0  0  0
  6 25  1  0  0  0
  6 90  1  0  0  0
  6 91  1  0  0  0
  7  8  2  0  0  0
  7 26  1  0  0  0
  7 29  1  0  0  0
  8  9  1  0  0  0
  8 22  1  0  0  0
  9 10  1  0  0  0
  9 27  2  0  0  0
 10 11  2  0  0  0
 10 15  1  0  0  0
 11 12  1  0  0  0
 11 92  1  0  0  0
 12 13  2  0  0  0
 12 93  1  0  0  0
 13 14  1  0  0  0
 13 31  1  0  0  0
 14 15  2  0  0  0
 14 94  1  0  0  0
 15 95  1  0  0  0
 16 17  2  0  0  0
 16 21  1  0  0  0
 16 31  1  0  0  0
 17 18  1  0  0  0
 17 96  1  0  0  0
 18 19  2  0  0  0
 18 97  1  0  0  0
 19 20  1  0  0  0
 19 24  1  0  0  0
 20 21  2  0  0  0
 20 98  1  0  0  0
 21 23  1  0  0  0
 22 28  1  0  0  0
 22 32  2  0  0  0
 26 27  1  0  0  0
 28 99  1  0  0  0
 28100  1  0  0  0
 29101  1  0  0  0
 29102  1  0  0  0
 33 34  1  0  0  0
 33 66  1  0  0  0
 33 70  2  0  0  0
 34 36  1  0  0  0
 34 59  1  0  0  0
 34103  1  0  0  0
 35 44  2  0  0  0
 35 45  1  0  0  0
 35 68  1  0  0  0
 36 56  1  0  0  0
 36104  1  0  0  0
 37 39  1  0  0  0
 37 47  1  0  0  0
 37 66  1  0  0  0
 37105  1  0  0  0
 38 43  2  0  0  0
 38 46  1  0  0  0
 38 47  1  0  0  0
 39 64  1  0  0  0
 39 67  2  0  0  0
 40 52  1  0  0  0
 40 53  2  0  0  0
 40 58  1  0  0  0
 41106  1  0  0  0
 41107  1  0  0  0
 41108  1  0  0  0
 41 48  1  0  0  0
 42 43  1  0  0  0
 42 66  1  0  0  0
 42109  1  0  0  0
 42110  1  0  0  0
 43 44  1  0  0  0
 44111  1  0  0  0
 45 46  2  0  0  0
 45112  1  0  0  0
 46113  1  0  0  0
 47114  1  0  0  0
 47115  1  0  0  0
 48 56  1  0  0  0
 48 65  1  0  0  0
 48116  1  0  0  0
 49 50  1  0  0  0
 49 53  1  0  0  0
 49 64  1  0  0  0
 49117  1  0  0  0
 50 51  1  0  0  0
 50118  1  0  0  0
 50119  1  0  0  0
 51 52  1  0  0  0
 51120  1  0  0  0
 51121  1  0  0  0
 52122  1  0  0  0
 52123  1  0  0  0
 53 54  1  0  0  0
 54 55  2  0  0  0
 54124  1  0  0  0
 55 57  1  0  0  0
 55125  1  0  0  0
 56 69  2  0  0  0
 57 58  2  0  0  0
 57126  1  0  0  0
 58127  1  0  0  0
 59 60  1  0  0  0
 59 61  1  0  0  0
 59 62  1  0  0  0
 60128  1  0  0  0
 60129  1  0  0  0
 60130  1  0  0  0
 61131  1  0  0  0
 61132  1  0  0  0
 61133  1  0  0  0
 62134  1  0  0  0
 62135  1  0  0  0
 62136  1  0  0  0
 63 65  1  0  0  0
 63137  1  0  0  0
 63138  1  0  0  0
 63139  1  0  0  0
 64140  1  0  0  0
 65141  1  0  0  0
 68 81  1  0  0  0
 71 73  2  0  0  0
 71 74  1  0  0  0
 71142  1  0  0  0
 72 73  1  0  0  0
 72 75  2  0  0  0
 72143  1  0  0  0
 73 76  1  0  0  0
 74 77  1  0  0  0
 74 82  2  0  0  0
 75 78  1  0  0  0
 75 82  1  0  0  0
 76144  1  0  0  0
 76145  1  0  0  0
 76146  1  0  0  0
 77 79  1  0  0  0
 77147  1  0  0  0
 77148  1  0  0  0
 78 80  1  0  0  0
 78149  1  0  0  0
 78150  1  0  0  0
 79151  1  0  0  0
 79152  1  0  0  0
 80 81  1  0  0  0
 80153  1  0  0  0
 80154  1  0  0  0
 81155  1  0  0  0
 81156  1  0  0  0
M  ISO  4   1 100  68 101  79 100  81 101
M  END
> <chiral flag>
0

> <version>
0

> <s_m_source_file>
/data/baiqing/PycharmProjects/Reinvent-master-3.2/result/LINK_invent/BTK/process_docking_weight1_custom_sum_contain_oxygen_bond_distance_aromatic_linkinvent_7_9_3/rearranged_h_0038.sdf

> <i_m_source_file_index>
72

> <r_mmod_Potential_Energy-OPLS-2005>
-85.453239440918

> <r_mmod_Stretch_Energy-OPLS-2005>
106.023330688477

> <r_mmod_Bend_Energy-OPLS-2005>
153.145477294922

> <r_mmod_Torsional_Energy-OPLS-2005>
202.378463745117

> <r_mmod_Improper_Torsional_Energy-OPLS-2005>
8.00388431549072

> <r_mmod_Van_der_Waal_Energy-OPLS-2005>
138.739837646484

> <r_mmod_Electrostatic_Energy-OPLS-2005>
-552.879760742188

> <r_mmod_Solvation_Energy-OPLS-2005>
-210.365844726562

> <b_mmod_Minimization_Converged-OPLS-2005>
0

> <r_mmod_RMS_Derivative-OPLS-2005>
3.28032469749451

$$$$
75
                    3D
 Structure written by MMmdl.
165173  0  0  1  0            999 V2000
  -30.7028  -14.4712   20.6109 C   0  0  0  0  0  0
  -30.4316  -12.3305   19.3972 C   0  0  0  0  0  0
  -29.4904  -12.5068   18.1892 C   0  0  0  0  0  0
  -28.0127  -12.3662   18.6092 C   0  0  0  0  0  0
  -27.6601  -13.2040   19.8672 C   0  0  2  0  0  0
  -28.7042  -12.9777   20.9807 C   0  0  0  0  0  0
  -25.2599  -13.8147   20.5664 C   0  0  0  0  0  0
  -24.1853  -13.0432   20.9161 C   0  0  0  0  0  0
  -24.6400  -11.6891   20.8720 C   0  0  0  0  0  0
  -23.9058  -10.4278   21.0395 C   0  0  0  0  0  0
  -24.3608   -9.4205   21.9182 C   0  0  0  0  0  0
  -23.6284   -8.2242   22.0760 C   0  0  0  0  0  0
  -22.4270   -8.0275   21.3548 C   0  0  0  0  0  0
  -21.9904   -9.0248   20.4651 C   0  0  0  0  0  0
  -22.7228  -10.2123   20.3056 C   0  0  0  0  0  0
  -21.6849   -6.0729   22.5276 C   0  0  0  0  0  0
  -21.4008   -6.5639   23.8208 C   0  0  0  0  0  0
  -21.3659   -5.6796   24.9177 C   0  0  0  0  0  0
  -21.6043   -4.3059   24.7233 C   0  0  0  0  0  0
  -21.8822   -3.8143   23.4360 C   0  0  0  0  0  0
  -21.9196   -4.6952   22.3410 C   0  0  0  0  0  0
  -22.7886  -13.5241   21.1827 C   0  0  0  0  0  0
  -22.1666   -4.2130   21.0988 F   0  0  0  0  0  0
  -21.5633   -3.4545   25.7754 F   0  0  0  0  0  0
  -30.0294  -13.3038   20.4237 N   0  0  0  0  0  0
  -26.3023  -12.9306   20.3327 N   0  0  0  0  0  0
  -25.9319  -11.6463   20.5729 N   0  0  0  0  0  0
  -22.0522  -12.8240   22.0373 N   0  0  0  0  0  0
  -25.4355  -15.1874   20.4102 N   0  0  0  0  0  0
  -31.8347  -14.6756   20.1632 O   0  0  0  0  0  0
  -21.6645   -6.8870   21.4236 O   0  0  0  0  0  0
  -22.3570  -14.5543   20.6662 O   0  0  0  0  0  0
  -24.6133  -31.8673   23.2132 C   0  0  0  0  0  0
  -25.9034  -32.4808   23.8413 C   0  0  1  0  0  0
  -27.2266  -27.4114   20.0823 C   0  0  0  0  0  0
  -25.5892  -33.8611   24.2306 N   0  0  0  0  0  0
  -23.4015  -30.4898   21.5536 C   0  0  2  0  0  0
  -24.8455  -28.9578   20.1127 C   0  0  0  0  0  0
  -22.7402  -29.4625   22.4999 C   0  0  0  0  0  0
  -18.0258  -28.1361   22.8466 C   0  0  0  0  0  0
  -24.1495  -36.7310   23.2627 C   0  0  0  0  0  0
  -25.9309  -30.8193   21.3768 C   0  0  0  0  0  0
  -26.0066  -29.4527   20.7196 C   0  0  0  0  0  0
  -27.1949  -28.6831   20.7075 C   0  0  0  0  0  0
  -26.0440  -26.9488   19.4558 C   0  0  0  0  0  0
  -24.8596  -27.7060   19.4815 C   0  0  0  0  0  0
  -23.6094  -29.8251   20.1673 C   0  0  0  0  0  0
  -25.4111  -36.3085   24.0310 C   0  0  1  0  0  0
  -20.5841  -28.3646   23.1314 C   0  0  2  0  0  0
  -20.6748  -26.9384   22.5410 C   0  0  0  0  0  0
  -19.5744  -26.6371   21.5198 C   0  0  0  0  0  0
  -18.1917  -26.7893   22.1602 C   0  0  0  0  0  0
  -19.1503  -28.8816   23.2885 C   0  0  0  0  0  0
  -18.9453  -30.1421   23.8900 C   0  0  0  0  0  0
  -17.6469  -30.6581   24.0539 C   0  0  0  0  0  0
  -25.9033  -34.9455   23.5098 C   0  0  0  0  0  0
  -16.5357  -29.9060   23.6347 C   0  0  0  0  0  0
  -16.7245  -28.6482   23.0342 C   0  0  0  0  0  0
  -26.4482  -31.6597   25.0748 C   0  0  0  0  0  0
  -25.3756  -31.3727   26.1502 C   0  0  0  0  0  0
  -27.0331  -30.3036   24.6156 C   0  0  0  0  0  0
  -27.6018  -32.4349   25.7528 C   0  0  0  0  0  0
  -27.5579  -37.1797   24.8450 C   0  0  0  0  0  0
  -21.4124  -29.3029   22.3749 N   0  0  0  0  0  0
  -26.4292  -37.3766   23.9389 N   0  0  0  0  0  0
  -24.6668  -31.0732   22.1054 N   0  0  0  0  0  0
  -23.4181  -28.8142   23.3014 O   0  0  0  0  0  0
  -28.4054  -26.6847   20.0949 O   0  0  0  0  0  0
  -26.5609  -34.8916   22.4669 O   0  0  0  0  0  0
  -23.5331  -32.1418   23.7525 O   0  0  0  0  0  0
  -30.2693  -22.3288   19.9603 C   0  0  0  0  0  0
  -28.3717  -20.7561   21.2714 C   0  0  0  0  0  0
  -30.3443  -20.9176   19.8665 C   0  0  0  0  0  0
  -29.2490  -22.9717   20.6963 C   0  0  0  0  0  0
  -29.3970  -20.1075   20.5465 C   0  0  0  0  0  0
  -28.2760  -22.1659   21.3443 C   0  0  0  0  0  0
  -31.4590  -20.3113   19.0318 C   0  0  0  0  0  0
  -27.4675  -22.9986   23.6095 C   0  0  0  0  0  0
  -27.1191  -22.7628   22.1356 C   0  0  0  0  0  0
  -29.4209  -18.5647   20.5135 C   0  0  0  0  0  0
  -29.2666  -24.5055   20.8236 C   0  0  0  0  0  0
  -30.7200  -17.9019   21.0424 C   0  0  0  0  0  0
  -30.5562  -16.6291   21.9157 C   0  0  0  0  0  0
  -28.3857  -25.2687   19.8080 C   0  0  0  0  0  0
  -30.0152  -15.4291   21.2610 N   0  0  0  0  0  0
  -31.4678  -12.4637   19.0835 H   0  0  0  0  0  0
  -30.3676  -11.3158   19.7934 H   0  0  0  0  0  0
  -29.7280  -11.7723   17.4183 H   0  0  0  0  0  0
  -29.6521  -13.4864   17.7373 H   0  0  0  0  0  0
  -27.8236  -11.3093   18.8028 H   0  0  0  0  0  0
  -27.3600  -12.6440   17.7807 H   0  0  0  0  0  0
  -27.7073  -14.2530   19.5715 H   0  0  0  0  0  0
  -28.6914  -11.9367   21.3070 H   0  0  0  0  0  0
  -28.4563  -13.5611   21.8686 H   0  0  0  0  0  0
  -25.2755   -9.5685   22.4755 H   0  0  0  0  0  0
  -23.9989   -7.4645   22.7490 H   0  0  0  0  0  0
  -21.0833   -8.8759   19.8968 H   0  0  0  0  0  0
  -22.3679  -10.9659   19.6162 H   0  0  0  0  0  0
  -21.1988   -7.6143   23.9698 H   0  0  0  0  0  0
  -21.1482   -6.0536   25.9077 H   0  0  0  0  0  0
  -22.0600   -2.7599   23.2871 H   0  0  0  0  0  0
  -22.4131  -11.9899   22.4760 H   0  0  0  0  0  0
  -21.1142  -13.1270   22.2565 H   0  0  0  0  0  0
  -24.6716  -15.8453   20.5213 H   0  0  0  0  0  0
  -26.2918  -15.6246   20.0926 H   0  0  0  0  0  0
  -26.7078  -32.5520   23.1151 H   0  0  0  0  0  0
  -25.0048  -33.9764   25.0458 H   0  0  0  0  0  0
  -22.6902  -31.3067   21.4175 H   0  0  0  0  0  0
  -23.3750  -35.9652   23.3296 H   0  0  0  0  0  0
  -24.3587  -36.8935   22.2043 H   0  0  0  0  0  0
  -23.7281  -37.6513   23.6682 H   0  0  0  0  0  0
  -26.0458  -31.5888   20.6127 H   0  0  0  0  0  0
  -26.8175  -30.8700   21.9974 H   0  0  0  0  0  0
  -28.0888  -29.0503   21.1928 H   0  0  0  0  0  0
  -26.0039  -26.0130   18.9198 H   0  0  0  0  0  0
  -23.9685  -27.3273   18.9974 H   0  0  0  0  0  0
  -23.7120  -30.5999   19.4063 H   0  0  0  0  0  0
  -22.7335  -29.2436   19.8762 H   0  0  0  0  0  0
  -25.1297  -36.1911   25.0800 H   0  0  0  0  0  0
  -20.9936  -28.3210   24.1429 H   0  0  0  0  0  0
  -20.5682  -26.2246   23.3590 H   0  0  0  0  0  0
  -21.6613  -26.7432   22.1200 H   0  0  0  0  0  0
  -19.6926  -25.6292   21.1203 H   0  0  0  0  0  0
  -19.6684  -27.3197   20.6743 H   0  0  0  0  0  0
  -17.4180  -26.6639   21.4000 H   0  0  0  0  0  0
  -18.0315  -26.0038   22.9004 H   0  0  0  0  0  0
  -19.7953  -30.7200   24.2301 H   0  0  0  0  0  0
  -17.5034  -31.6277   24.5121 H   0  0  0  0  0  0
  -15.5351  -30.2954   23.7710 H   0  0  0  0  0  0
  -15.8631  -28.0811   22.7057 H   0  0  0  0  0  0
  -24.5898  -30.7099   25.7858 H   0  0  0  0  0  0
  -24.9012  -32.2916   26.4965 H   0  0  0  0  0  0
  -25.8120  -30.8887   27.0251 H   0  0  0  0  0  0
  -26.2896  -29.6787   24.1198 H   0  0  0  0  0  0
  -27.4051  -29.7269   25.4633 H   0  0  0  0  0  0
  -27.8758  -30.4319   23.9355 H   0  0  0  0  0  0
  -27.2569  -33.3615   26.2134 H   0  0  0  0  0  0
  -28.3845  -32.6965   25.0393 H   0  0  0  0  0  0
  -28.0694  -31.8484   26.5446 H   0  0  0  0  0  0
  -28.2554  -38.0131   24.7509 H   0  0  0  0  0  0
  -28.1118  -36.2654   24.6265 H   0  0  0  0  0  0
  -27.2296  -37.1392   25.8850 H   0  0  0  0  0  0
  -20.9285  -29.8763   21.6971 H   0  0  0  0  0  0
  -26.0180  -38.2826   24.1432 H   0  0  0  0  0  0
  -31.0187  -22.9319   19.4654 H   0  0  0  0  0  0
  -27.6330  -20.1592   21.7898 H   0  0  0  0  0  0
  -31.8425  -21.0286   18.3047 H   0  0  0  0  0  0
  -31.1156  -19.4394   18.4764 H   0  0  0  0  0  0
  -32.2886  -20.0080   19.6685 H   0  0  0  0  0  0
  -26.6157  -23.4133   24.1504 H   0  0  0  0  0  0
  -28.2978  -23.6957   23.7215 H   0  0  0  0  0  0
  -27.7490  -22.0645   24.0945 H   0  0  0  0  0  0
  -26.2652  -22.0841   22.0781 H   0  0  0  0  0  0
  -26.7765  -23.6911   21.6815 H   0  0  0  0  0  0
  -29.2252  -18.2253   19.4957 H   0  0  0  0  0  0
  -28.5769  -18.1977   21.0988 H   0  0  0  0  0  0
  -30.2946  -24.8561   20.7362 H   0  0  0  0  0  0
  -28.9592  -24.7813   21.8312 H   0  0  0  0  0  0
  -31.2285  -18.6321   21.6729 H   0  0  0  0  0  0
  -31.4098  -17.7037   20.2226 H   0  0  0  0  0  0
  -29.9085  -16.8635   22.7620 H   0  0  0  0  0  0
  -31.5219  -16.3728   22.3568 H   0  0  0  0  0  0
  -27.3932  -24.8314   19.8623 H   0  0  0  0  0  0
  -28.7483  -25.1038   18.7916 H   0  0  0  0  0  0
  -29.0596  -15.1935   21.4884 H   0  0  0  0  0  0
  1 25  1  0  0  0
  1 30  2  0  0  0
  1 85  1  0  0  0
  2  3  1  0  0  0
  2 25  1  0  0  0
  2 86  1  0  0  0
  2 87  1  0  0  0
  3  4  1  0  0  0
  3 88  1  0  0  0
  3 89  1  0  0  0
  4  5  1  0  0  0
  4 90  1  0  0  0
  4 91  1  0  0  0
  5  6  1  0  0  0
  5 26  1  0  0  0
  5 92  1  0  0  0
  6 25  1  0  0  0
  6 93  1  0  0  0
  6 94  1  0  0  0
  7  8  2  0  0  0
  7 26  1  0  0  0
  7 29  1  0  0  0
  8  9  1  0  0  0
  8 22  1  0  0  0
  9 10  1  0  0  0
  9 27  2  0  0  0
 10 11  2  0  0  0
 10 15  1  0  0  0
 11 12  1  0  0  0
 11 95  1  0  0  0
 12 13  2  0  0  0
 12 96  1  0  0  0
 13 14  1  0  0  0
 13 31  1  0  0  0
 14 15  2  0  0  0
 14 97  1  0  0  0
 15 98  1  0  0  0
 16 17  2  0  0  0
 16 21  1  0  0  0
 16 31  1  0  0  0
 17 18  1  0  0  0
 17 99  1  0  0  0
 18 19  2  0  0  0
 18100  1  0  0  0
 19 20  1  0  0  0
 19 24  1  0  0  0
 20 21  2  0  0  0
 20101  1  0  0  0
 21 23  1  0  0  0
 22 28  1  0  0  0
 22 32  2  0  0  0
 26 27  1  0  0  0
 28102  1  0  0  0
 28103  1  0  0  0
 29104  1  0  0  0
 29105  1  0  0  0
 33 34  1  0  0  0
 33 66  1  0  0  0
 33 70  2  0  0  0
 34 36  1  0  0  0
 34 59  1  0  0  0
 34106  1  0  0  0
 35 44  2  0  0  0
 35 45  1  0  0  0
 35 68  1  0  0  0
 36 56  1  0  0  0
 36107  1  0  0  0
 37 39  1  0  0  0
 37 47  1  0  0  0
 37 66  1  0  0  0
 37108  1  0  0  0
 38 43  2  0  0  0
 38 46  1  0  0  0
 38 47  1  0  0  0
 39 64  1  0  0  0
 39 67  2  0  0  0
 40 52  1  0  0  0
 40 53  2  0  0  0
 40 58  1  0  0  0
 41109  1  0  0  0
 41110  1  0  0  0
 41111  1  0  0  0
 41 48  1  0  0  0
 42 43  1  0  0  0
 42 66  1  0  0  0
 42112  1  0  0  0
 42113  1  0  0  0
 43 44  1  0  0  0
 44114  1  0  0  0
 45 46  2  0  0  0
 45115  1  0  0  0
 46116  1  0  0  0
 47117  1  0  0  0
 47118  1  0  0  0
 48 56  1  0  0  0
 48 65  1  0  0  0
 48119  1  0  0  0
 49 50  1  0  0  0
 49 53  1  0  0  0
 49 64  1  0  0  0
 49120  1  0  0  0
 50 51  1  0  0  0
 50121  1  0  0  0
 50122  1  0  0  0
 51 52  1  0  0  0
 51123  1  0  0  0
 51124  1  0  0  0
 52125  1  0  0  0
 52126  1  0  0  0
 53 54  1  0  0  0
 54 55  2  0  0  0
 54127  1  0  0  0
 55 57  1  0  0  0
 55128  1  0  0  0
 56 69  2  0  0  0
 57 58  2  0  0  0
 57129  1  0  0  0
 58130  1  0  0  0
 59 60  1  0  0  0
 59 61  1  0  0  0
 59 62  1  0  0  0
 60131  1  0  0  0
 60132  1  0  0  0
 60133  1  0  0  0
 61134  1  0  0  0
 61135  1  0  0  0
 61136  1  0  0  0
 62137  1  0  0  0
 62138  1  0  0  0
 62139  1  0  0  0
 63 65  1  0  0  0
 63140  1  0  0  0
 63141  1  0  0  0
 63142  1  0  0  0
 64143  1  0  0  0
 65144  1  0  0  0
 68 84  1  0  0  0
 71 73  2  0  0  0
 71 74  1  0  0  0
 71145  1  0  0  0
 72 75  2  0  0  0
 72 76  1  0  0  0
 72146  1  0  0  0
 73 75  1  0  0  0
 73 77  1  0  0  0
 74 76  2  0  0  0
 74 81  1  0  0  0
 75 80  1  0  0  0
 76 79  1  0  0  0
 77147  1  0  0  0
 77148  1  0  0  0
 77149  1  0  0  0
 78 79  1  0  0  0
 78150  1  0  0  0
 78151  1  0  0  0
 78152  1  0  0  0
 79153  1  0  0  0
 79154  1  0  0  0
 80 82  1  0  0  0
 80155  1  0  0  0
 80156  1  0  0  0
 81 84  1  0  0  0
 81157  1  0  0  0
 81158  1  0  0  0
 82 83  1  0  0  0
 82159  1  0  0  0
 82160  1  0  0  0
 83 85  1  0  0  0
 83161  1  0  0  0
 83162  1  0  0  0
 84163  1  0  0  0
 84164  1  0  0  0
 85165  1  0  0  0
M  ISO  4   1 100  68 101  84 101  85 100
M  END
> <chiral flag>
0

> <version>
0

> <s_m_source_file>
/data/baiqing/PycharmProjects/Reinvent-master-3.2/result/LINK_invent/BTK/process_docking_weight1_custom_sum_contain_oxygen_bond_distance_aromatic_linkinvent_7_9_3/rearranged_h_0038.sdf

> <i_m_source_file_index>
73

> <r_mmod_Potential_Energy-OPLS-2005>
-65.9344253540039

> <r_mmod_Stretch_Energy-OPLS-2005>
40.193042755127

> <r_mmod_Bend_Energy-OPLS-2005>
106.75732421875

> <r_mmod_Torsional_Energy-OPLS-2005>
208.438293457031

> <r_mmod_Improper_Torsional_Energy-OPLS-2005>
2.51394462585449

> <r_mmod_Van_der_Waal_Energy-OPLS-2005>
152.03157043457

> <r_mmod_Electrostatic_Energy-OPLS-2005>
-389.998107910156

> <r_mmod_Solvation_Energy-OPLS-2005>
-200.894134521484

> <b_mmod_Minimization_Converged-OPLS-2005>
0

> <r_mmod_RMS_Derivative-OPLS-2005>
2.98246765136719

$$$$
76
                    3D
 Structure written by MMmdl.
162170  0  0  1  0            999 V2000
  -30.7413  -14.4024   20.6350 C   0  0  0  0  0  0
  -30.4213  -12.2891   19.4051 C   0  0  0  0  0  0
  -29.4866  -12.4965   18.1972 C   0  0  0  0  0  0
  -28.0097  -12.3630   18.6142 C   0  0  0  0  0  0
  -27.6650  -13.1998   19.8753 C   0  0  2  0  0  0
  -28.7043  -12.9543   20.9914 C   0  0  0  0  0  0
  -25.2609  -13.8151   20.5653 C   0  0  0  0  0  0
  -24.1851  -13.0449   20.9152 C   0  0  0  0  0  0
  -24.6385  -11.6904   20.8703 C   0  0  0  0  0  0
  -23.9041  -10.4296   21.0367 C   0  0  0  0  0  0
  -24.3609   -9.4221   21.9156 C   0  0  0  0  0  0
  -23.6282   -8.2259   22.0744 C   0  0  0  0  0  0
  -22.4260   -8.0286   21.3539 C   0  0  0  0  0  0
  -21.9885   -9.0249   20.4634 C   0  0  0  0  0  0
  -22.7200  -10.2135   20.3024 C   0  0  0  0  0  0
  -21.6860   -6.0734   22.5273 C   0  0  0  0  0  0
  -21.4024   -6.5642   23.8203 C   0  0  0  0  0  0
  -21.3648   -5.6789   24.9160 C   0  0  0  0  0  0
  -21.6040   -4.3050   24.7210 C   0  0  0  0  0  0
  -21.8826   -3.8143   23.4337 C   0  0  0  0  0  0
  -21.9195   -4.6962   22.3394 C   0  0  0  0  0  0
  -22.7875  -13.5250   21.1805 C   0  0  0  0  0  0
  -22.1664   -4.2149   21.0968 F   0  0  0  0  0  0
  -21.5609   -3.4539   25.7727 F   0  0  0  0  0  0
  -30.0413  -13.2534   20.4479 N   0  0  0  0  0  0
  -26.3040  -12.9308   20.3355 N   0  0  0  0  0  0
  -25.9310  -11.6479   20.5756 N   0  0  0  0  0  0
  -22.0528  -12.8254   22.0385 N   0  0  0  0  0  0
  -25.4372  -15.1866   20.4057 N   0  0  0  0  0  0
  -31.8243  -14.6315   20.0905 O   0  0  0  0  0  0
  -21.6639   -6.8875   21.4231 O   0  0  0  0  0  0
  -22.3546  -14.5535   20.6616 O   0  0  0  0  0  0
  -24.6105  -31.8699   23.2114 C   0  0  0  0  0  0
  -25.9007  -32.4834   23.8407 C   0  0  1  0  0  0
  -27.2504  -27.4766   20.0942 C   0  0  0  0  0  0
  -25.5878  -33.8632   24.2352 N   0  0  0  0  0  0
  -23.3986  -30.4913   21.5489 C   0  0  2  0  0  0
  -24.8505  -28.9558   20.1181 C   0  0  0  0  0  0
  -22.7392  -29.4669   22.4995 C   0  0  0  0  0  0
  -18.0269  -28.1376   22.8487 C   0  0  0  0  0  0
  -24.1485  -36.7324   23.2641 C   0  0  0  0  0  0
  -25.9210  -30.8481   21.3583 C   0  0  0  0  0  0
  -26.0032  -29.4805   20.7165 C   0  0  0  0  0  0
  -27.2061  -28.7447   20.7097 C   0  0  0  0  0  0
  -26.0891  -26.9567   19.4891 C   0  0  0  0  0  0
  -24.8845  -27.6883   19.5067 C   0  0  0  0  0  0
  -23.6077  -29.8163   20.1657 C   0  0  0  0  0  0
  -25.4098  -36.3119   24.0352 C   0  0  1  0  0  0
  -20.5856  -28.3656   23.1324 C   0  0  2  0  0  0
  -20.6764  -26.9398   22.5413 C   0  0  0  0  0  0
  -19.5750  -26.6389   21.5203 C   0  0  0  0  0  0
  -18.1925  -26.7930   22.1613 C   0  0  0  0  0  0
  -19.1516  -28.8832   23.2905 C   0  0  0  0  0  0
  -18.9452  -30.1437   23.8916 C   0  0  0  0  0  0
  -17.6455  -30.6579   24.0570 C   0  0  0  0  0  0
  -25.9016  -34.9482   23.5148 C   0  0  0  0  0  0
  -16.5344  -29.9084   23.6323 C   0  0  0  0  0  0
  -16.7263  -28.6503   23.0338 C   0  0  0  0  0  0
  -26.4463  -31.6589   25.0704 C   0  0  0  0  0  0
  -25.3768  -31.3668   26.1480 C   0  0  0  0  0  0
  -27.0284  -30.3046   24.6027 C   0  0  0  0  0  0
  -27.6060  -32.4295   25.7447 C   0  0  0  0  0  0
  -27.5584  -37.1804   24.8465 C   0  0  0  0  0  0
  -21.4124  -29.3031   22.3728 N   0  0  0  0  0  0
  -26.4292  -37.3798   23.9416 N   0  0  0  0  0  0
  -24.6608  -31.0838   22.0991 N   0  0  0  0  0  0
  -23.4170  -28.8222   23.3043 O   0  0  0  0  0  0
  -28.4149  -26.7529   20.0424 O   0  0  0  0  0  0
  -26.5583  -34.8932   22.4711 O   0  0  0  0  0  0
  -23.5304  -32.1431   23.7528 O   0  0  0  0  0  0
  -29.2720  -21.2921   21.0693 C   0  0  0  0  0  0
  -29.0434  -22.4642   20.2929 C   0  0  0  0  0  0
  -28.5856  -20.3023   20.4184 C   0  0  0  0  0  0
  -27.1358  -20.2984   18.3135 C   0  0  0  0  0  0
  -29.5361  -23.8695   20.5242 C   0  0  0  0  0  0
  -28.4167  -18.8433   20.7341 C   0  0  0  0  0  0
  -28.5362  -24.7155   21.3329 C   0  0  0  0  0  0
  -29.3453  -17.9107   19.9302 C   0  0  0  0  0  0
  -30.7086  -17.6378   20.5959 C   0  0  0  0  0  0
  -30.6821  -16.6336   21.7741 C   0  0  0  0  0  0
  -28.8442  -26.2213   21.2946 C   0  0  0  0  0  0
  -28.2664  -22.2157   19.2491 N   0  0  0  0  0  0
  -27.9896  -20.8967   19.3208 N   0  0  0  0  0  0
  -30.1496  -15.3131   21.4223 N   0  0  0  0  0  0
  -31.4623  -12.3939   19.0952 H   0  0  0  0  0  0
  -30.3284  -11.2719   19.7891 H   0  0  0  0  0  0
  -29.7207  -11.7716   17.4173 H   0  0  0  0  0  0
  -29.6582  -13.4803   17.7583 H   0  0  0  0  0  0
  -27.8133  -11.3076   18.8088 H   0  0  0  0  0  0
  -27.3578  -12.6394   17.7845 H   0  0  0  0  0  0
  -27.7190  -14.2517   19.5936 H   0  0  0  0  0  0
  -28.6722  -11.9111   21.3076 H   0  0  0  0  0  0
  -28.4577  -13.5301   21.8829 H   0  0  0  0  0  0
  -25.2764   -9.5709   22.4716 H   0  0  0  0  0  0
  -23.9993   -7.4660   22.7468 H   0  0  0  0  0  0
  -21.0814   -8.8742   19.8953 H   0  0  0  0  0  0
  -22.3631  -10.9661   19.6130 H   0  0  0  0  0  0
  -21.2042   -7.6152   23.9699 H   0  0  0  0  0  0
  -21.1450   -6.0525   25.9061 H   0  0  0  0  0  0
  -22.0619   -2.7609   23.2829 H   0  0  0  0  0  0
  -22.4159  -11.9943   22.4812 H   0  0  0  0  0  0
  -21.1132  -13.1245   22.2557 H   0  0  0  0  0  0
  -24.6794  -15.8501   20.5248 H   0  0  0  0  0  0
  -26.2938  -15.6153   20.0795 H   0  0  0  0  0  0
  -26.7084  -32.5576   23.1186 H   0  0  0  0  0  0
  -25.0038  -33.9794   25.0504 H   0  0  0  0  0  0
  -22.6859  -31.3061   21.4065 H   0  0  0  0  0  0
  -23.3743  -35.9660   23.3302 H   0  0  0  0  0  0
  -24.3592  -36.8927   22.2055 H   0  0  0  0  0  0
  -23.7234  -37.6534   23.6643 H   0  0  0  0  0  0
  -26.0204  -31.6085   20.5821 H   0  0  0  0  0  0
  -26.8146  -30.9134   21.9672 H   0  0  0  0  0  0
  -28.1003  -29.1525   21.1606 H   0  0  0  0  0  0
  -26.1217  -25.9885   19.0097 H   0  0  0  0  0  0
  -23.9988  -27.2768   19.0426 H   0  0  0  0  0  0
  -23.7115  -30.5874   19.4018 H   0  0  0  0  0  0
  -22.7354  -29.2291   19.8738 H   0  0  0  0  0  0
  -25.1268  -36.1993   25.0847 H   0  0  0  0  0  0
  -20.9957  -28.3225   24.1443 H   0  0  0  0  0  0
  -20.5664  -26.2269   23.3597 H   0  0  0  0  0  0
  -21.6637  -26.7443   22.1210 H   0  0  0  0  0  0
  -19.6910  -25.6306   21.1215 H   0  0  0  0  0  0
  -19.6694  -27.3219   20.6751 H   0  0  0  0  0  0
  -17.4199  -26.6681   21.4010 H   0  0  0  0  0  0
  -18.0321  -26.0060   22.9001 H   0  0  0  0  0  0
  -19.7925  -30.7245   24.2297 H   0  0  0  0  0  0
  -17.5009  -31.6264   24.5169 H   0  0  0  0  0  0
  -15.5344  -30.2994   23.7637 H   0  0  0  0  0  0
  -15.8662  -28.0834   22.7034 H   0  0  0  0  0  0
  -24.5942  -30.7005   25.7833 H   0  0  0  0  0  0
  -24.8961  -32.2811   26.4973 H   0  0  0  0  0  0
  -25.8164  -30.8819   27.0207 H   0  0  0  0  0  0
  -26.2792  -29.6793   24.1159 H   0  0  0  0  0  0
  -27.4168  -29.7287   25.4435 H   0  0  0  0  0  0
  -27.8577  -30.4386   23.9077 H   0  0  0  0  0  0
  -27.2697  -33.3577   26.2085 H   0  0  0  0  0  0
  -28.3832  -32.6883   25.0242 H   0  0  0  0  0  0
  -28.0778  -31.8383   26.5307 H   0  0  0  0  0  0
  -28.2599  -38.0107   24.7522 H   0  0  0  0  0  0
  -28.1082  -36.2638   24.6266 H   0  0  0  0  0  0
  -27.2315  -37.1432   25.8874 H   0  0  0  0  0  0
  -20.9278  -29.8740   21.6942 H   0  0  0  0  0  0
  -26.0186  -38.2879   24.1426 H   0  0  0  0  0  0
  -29.8506  -21.1924   21.9772 H   0  0  0  0  0  0
  -26.1754  -20.0375   18.7575 H   0  0  0  0  0  0
  -27.5999  -19.3947   17.9209 H   0  0  0  0  0  0
  -26.9662  -20.9890   17.4867 H   0  0  0  0  0  0
  -29.7269  -24.3512   19.5636 H   0  0  0  0  0  0
  -30.4983  -23.8511   21.0381 H   0  0  0  0  0  0
  -27.3845  -18.5640   20.5222 H   0  0  0  0  0  0
  -28.5370  -18.6767   21.8043 H   0  0  0  0  0  0
  -28.5328  -24.3622   22.3642 H   0  0  0  0  0  0
  -27.5243  -24.5583   20.9576 H   0  0  0  0  0  0
  -29.5021  -18.3299   18.9359 H   0  0  0  0  0  0
  -28.8400  -16.9603   19.7569 H   0  0  0  0  0  0
  -31.1430  -18.5803   20.9334 H   0  0  0  0  0  0
  -31.3969  -17.2685   19.8339 H   0  0  0  0  0  0
  -30.0868  -17.0390   22.5924 H   0  0  0  0  0  0
  -31.6915  -16.5110   22.1719 H   0  0  0  0  0  0
  -29.9134  -26.4003   21.4160 H   0  0  0  0  0  0
  -28.3570  -26.7171   22.1365 H   0  0  0  0  0  0
  -29.2666  -15.0476   21.8333 H   0  0  0  0  0  0
  1 25  1  0  0  0
  1 30  2  0  0  0
  1 84  1  0  0  0
  2  3  1  0  0  0
  2 25  1  0  0  0
  2 85  1  0  0  0
  2 86  1  0  0  0
  3  4  1  0  0  0
  3 87  1  0  0  0
  3 88  1  0  0  0
  4  5  1  0  0  0
  4 89  1  0  0  0
  4 90  1  0  0  0
  5  6  1  0  0  0
  5 26  1  0  0  0
  5 91  1  0  0  0
  6 25  1  0  0  0
  6 92  1  0  0  0
  6 93  1  0  0  0
  7  8  2  0  0  0
  7 26  1  0  0  0
  7 29  1  0  0  0
  8  9  1  0  0  0
  8 22  1  0  0  0
  9 10  1  0  0  0
  9 27  2  0  0  0
 10 11  2  0  0  0
 10 15  1  0  0  0
 11 12  1  0  0  0
 11 94  1  0  0  0
 12 13  2  0  0  0
 12 95  1  0  0  0
 13 14  1  0  0  0
 13 31  1  0  0  0
 14 15  2  0  0  0
 14 96  1  0  0  0
 15 97  1  0  0  0
 16 17  2  0  0  0
 16 21  1  0  0  0
 16 31  1  0  0  0
 17 18  1  0  0  0
 17 98  1  0  0  0
 18 19  2  0  0  0
 18 99  1  0  0  0
 19 20  1  0  0  0
 19 24  1  0  0  0
 20 21  2  0  0  0
 20100  1  0  0  0
 21 23  1  0  0  0
 22 28  1  0  0  0
 22 32  2  0  0  0
 26 27  1  0  0  0
 28101  1  0  0  0
 28102  1  0  0  0
 29103  1  0  0  0
 29104  1  0  0  0
 33 34  1  0  0  0
 33 66  1  0  0  0
 33 70  2  0  0  0
 34 36  1  0  0  0
 34 59  1  0  0  0
 34105  1  0  0  0
 35 44  2  0  0  0
 35 45  1  0  0  0
 35 68  1  0  0  0
 36 56  1  0  0  0
 36106  1  0  0  0
 37 39  1  0  0  0
 37 47  1  0  0  0
 37 66  1  0  0  0
 37107  1  0  0  0
 38 43  2  0  0  0
 38 46  1  0  0  0
 38 47  1  0  0  0
 39 64  1  0  0  0
 39 67  2  0  0  0
 40 52  1  0  0  0
 40 53  2  0  0  0
 40 58  1  0  0  0
 41108  1  0  0  0
 41109  1  0  0  0
 41110  1  0  0  0
 41 48  1  0  0  0
 42 43  1  0  0  0
 42 66  1  0  0  0
 42111  1  0  0  0
 42112  1  0  0  0
 43 44  1  0  0  0
 44113  1  0  0  0
 45 46  2  0  0  0
 45114  1  0  0  0
 46115  1  0  0  0
 47116  1  0  0  0
 47117  1  0  0  0
 48 56  1  0  0  0
 48 65  1  0  0  0
 48118  1  0  0  0
 49 50  1  0  0  0
 49 53  1  0  0  0
 49 64  1  0  0  0
 49119  1  0  0  0
 50 51  1  0  0  0
 50120  1  0  0  0
 50121  1  0  0  0
 51 52  1  0  0  0
 51122  1  0  0  0
 51123  1  0  0  0
 52124  1  0  0  0
 52125  1  0  0  0
 53 54  1  0  0  0
 54 55  2  0  0  0
 54126  1  0  0  0
 55 57  1  0  0  0
 55127  1  0  0  0
 56 69  2  0  0  0
 57 58  2  0  0  0
 57128  1  0  0  0
 58129  1  0  0  0
 59 60  1  0  0  0
 59 61  1  0  0  0
 59 62  1  0  0  0
 60130  1  0  0  0
 60131  1  0  0  0
 60132  1  0  0  0
 61133  1  0  0  0
 61134  1  0  0  0
 61135  1  0  0  0
 62136  1  0  0  0
 62137  1  0  0  0
 62138  1  0  0  0
 63 65  1  0  0  0
 63139  1  0  0  0
 63140  1  0  0  0
 63141  1  0  0  0
 64142  1  0  0  0
 65143  1  0  0  0
 68 81  1  0  0  0
 71 72  1  0  0  0
 71 73  2  0  0  0
 71144  1  0  0  0
 72 75  1  0  0  0
 72 82  2  0  0  0
 73 76  1  0  0  0
 73 83  1  0  0  0
 74 83  1  0  0  0
 74145  1  0  0  0
 74146  1  0  0  0
 74147  1  0  0  0
 75 77  1  0  0  0
 75148  1  0  0  0
 75149  1  0  0  0
 76 78  1  0  0  0
 76150  1  0  0  0
 76151  1  0  0  0
 77 81  1  0  0  0
 77152  1  0  0  0
 77153  1  0  0  0
 78 79  1  0  0  0
 78154  1  0  0  0
 78155  1  0  0  0
 79 80  1  0  0  0
 79156  1  0  0  0
 79157  1  0  0  0
 80 84  1  0  0  0
 80158  1  0  0  0
 80159  1  0  0  0
 81160  1  0  0  0
 81161  1  0  0  0
 82 83  1  0  0  0
 84162  1  0  0  0
M  ISO  4   1 100  68 101  81 101  84 100
M  END
> <chiral flag>
0

> <version>
0

> <s_m_source_file>
/data/baiqing/PycharmProjects/Reinvent-master-3.2/result/LINK_invent/BTK/process_docking_weight1_custom_sum_contain_oxygen_bond_distance_aromatic_linkinvent_7_9_3/rearranged_h_0038.sdf

> <i_m_source_file_index>
74

> <r_mmod_Potential_Energy-OPLS-2005>
-171.86882019043

> <r_mmod_Stretch_Energy-OPLS-2005>
30.66650390625

> <r_mmod_Bend_Energy-OPLS-2005>
87.1659545898438

> <r_mmod_Torsional_Energy-OPLS-2005>
227.572296142578

> <r_mmod_Improper_Torsional_Energy-OPLS-2005>
1.94087541103363

> <r_mmod_Van_der_Waal_Energy-OPLS-2005>
120.540924072266

> <r_mmod_Electrostatic_Energy-OPLS-2005>
-423.312896728516

> <r_mmod_Solvation_Energy-OPLS-2005>
-223.510772705078

> <b_mmod_Minimization_Converged-OPLS-2005>
0

> <r_mmod_RMS_Derivative-OPLS-2005>
1.78338968753815

$$$$
77
                    3D
 Structure written by MMmdl.
176184  0  0  1  0            999 V2000
  -29.1077  -15.9882   20.8042 C   0  0  0  0  0  0
  -30.1632  -13.5388   19.7879 C   0  0  0  0  0  0
  -29.5350  -12.8852   18.4920 C   0  0  0  0  0  0
  -28.1254  -12.3352   18.7817 C   0  0  0  0  0  0
  -27.4575  -13.2674   19.8149 C   0  0  2  0  0  0
  -28.2714  -13.5285   21.0767 C   0  0  0  0  0  0
  -25.1586  -13.8036   20.5578 C   0  0  0  0  0  0
  -24.1184  -13.0266   20.9498 C   0  0  0  0  0  0
  -24.5867  -11.6767   20.8912 C   0  0  0  0  0  0
  -23.8708  -10.4192   21.0506 C   0  0  0  0  0  0
  -24.3435   -9.4160   21.9230 C   0  0  0  0  0  0
  -23.6185   -8.2175   22.0760 C   0  0  0  0  0  0
  -22.4184   -8.0205   21.3558 C   0  0  0  0  0  0
  -21.9733   -9.0127   20.4679 C   0  0  0  0  0  0
  -22.6953  -10.2034   20.3073 C   0  0  0  0  0  0
  -21.6829   -6.0689   22.5280 C   0  0  0  0  0  0
  -21.4006   -6.5614   23.8205 C   0  0  0  0  0  0
  -21.3639   -5.6777   24.9181 C   0  0  0  0  0  0
  -21.6018   -4.3035   24.7247 C   0  0  0  0  0  0
  -21.8805   -3.8116   23.4375 C   0  0  0  0  0  0
  -21.9174   -4.6919   22.3424 C   0  0  0  0  0  0
  -22.7326  -13.5094   21.2175 C   0  0  0  0  0  0
  -22.1664   -4.2082   21.1011 F   0  0  0  0  0  0
  -21.5617   -3.4550   25.7777 F   0  0  0  0  0  0
  -29.1888  -14.5043   20.5765 N   0  0  0  0  0  0
  -26.1588  -12.9137   20.2498 N   0  0  0  0  0  0
  -25.8615  -11.6332   20.5418 N   0  0  0  0  0  0
  -22.0075  -12.8186   22.0864 N   0  0  0  0  0  0
  -25.3269  -15.1776   20.4018 N   0  0  0  0  0  0
  -30.3589  -16.2103   20.6062 O   0  0  0  0  0  0
  -21.6609   -6.8798   21.4232 O   0  0  0  0  0  0
  -22.3088  -14.5327   20.6794 O   0  0  0  0  0  0
  -24.6593  -31.9367   23.2682 C   0  0  0  0  0  0
  -25.9524  -32.5210   23.8930 C   0  0  1  0  0  0
  -27.1058  -27.4640   19.9631 C   0  0  0  0  0  0
  -25.6352  -33.8949   24.2783 N   0  0  0  0  0  0
  -23.4596  -30.6160   21.6352 C   0  0  2  0  0  0
  -24.8320  -29.1365   20.2031 C   0  0  0  0  0  0
  -22.9619  -29.4787   22.5438 C   0  0  0  0  0  0
  -18.3873  -27.3514   22.9764 C   0  0  0  0  0  0
  -24.1504  -36.7429   23.2577 C   0  0  0  0  0  0
  -26.0133  -30.8641   21.4653 C   0  0  0  0  0  0
  -26.0400  -29.5057   20.8078 C   0  0  0  0  0  0
  -27.1917  -28.6506   20.7526 C   0  0  0  0  0  0
  -25.9125  -27.3215   19.3025 C   0  0  0  0  0  0
  -24.7280  -27.9668   19.5057 C   0  0  0  0  0  0
  -23.6816  -30.0905   20.2181 C   0  0  0  0  0  0
  -25.4109  -36.3287   24.0340 C   0  0  1  0  0  0
  -21.2408  -27.8455   22.9357 C   0  0  2  0  0  0
  -21.9006  -26.5631   21.5356 C   0  0  0  0  0  0
  -20.0665  -25.2039   20.9365 C   0  0  0  0  0  0
  -18.5447  -25.7904   22.1084 C   0  0  0  0  0  0
  -19.5765  -28.1949   23.3943 C   0  0  0  0  0  0
  -19.2732  -29.5451   23.8830 C   0  0  0  0  0  0
  -17.9903  -30.1493   23.9698 C   0  0  0  0  0  0
  -25.9097  -34.9671   23.5250 C   0  0  0  0  0  0
  -16.8897  -29.4041   23.5268 C   0  0  0  0  0  0
  -17.1021  -28.0644   23.0492 C   0  0  0  0  0  0
  -26.4720  -31.6779   25.1171 C   0  0  0  0  0  0
  -25.3839  -31.3918   26.1768 C   0  0  0  0  0  0
  -27.0408  -30.3164   24.6500 C   0  0  0  0  0  0
  -27.6321  -32.4348   25.8021 C   0  0  0  0  0  0
  -27.5594  -37.1938   24.8463 C   0  0  0  0  0  0
  -21.6932  -29.1552   22.4762 N   0  0  0  0  0  0
  -26.4309  -37.3948   23.9410 N   0  0  0  0  0  0
  -24.7355  -31.1666   22.1622 N   0  0  0  0  0  0
  -23.7148  -28.8553   23.2891 O   0  0  0  0  0  0
  -28.0700  -26.4935   19.6823 O   0  0  0  0  0  0
  -26.5428  -34.8989   22.4674 O   0  0  0  0  0  0
  -23.5738  -32.2052   23.8028 O   0  0  0  0  0  0
  -23.9873  -24.7468   18.5905 C   0  0  0  0  0  0
  -25.3475  -24.4646   18.8958 C   0  0  0  0  0  0
  -23.6534  -25.6370   17.5392 C   0  0  0  0  0  0
  -26.3774  -24.9746   18.0661 C   0  0  0  0  0  0
  -24.7313  -25.9475   16.6656 C   0  0  0  0  0  0
  -25.6763  -23.8885   20.2563 C   0  0  0  0  0  0
  -24.5549  -27.0510   15.6332 C   0  0  0  0  0  0
  -22.2395  -26.3311   17.3734 C   0  0  0  0  0  0
  -27.8168  -25.3898   18.6547 C   0  0  0  0  0  0
  -21.1517  -26.2559   18.5207 C   0  0  0  0  0  0
  -20.5994  -27.5137   19.4336 C   0  0  0  0  0  0
  -19.9209  -27.3864   21.0101 C   0  0  0  0  0  0
  -20.9222  -25.2228   22.9802 C   0  0  0  0  0  0
  -22.3379  -23.5230   22.3379 C   0  0  0  0  0  0
  -23.9656  -21.9762   22.5050 C   0  0  0  0  0  0
  -25.1105  -20.1995   21.7170 C   0  0  0  0  0  0
  -26.8730  -18.7891   21.6731 C   0  0  0  0  0  0
  -26.0230  -25.5212   16.8599 N   0  0  0  0  0  0
  -27.7819  -17.0601   21.1111 N   0  0  0  0  0  0
  -31.0673  -14.0877   19.5342 H   0  0  0  0  0  0
  -30.5109  -12.7532   20.4561 H   0  0  0  0  0  0
  -30.1855  -12.1057   18.0882 H   0  0  0  0  0  0
  -29.4685  -13.6653   17.7289 H   0  0  0  0  0  0
  -28.2049  -11.3207   19.1772 H   0  0  0  0  0  0
  -27.5325  -12.2693   17.8664 H   0  0  0  0  0  0
  -27.3268  -14.2006   19.2508 H   0  0  0  0  0  0
  -28.6942  -12.6205   21.5123 H   0  0  0  0  0  0
  -27.6767  -13.9872   21.8744 H   0  0  0  0  0  0
  -25.2623   -9.5666   22.4756 H   0  0  0  0  0  0
  -23.9933   -7.4575   22.7432 H   0  0  0  0  0  0
  -21.0663   -8.8490   19.9059 H   0  0  0  0  0  0
  -22.3353  -10.9511   19.6124 H   0  0  0  0  0  0
  -21.2017   -7.6132   23.9681 H   0  0  0  0  0  0
  -21.1492   -6.0552   25.9067 H   0  0  0  0  0  0
  -22.0616   -2.7591   23.2887 H   0  0  0  0  0  0
  -22.3634  -11.9670   22.4957 H   0  0  0  0  0  0
  -21.0663  -13.1158   22.3088 H   0  0  0  0  0  0
  -24.4398  -15.6702   20.4314 H   0  0  0  0  0  0
  -25.8600  -15.4313   19.5809 H   0  0  0  0  0  0
  -26.7694  -32.5920   23.1785 H   0  0  0  0  0  0
  -25.0779  -34.0200   25.1102 H   0  0  0  0  0  0
  -22.7075  -31.4053   21.5808 H   0  0  0  0  0  0
  -23.3769  -35.9762   23.3268 H   0  0  0  0  0  0
  -24.3606  -36.8991   22.1984 H   0  0  0  0  0  0
  -23.7256  -37.6656   23.6535 H   0  0  0  0  0  0
  -26.1773  -31.6241   20.6999 H   0  0  0  0  0  0
  -26.8925  -30.8733   22.0985 H   0  0  0  0  0  0
  -28.1137  -28.9270   21.2415 H   0  0  0  0  0  0
  -26.0516  -27.2562   18.2604 H   0  0  0  0  0  0
  -23.8671  -27.8119   18.8793 H   0  0  0  0  0  0
  -23.9544  -30.9291   19.5743 H   0  0  0  0  0  0
  -22.7784  -29.6955   19.7782 H   0  0  0  0  0  0
  -25.1242  -36.2210   25.0830 H   0  0  0  0  0  0
  -21.7238  -27.6485   23.8956 H   0  0  0  0  0  0
  -22.7781  -26.0768   21.9690 H   0  0  0  0  0  0
  -22.4917  -27.0370   20.7596 H   0  0  0  0  0  0
  -20.2333  -24.1257   20.9686 H   0  0  0  0  0  0
  -19.6043  -25.2491   19.9521 H   0  0  0  0  0  0
  -17.6741  -25.7586   21.4487 H   0  0  0  0  0  0
  -18.2696  -24.9933   22.7969 H   0  0  0  0  0  0
  -20.1131  -30.1726   24.1537 H   0  0  0  0  0  0
  -17.8909  -31.1714   24.3202 H   0  0  0  0  0  0
  -15.9092  -29.8574   23.5245 H   0  0  0  0  0  0
  -16.2289  -27.5553   22.6678 H   0  0  0  0  0  0
  -24.6080  -30.7237   25.8041 H   0  0  0  0  0  0
  -24.8984  -32.3089   26.5089 H   0  0  0  0  0  0
  -25.8035  -30.9168   27.0637 H   0  0  0  0  0  0
  -26.2958  -29.7125   24.1317 H   0  0  0  0  0  0
  -27.3859  -29.7211   25.4962 H   0  0  0  0  0  0
  -27.9011  -30.4405   23.9923 H   0  0  0  0  0  0
  -27.3043  -33.3670   26.2621 H   0  0  0  0  0  0
  -28.4239  -32.6831   25.0953 H   0  0  0  0  0  0
  -28.0884  -31.8424   26.5958 H   0  0  0  0  0  0
  -28.2633  -38.0211   24.7479 H   0  0  0  0  0  0
  -28.1073  -36.2748   24.6336 H   0  0  0  0  0  0
  -27.2305  -37.1657   25.8862 H   0  0  0  0  0  0
  -21.0561  -29.7399   21.9549 H   0  0  0  0  0  0
  -26.0205  -38.3020   24.1451 H   0  0  0  0  0  0
  -23.2354  -24.4165   19.2845 H   0  0  0  0  0  0
  -24.7804  -23.8646   20.8592 H   0  0  0  0  0  0
  -26.3789  -24.5376   20.7832 H   0  0  0  0  0  0
  -26.0524  -22.8670   20.2036 H   0  0  0  0  0  0
  -24.4663  -28.0104   16.1470 H   0  0  0  0  0  0
  -23.6464  -26.9321   15.0466 H   0  0  0  0  0  0
  -25.4023  -27.1242   14.9541 H   0  0  0  0  0  0
  -21.8003  -25.8445   16.4917 H   0  0  0  0  0  0
  -22.3470  -27.3818   17.1119 H   0  0  0  0  0  0
  -28.4384  -25.6332   17.7927 H   0  0  0  0  0  0
  -28.2638  -24.4859   19.0667 H   0  0  0  0  0  0
  -21.5307  -25.4454   19.1174 H   0  0  0  0  0  0
  -20.2752  -25.8190   18.0325 H   0  0  0  0  0  0
  -19.9049  -28.0942   18.8181 H   0  0  0  0  0  0
  -21.4316  -28.1995   19.4910 H   0  0  0  0  0  0
  -18.9224  -27.3177   20.5556 H   0  0  0  0  0  0
  -19.8351  -28.4621   21.1736 H   0  0  0  0  0  0
  -20.1444  -24.7055   23.5437 H   0  0  0  0  0  0
  -21.4065  -25.6442   23.8554 H   0  0  0  0  0  0
  -22.7251  -23.9885   21.4322 H   0  0  0  0  0  0
  -21.6033  -22.8184   21.9562 H   0  0  0  0  0  0
  -23.7483  -21.5880   23.5032 H   0  0  0  0  0  0
  -24.7975  -22.6398   22.7408 H   0  0  0  0  0  0
  -25.0346  -20.4277   20.6497 H   0  0  0  0  0  0
  -24.3256  -19.4660   21.8983 H   0  0  0  0  0  0
  -26.9657  -18.6642   22.7502 H   0  0  0  0  0  0
  -27.6986  -19.4690   21.4614 H   0  0  0  0  0  0
  -26.9943  -16.4434   20.9383 H   0  0  0  0  0  0
  1 25  1  0  0  0
  1 30  2  0  0  0
  1 89  1  0  0  0
  2  3  1  0  0  0
  2 25  1  0  0  0
  2 90  1  0  0  0
  2 91  1  0  0  0
  3  4  1  0  0  0
  3 92  1  0  0  0
  3 93  1  0  0  0
  4  5  1  0  0  0
  4 94  1  0  0  0
  4 95  1  0  0  0
  5  6  1  0  0  0
  5 26  1  0  0  0
  5 96  1  0  0  0
  6 25  1  0  0  0
  6 97  1  0  0  0
  6 98  1  0  0  0
  7  8  2  0  0  0
  7 26  1  0  0  0
  7 29  1  0  0  0
  8  9  1  0  0  0
  8 22  1  0  0  0
  9 10  1  0  0  0
  9 27  2  0  0  0
 10 11  2  0  0  0
 10 15  1  0  0  0
 11 12  1  0  0  0
 11 99  1  0  0  0
 12 13  2  0  0  0
 12100  1  0  0  0
 13 14  1  0  0  0
 13 31  1  0  0  0
 14 15  2  0  0  0
 14101  1  0  0  0
 15102  1  0  0  0
 16 17  2  0  0  0
 16 21  1  0  0  0
 16 31  1  0  0  0
 17 18  1  0  0  0
 17103  1  0  0  0
 18 19  2  0  0  0
 18104  1  0  0  0
 19 20  1  0  0  0
 19 24  1  0  0  0
 20 21  2  0  0  0
 20105  1  0  0  0
 21 23  1  0  0  0
 22 28  1  0  0  0
 22 32  2  0  0  0
 26 27  1  0  0  0
 28106  1  0  0  0
 28107  1  0  0  0
 29108  1  0  0  0
 29109  1  0  0  0
 33 34  1  0  0  0
 33 66  1  0  0  0
 33 70  2  0  0  0
 34 36  1  0  0  0
 34 59  1  0  0  0
 34110  1  0  0  0
 35 44  2  0  0  0
 35 45  1  0  0  0
 35 68  1  0  0  0
 36 56  1  0  0  0
 36111  1  0  0  0
 37 39  1  0  0  0
 37 47  1  0  0  0
 37 66  1  0  0  0
 37112  1  0  0  0
 38 43  2  0  0  0
 38 46  1  0  0  0
 38 47  1  0  0  0
 39 64  1  0  0  0
 39 67  2  0  0  0
 40 52  1  0  0  0
 40 53  2  0  0  0
 40 58  1  0  0  0
 41113  1  0  0  0
 41114  1  0  0  0
 41115  1  0  0  0
 41 48  1  0  0  0
 42 43  1  0  0  0
 42 66  1  0  0  0
 42116  1  0  0  0
 42117  1  0  0  0
 43 44  1  0  0  0
 44118  1  0  0  0
 45 46  2  0  0  0
 45119  1  0  0  0
 46120  1  0  0  0
 47121  1  0  0  0
 47122  1  0  0  0
 48 56  1  0  0  0
 48 65  1  0  0  0
 48123  1  0  0  0
 49 50  1  0  0  0
 49 53  1  0  0  0
 49 64  1  0  0  0
 49124  1  0  0  0
 50 51  1  0  0  0
 50125  1  0  0  0
 50126  1  0  0  0
 51 52  1  0  0  0
 51127  1  0  0  0
 51128  1  0  0  0
 52129  1  0  0  0
 52130  1  0  0  0
 53 54  1  0  0  0
 54 55  2  0  0  0
 54131  1  0  0  0
 55 57  1  0  0  0
 55132  1  0  0  0
 56 69  2  0  0  0
 57 58  2  0  0  0
 57133  1  0  0  0
 58134  1  0  0  0
 59 60  1  0  0  0
 59 61  1  0  0  0
 59 62  1  0  0  0
 60135  1  0  0  0
 60136  1  0  0  0
 60137  1  0  0  0
 61138  1  0  0  0
 61139  1  0  0  0
 61140  1  0  0  0
 62141  1  0  0  0
 62142  1  0  0  0
 62143  1  0  0  0
 63 65  1  0  0  0
 63144  1  0  0  0
 63145  1  0  0  0
 63146  1  0  0  0
 64147  1  0  0  0
 65148  1  0  0  0
 68 79  1  0  0  0
 71 72  2  0  0  0
 71 73  1  0  0  0
 71149  1  0  0  0
 72 74  1  0  0  0
 72 76  1  0  0  0
 73 75  2  0  0  0
 73 78  1  0  0  0
 74 79  1  0  0  0
 74 88  2  0  0  0
 75 77  1  0  0  0
 75 88  1  0  0  0
 76150  1  0  0  0
 76151  1  0  0  0
 76152  1  0  0  0
 77153  1  0  0  0
 77154  1  0  0  0
 77155  1  0  0  0
 78 80  1  0  0  0
 78156  1  0  0  0
 78157  1  0  0  0
 79158  1  0  0  0
 79159  1  0  0  0
 80 81  1  0  0  0
 80160  1  0  0  0
 80161  1  0  0  0
 81 82  1  0  0  0
 81162  1  0  0  0
 81163  1  0  0  0
 82 83  1  0  0  0
 82164  1  0  0  0
 82165  1  0  0  0
 83 84  1  0  0  0
 83166  1  0  0  0
 83167  1  0  0  0
 84 85  1  0  0  0
 84168  1  0  0  0
 84169  1  0  0  0
 85 86  1  0  0  0
 85170  1  0  0  0
 85171  1  0  0  0
 86 87  1  0  0  0
 86172  1  0  0  0
 86173  1  0  0  0
 87 89  1  0  0  0
 87174  1  0  0  0
 87175  1  0  0  0
 89176  1  0  0  0
M  ISO  4   1 100  68 101  79 101  89 100
M  END
> <chiral flag>
0

> <version>
0

> <s_m_source_file>
/data/baiqing/PycharmProjects/Reinvent-master-3.2/result/LINK_invent/BTK/process_docking_weight1_custom_sum_contain_oxygen_bond_distance_aromatic_linkinvent_7_9_3/rearranged_h_0038.sdf

> <i_m_source_file_index>
75

> <r_mmod_Potential_Energy-OPLS-2005>
13500.509765625

> <r_mmod_Stretch_Energy-OPLS-2005>
7757.69970703125

> <r_mmod_Bend_Energy-OPLS-2005>
1378.52233886719

> <r_mmod_Torsional_Energy-OPLS-2005>
445.077178955078

> <r_mmod_Improper_Torsional_Energy-OPLS-2005>
26.2099094390869

> <r_mmod_Van_der_Waal_Energy-OPLS-2005>
1911.63842773438

> <r_mmod_Electrostatic_Energy-OPLS-2005>
-501.858093261719

> <r_mmod_Solvation_Energy-OPLS-2005>
-208.600952148438

> <b_mmod_Minimization_Converged-OPLS-2005>
0

> <r_mmod_RMS_Derivative-OPLS-2005>
14.5990791320801

$$$$
78
                    3D
 Structure written by MMmdl.
166174  0  0  1  0            999 V2000
  -30.7104  -14.4430   20.6036 C   0  0  0  0  0  0
  -30.4184  -12.2918   19.4175 C   0  0  0  0  0  0
  -29.4867  -12.4957   18.2053 C   0  0  0  0  0  0
  -28.0118  -12.3576   18.6239 C   0  0  0  0  0  0
  -27.6642  -13.2025   19.8769 C   0  0  2  0  0  0
  -28.7066  -12.9801   20.9958 C   0  0  0  0  0  0
  -25.2614  -13.8158   20.5694 C   0  0  0  0  0  0
  -24.1854  -13.0422   20.9174 C   0  0  0  0  0  0
  -24.6401  -11.6892   20.8723 C   0  0  0  0  0  0
  -23.9058  -10.4268   21.0391 C   0  0  0  0  0  0
  -24.3609   -9.4185   21.9178 C   0  0  0  0  0  0
  -23.6273   -8.2229   22.0750 C   0  0  0  0  0  0
  -22.4259   -8.0276   21.3534 C   0  0  0  0  0  0
  -21.9896   -9.0248   20.4629 C   0  0  0  0  0  0
  -22.7232  -10.2121   20.3031 C   0  0  0  0  0  0
  -21.6852   -6.0727   22.5262 C   0  0  0  0  0  0
  -21.4032   -6.5646   23.8190 C   0  0  0  0  0  0
  -21.3654   -5.6806   24.9156 C   0  0  0  0  0  0
  -21.6029   -4.3061   24.7215 C   0  0  0  0  0  0
  -21.8832   -3.8146   23.4348 C   0  0  0  0  0  0
  -21.9196   -4.6952   22.3400 C   0  0  0  0  0  0
  -22.7884  -13.5220   21.1851 C   0  0  0  0  0  0
  -22.1678   -4.2147   21.0980 F   0  0  0  0  0  0
  -21.5597   -3.4544   25.7723 F   0  0  0  0  0  0
  -30.0377  -13.2719   20.4452 N   0  0  0  0  0  0
  -26.3048  -12.9318   20.3398 N   0  0  0  0  0  0
  -25.9331  -11.6483   20.5789 N   0  0  0  0  0  0
  -22.0555  -12.8171   22.0403 N   0  0  0  0  0  0
  -25.4357  -15.1868   20.4132 N   0  0  0  0  0  0
  -31.8210  -14.6248   20.0961 O   0  0  0  0  0  0
  -21.6628   -6.8868   21.4229 O   0  0  0  0  0  0
  -22.3561  -14.5523   20.6711 O   0  0  0  0  0  0
  -24.6116  -31.8689   23.2138 C   0  0  0  0  0  0
  -25.9011  -32.4831   23.8426 C   0  0  1  0  0  0
  -27.2430  -27.4473   20.0754 C   0  0  0  0  0  0
  -25.5865  -33.8635   24.2332 N   0  0  0  0  0  0
  -23.4013  -30.4927   21.5531 C   0  0  2  0  0  0
  -24.8480  -28.9600   20.1195 C   0  0  0  0  0  0
  -22.7401  -29.4652   22.4996 C   0  0  0  0  0  0
  -18.0260  -28.1385   22.8517 C   0  0  0  0  0  0
  -24.1484  -36.7327   23.2643 C   0  0  0  0  0  0
  -25.9309  -30.8315   21.3723 C   0  0  0  0  0  0
  -26.0066  -29.4650   20.7219 C   0  0  0  0  0  0
  -27.2007  -28.7072   20.7149 C   0  0  0  0  0  0
  -26.0596  -26.9539   19.4791 C   0  0  0  0  0  0
  -24.8667  -27.6974   19.5056 C   0  0  0  0  0  0
  -23.6118  -29.8277   20.1671 C   0  0  0  0  0  0
  -25.4106  -36.3125   24.0340 C   0  0  1  0  0  0
  -20.5859  -28.3673   23.1337 C   0  0  2  0  0  0
  -20.6757  -26.9409   22.5433 C   0  0  0  0  0  0
  -19.5725  -26.6394   21.5235 C   0  0  0  0  0  0
  -18.1902  -26.7934   22.1650 C   0  0  0  0  0  0
  -19.1515  -28.8847   23.2924 C   0  0  0  0  0  0
  -18.9445  -30.1454   23.8931 C   0  0  0  0  0  0
  -17.6446  -30.6591   24.0581 C   0  0  0  0  0  0
  -25.9029  -34.9482   23.5137 C   0  0  0  0  0  0
  -16.5335  -29.9101   23.6321 C   0  0  0  0  0  0
  -16.7251  -28.6513   23.0359 C   0  0  0  0  0  0
  -26.4449  -31.6619   25.0754 C   0  0  0  0  0  0
  -25.3718  -31.3707   26.1499 C   0  0  0  0  0  0
  -27.0292  -30.3068   24.6135 C   0  0  0  0  0  0
  -27.5996  -32.4368   25.7524 C   0  0  0  0  0  0
  -27.5572  -37.1825   24.8469 C   0  0  0  0  0  0
  -21.4131  -29.3041   22.3737 N   0  0  0  0  0  0
  -26.4295  -37.3805   23.9395 N   0  0  0  0  0  0
  -24.6659  -31.0785   22.1048 N   0  0  0  0  0  0
  -23.4163  -28.8188   23.3039 O   0  0  0  0  0  0
  -28.4253  -26.7302   20.0612 O   0  0  0  0  0  0
  -26.5612  -34.8922   22.4713 O   0  0  0  0  0  0
  -23.5305  -32.1446   23.7520 O   0  0  0  0  0  0
  -30.1565  -22.1227   21.3614 C   0  0  0  0  0  0
  -29.8755  -20.9557   19.1670 C   0  0  0  0  0  0
  -29.2995  -23.3118   20.8619 C   0  0  0  0  0  0
  -29.0134  -22.1207   18.6558 C   0  0  0  0  0  0
  -29.7535  -20.7873   20.6929 C   0  0  1  0  0  0
  -29.3553  -23.4711   19.3260 C   0  0  1  0  0  0
  -30.2645  -26.3518   18.5647 C   0  0  0  0  0  0
  -30.0259  -15.6235   21.3362 C   0  0  0  0  0  0
  -30.5730  -19.5737   21.2060 C   0  0  0  0  0  0
  -28.3943  -24.5618   18.7743 C   0  0  0  0  0  0
  -30.7755  -16.9909   21.2936 C   0  0  0  0  0  0
  -29.8633  -18.2100   21.0227 C   0  0  0  0  0  0
  -28.7830  -26.0673   18.8424 C   0  0  1  0  0  0
  -31.4622  -12.3800   19.1140 H   0  0  0  0  0  0
  -30.3115  -11.2818   19.8142 H   0  0  0  0  0  0
  -29.7156  -11.7733   17.4214 H   0  0  0  0  0  0
  -29.6559  -13.4830   17.7744 H   0  0  0  0  0  0
  -27.8256  -11.3030   18.8320 H   0  0  0  0  0  0
  -27.3549  -12.6246   17.7961 H   0  0  0  0  0  0
  -27.7113  -14.2490   19.5772 H   0  0  0  0  0  0
  -28.6771  -11.9460   21.3426 H   0  0  0  0  0  0
  -28.4713  -13.5832   21.8726 H   0  0  0  0  0  0
  -25.2768   -9.5651   22.4745 H   0  0  0  0  0  0
  -23.9955   -7.4639   22.7508 H   0  0  0  0  0  0
  -21.0823   -8.8789   19.8942 H   0  0  0  0  0  0
  -22.3704  -10.9674   19.6145 H   0  0  0  0  0  0
  -21.2062   -7.6163   23.9685 H   0  0  0  0  0  0
  -21.1458   -6.0545   25.9056 H   0  0  0  0  0  0
  -22.0615   -2.7610   23.2852 H   0  0  0  0  0  0
  -22.4221  -11.9811   22.4710 H   0  0  0  0  0  0
  -21.1192  -13.1171   22.2688 H   0  0  0  0  0  0
  -24.6721  -15.8460   20.5197 H   0  0  0  0  0  0
  -26.2962  -15.6209   20.1032 H   0  0  0  0  0  0
  -26.7083  -32.5560   23.1191 H   0  0  0  0  0  0
  -24.9948  -33.9819   25.0425 H   0  0  0  0  0  0
  -22.6895  -31.3099   21.4157 H   0  0  0  0  0  0
  -23.3747  -35.9658   23.3321 H   0  0  0  0  0  0
  -24.3563  -36.8945   22.2053 H   0  0  0  0  0  0
  -23.7243  -37.6530   23.6672 H   0  0  0  0  0  0
  -26.0453  -31.5965   20.6034 H   0  0  0  0  0  0
  -26.8165  -30.8833   21.9939 H   0  0  0  0  0  0
  -28.0950  -29.0958   21.1825 H   0  0  0  0  0  0
  -26.0384  -25.9961   18.9863 H   0  0  0  0  0  0
  -23.9748  -27.2974   19.0423 H   0  0  0  0  0  0
  -23.7259  -30.6054   19.4109 H   0  0  0  0  0  0
  -22.7349  -29.2508   19.8680 H   0  0  0  0  0  0
  -25.1285  -36.1991   25.0837 H   0  0  0  0  0  0
  -20.9948  -28.3242   24.1460 H   0  0  0  0  0  0
  -20.5685  -26.2275   23.3615 H   0  0  0  0  0  0
  -21.6625  -26.7470   22.1213 H   0  0  0  0  0  0
  -19.6888  -25.6315   21.1240 H   0  0  0  0  0  0
  -19.6656  -27.3225   20.6779 H   0  0  0  0  0  0
  -17.4179  -26.6706   21.4041 H   0  0  0  0  0  0
  -18.0290  -26.0061   22.9032 H   0  0  0  0  0  0
  -19.7925  -30.7260   24.2312 H   0  0  0  0  0  0
  -17.5008  -31.6277   24.5178 H   0  0  0  0  0  0
  -15.5341  -30.3023   23.7616 H   0  0  0  0  0  0
  -15.8656  -28.0834   22.7068 H   0  0  0  0  0  0
  -24.5848  -30.7122   25.7818 H   0  0  0  0  0  0
  -24.8972  -32.2868   26.5029 H   0  0  0  0  0  0
  -25.8071  -30.8791   27.0211 H   0  0  0  0  0  0
  -26.2855  -29.6832   24.1170 H   0  0  0  0  0  0
  -27.4038  -29.7297   25.4603 H   0  0  0  0  0  0
  -27.8699  -30.4392   23.9319 H   0  0  0  0  0  0
  -27.2570  -33.3646   26.2117 H   0  0  0  0  0  0
  -28.3788  -32.6972   25.0351 H   0  0  0  0  0  0
  -28.0681  -31.8503   26.5433 H   0  0  0  0  0  0
  -28.2608  -38.0101   24.7491 H   0  0  0  0  0  0
  -28.1052  -36.2631   24.6346 H   0  0  0  0  0  0
  -27.2282  -37.1542   25.8872 H   0  0  0  0  0  0
  -20.9268  -29.8770   21.6981 H   0  0  0  0  0  0
  -26.0187  -38.2885   24.1397 H   0  0  0  0  0  0
  -30.0584  -22.0406   22.4448 H   0  0  0  0  0  0
  -31.2104  -22.3285   21.1669 H   0  0  0  0  0  0
  -30.9186  -21.1332   18.8971 H   0  0  0  0  0  0
  -29.5798  -20.0384   18.6567 H   0  0  0  0  0  0
  -29.6327  -24.2338   21.3410 H   0  0  0  0  0  0
  -28.2665  -23.1616   21.1779 H   0  0  0  0  0  0
  -27.9616  -21.8839   18.8253 H   0  0  0  0  0  0
  -29.1373  -22.2011   17.5750 H   0  0  0  0  0  0
  -28.7051  -20.6080   20.9386 H   0  0  0  0  0  0
  -30.3783  -23.7152   19.0407 H   0  0  0  0  0  0
  -30.5809  -25.9039   17.6214 H   0  0  0  0  0  0
  -30.9080  -25.9678   19.3564 H   0  0  0  0  0  0
  -30.4438  -27.4246   18.4893 H   0  0  0  0  0  0
  -29.0421  -15.7559   20.8853 H   0  0  0  0  0  0
  -29.8465  -15.3448   22.3751 H   0  0  0  0  0  0
  -30.7831  -19.7009   22.2684 H   0  0  0  0  0  0
  -31.5465  -19.5581   20.7144 H   0  0  0  0  0  0
  -27.4085  -24.3998   19.2056 H   0  0  0  0  0  0
  -28.2610  -24.3556   17.7113 H   0  0  0  0  0  0
  -31.5574  -17.0003   20.5347 H   0  0  0  0  0  0
  -31.2922  -17.1272   22.2438 H   0  0  0  0  0  0
  -29.4756  -18.1279   20.0071 H   0  0  0  0  0  0
  -28.9955  -18.1756   21.6844 H   0  0  0  0  0  0
  -28.2494  -26.5582   18.0270 H   0  0  0  0  0  0
  1 25  1  0  0  0
  1 30  2  0  0  0
  1 78  1  0  0  0
  2  3  1  0  0  0
  2 25  1  0  0  0
  2 84  1  0  0  0
  2 85  1  0  0  0
  3  4  1  0  0  0
  3 86  1  0  0  0
  3 87  1  0  0  0
  4  5  1  0  0  0
  4 88  1  0  0  0
  4 89  1  0  0  0
  5  6  1  0  0  0
  5 26  1  0  0  0
  5 90  1  0  0  0
  6 25  1  0  0  0
  6 91  1  0  0  0
  6 92  1  0  0  0
  7  8  2  0  0  0
  7 26  1  0  0  0
  7 29  1  0  0  0
  8  9  1  0  0  0
  8 22  1  0  0  0
  9 10  1  0  0  0
  9 27  2  0  0  0
 10 11  2  0  0  0
 10 15  1  0  0  0
 11 12  1  0  0  0
 11 93  1  0  0  0
 12 13  2  0  0  0
 12 94  1  0  0  0
 13 14  1  0  0  0
 13 31  1  0  0  0
 14 15  2  0  0  0
 14 95  1  0  0  0
 15 96  1  0  0  0
 16 17  2  0  0  0
 16 21  1  0  0  0
 16 31  1  0  0  0
 17 18  1  0  0  0
 17 97  1  0  0  0
 18 19  2  0  0  0
 18 98  1  0  0  0
 19 20  1  0  0  0
 19 24  1  0  0  0
 20 21  2  0  0  0
 20 99  1  0  0  0
 21 23  1  0  0  0
 22 28  1  0  0  0
 22 32  2  0  0  0
 26 27  1  0  0  0
 28100  1  0  0  0
 28101  1  0  0  0
 29102  1  0  0  0
 29103  1  0  0  0
 33 34  1  0  0  0
 33 66  1  0  0  0
 33 70  2  0  0  0
 34 36  1  0  0  0
 34 59  1  0  0  0
 34104  1  0  0  0
 35 44  2  0  0  0
 35 45  1  0  0  0
 35 68  1  0  0  0
 36 56  1  0  0  0
 36105  1  0  0  0
 37 39  1  0  0  0
 37 47  1  0  0  0
 37 66  1  0  0  0
 37106  1  0  0  0
 38 43  2  0  0  0
 38 46  1  0  0  0
 38 47  1  0  0  0
 39 64  1  0  0  0
 39 67  2  0  0  0
 40 52  1  0  0  0
 40 53  2  0  0  0
 40 58  1  0  0  0
 41107  1  0  0  0
 41108  1  0  0  0
 41109  1  0  0  0
 41 48  1  0  0  0
 42 43  1  0  0  0
 42 66  1  0  0  0
 42110  1  0  0  0
 42111  1  0  0  0
 43 44  1  0  0  0
 44112  1  0  0  0
 45 46  2  0  0  0
 45113  1  0  0  0
 46114  1  0  0  0
 47115  1  0  0  0
 47116  1  0  0  0
 48 56  1  0  0  0
 48 65  1  0  0  0
 48117  1  0  0  0
 49 50  1  0  0  0
 49 53  1  0  0  0
 49 64  1  0  0  0
 49118  1  0  0  0
 50 51  1  0  0  0
 50119  1  0  0  0
 50120  1  0  0  0
 51 52  1  0  0  0
 51121  1  0  0  0
 51122  1  0  0  0
 52123  1  0  0  0
 52124  1  0  0  0
 53 54  1  0  0  0
 54 55  2  0  0  0
 54125  1  0  0  0
 55 57  1  0  0  0
 55126  1  0  0  0
 56 69  2  0  0  0
 57 58  2  0  0  0
 57127  1  0  0  0
 58128  1  0  0  0
 59 60  1  0  0  0
 59 61  1  0  0  0
 59 62  1  0  0  0
 60129  1  0  0  0
 60130  1  0  0  0
 60131  1  0  0  0
 61132  1  0  0  0
 61133  1  0  0  0
 61134  1  0  0  0
 62135  1  0  0  0
 62136  1  0  0  0
 62137  1  0  0  0
 63 65  1  0  0  0
 63138  1  0  0  0
 63139  1  0  0  0
 63140  1  0  0  0
 64141  1  0  0  0
 65142  1  0  0  0
 68 83  1  0  0  0
 71 73  1  0  0  0
 71 75  1  0  0  0
 71143  1  0  0  0
 71144  1  0  0  0
 72 74  1  0  0  0
 72 75  1  0  0  0
 72145  1  0  0  0
 72146  1  0  0  0
 73 76  1  0  0  0
 73147  1  0  0  0
 73148  1  0  0  0
 74 76  1  0  0  0
 74149  1  0  0  0
 74150  1  0  0  0
 75 79  1  0  0  0
 75151  1  0  0  0
 76 80  1  0  0  0
 76152  1  0  0  0
 77153  1  0  0  0
 77154  1  0  0  0
 77155  1  0  0  0
 77 83  1  0  0  0
 78 81  1  0  0  0
 78156  1  0  0  0
 78157  1  0  0  0
 79 82  1  0  0  0
 79158  1  0  0  0
 79159  1  0  0  0
 80 83  1  0  0  0
 80160  1  0  0  0
 80161  1  0  0  0
 81 82  1  0  0  0
 81162  1  0  0  0
 81163  1  0  0  0
 82164  1  0  0  0
 82165  1  0  0  0
 83166  1  0  0  0
M  ISO  4   1 100  68 101  78 100  83 101
M  END
> <chiral flag>
0

> <version>
0

> <s_m_source_file>
/data/baiqing/PycharmProjects/Reinvent-master-3.2/result/LINK_invent/BTK/process_docking_weight1_custom_sum_contain_oxygen_bond_distance_aromatic_linkinvent_7_9_3/rearranged_h_0038.sdf

> <i_m_source_file_index>
76

> <r_mmod_Potential_Energy-OPLS-2005>
18.8009624481201

> <r_mmod_Stretch_Energy-OPLS-2005>
36.4729347229004

> <r_mmod_Bend_Energy-OPLS-2005>
105.656196594238

> <r_mmod_Torsional_Energy-OPLS-2005>
217.022109985352

> <r_mmod_Improper_Torsional_Energy-OPLS-2005>
2.44366908073425

> <r_mmod_Van_der_Waal_Energy-OPLS-2005>
138.830947875977

> <r_mmod_Electrostatic_Energy-OPLS-2005>
-316.593231201172

> <r_mmod_Solvation_Energy-OPLS-2005>
-175.221862792969

> <b_mmod_Minimization_Converged-OPLS-2005>
0

> <r_mmod_RMS_Derivative-OPLS-2005>
2.41935443878174

$$$$
79
                    3D
 Structure written by MMmdl.
161169  0  0  1  0            999 V2000
  -30.5788  -14.7207   20.4967 C   0  0  0  0  0  0
  -30.4428  -12.4366   19.4687 C   0  0  0  0  0  0
  -29.5182  -12.5113   18.2323 C   0  0  0  0  0  0
  -28.0384  -12.3401   18.6335 C   0  0  0  0  0  0
  -27.6469  -13.2211   19.8497 C   0  0  2  0  0  0
  -28.6871  -13.1146   20.9850 C   0  0  0  0  0  0
  -25.2548  -13.8186   20.5656 C   0  0  0  0  0  0
  -24.1815  -13.0442   20.9185 C   0  0  0  0  0  0
  -24.6397  -11.6923   20.8729 C   0  0  0  0  0  0
  -23.9065  -10.4304   21.0399 C   0  0  0  0  0  0
  -24.3632   -9.4212   21.9170 C   0  0  0  0  0  0
  -23.6310   -8.2244   22.0754 C   0  0  0  0  0  0
  -22.4288   -8.0283   21.3550 C   0  0  0  0  0  0
  -21.9915   -9.0250   20.4650 C   0  0  0  0  0  0
  -22.7239  -10.2136   20.3050 C   0  0  0  0  0  0
  -21.6862   -6.0725   22.5279 C   0  0  0  0  0  0
  -21.4008   -6.5627   23.8207 C   0  0  0  0  0  0
  -21.3665   -5.6783   24.9174 C   0  0  0  0  0  0
  -21.6057   -4.3048   24.7233 C   0  0  0  0  0  0
  -21.8818   -3.8137   23.4353 C   0  0  0  0  0  0
  -21.9196   -4.6948   22.3405 C   0  0  0  0  0  0
  -22.7843  -13.5240   21.1854 C   0  0  0  0  0  0
  -22.1665   -4.2148   21.0980 F   0  0  0  0  0  0
  -21.5643   -3.4520   25.7736 F   0  0  0  0  0  0
  -29.9994  -13.4731   20.4284 N   0  0  0  0  0  0
  -26.2961  -12.9366   20.3228 N   0  0  0  0  0  0
  -25.9322  -11.6522   20.5700 N   0  0  0  0  0  0
  -22.0487  -12.8220   22.0418 N   0  0  0  0  0  0
  -25.4242  -15.1909   20.4087 N   0  0  0  0  0  0
  -31.7414  -14.8706   20.1050 O   0  0  0  0  0  0
  -21.6654   -6.8876   21.4249 O   0  0  0  0  0  0
  -22.3519  -14.5528   20.6691 O   0  0  0  0  0  0
  -24.6245  -31.8582   23.2004 C   0  0  0  0  0  0
  -25.9090  -32.4786   23.8339 C   0  0  1  0  0  0
  -27.2302  -27.3130   20.1332 C   0  0  0  0  0  0
  -25.5894  -33.8592   24.2264 N   0  0  0  0  0  0
  -23.4216  -30.4774   21.5438 C   0  0  2  0  0  0
  -24.8709  -28.9266   20.1147 C   0  0  0  0  0  0
  -22.7479  -29.4584   22.4940 C   0  0  0  0  0  0
  -18.0285  -28.1363   22.8471 C   0  0  0  0  0  0
  -24.1493  -36.7284   23.2645 C   0  0  0  0  0  0
  -25.9619  -30.7893   21.3722 C   0  0  0  0  0  0
  -26.0378  -29.4156   20.7142 C   0  0  0  0  0  0
  -27.2244  -28.6250   20.7022 C   0  0  0  0  0  0
  -26.0430  -26.8664   19.5220 C   0  0  0  0  0  0
  -24.8764  -27.6599   19.5034 C   0  0  0  0  0  0
  -23.6389  -29.8086   20.1603 C   0  0  0  0  0  0
  -25.4119  -36.3091   24.0329 C   0  0  1  0  0  0
  -20.5883  -28.3657   23.1291 C   0  0  2  0  0  0
  -20.6775  -26.9378   22.5424 C   0  0  0  0  0  0
  -19.5752  -26.6369   21.5212 C   0  0  0  0  0  0
  -18.1928  -26.7907   22.1619 C   0  0  0  0  0  0
  -19.1537  -28.8828   23.2877 C   0  0  0  0  0  0
  -18.9454  -30.1431   23.8895 C   0  0  0  0  0  0
  -17.6455  -30.6572   24.0540 C   0  0  0  0  0  0
  -25.9046  -34.9460   23.5108 C   0  0  0  0  0  0
  -16.5341  -29.9069   23.6321 C   0  0  0  0  0  0
  -16.7268  -28.6476   23.0351 C   0  0  0  0  0  0
  -26.4472  -31.6592   25.0706 C   0  0  0  0  0  0
  -25.3672  -31.3729   26.1401 C   0  0  0  0  0  0
  -27.0333  -30.3021   24.6151 C   0  0  0  0  0  0
  -27.6008  -32.4334   25.7514 C   0  0  0  0  0  0
  -27.5597  -37.1790   24.8458 C   0  0  0  0  0  0
  -21.4191  -29.3015   22.3706 N   0  0  0  0  0  0
  -26.4307  -37.3786   23.9396 N   0  0  0  0  0  0
  -24.6877  -31.0598   22.0942 N   0  0  0  0  0  0
  -23.4205  -28.8134   23.3030 O   0  0  0  0  0  0
  -28.3655  -26.4917   20.1164 O   0  0  0  0  0  0
  -26.5650  -34.8920   22.4694 O   0  0  0  0  0  0
  -23.5410  -32.1397   23.7316 O   0  0  0  0  0  0
  -28.3001  -21.2278   20.1809 C   0  0  0  0  0  0
  -29.2015  -20.2074   20.5179 C   0  0  0  0  0  0
  -30.2450  -22.2244   20.4321 C   0  0  0  0  0  0
  -32.9035  -24.7865   19.1590 C   0  0  0  0  0  0
  -29.0051  -18.6725   20.8172 C   0  0  0  0  0  0
  -31.3844  -23.2005   20.4698 C   0  0  0  0  0  0
  -29.7393  -16.0117   20.9488 C   0  0  0  0  0  0
  -31.8667  -23.6590   19.0818 C   0  0  0  0  0  0
  -30.0870  -17.5229   20.4672 C   0  0  0  0  0  0
  -28.3765  -23.8373   19.6895 C   0  0  0  0  0  0
  -28.3052  -25.1084   20.6617 C   0  0  0  0  0  0
  -28.9473  -22.4698   20.1423 N   0  0  0  0  0  0
  -30.3795  -20.8990   20.6709 N   0  3  0  0  0  0
  -31.4837  -12.5703   19.1709 H   0  0  0  0  0  0
  -30.3882  -11.4473   19.9258 H   0  0  0  0  0  0
  -29.7982  -11.7437   17.5093 H   0  0  0  0  0  0
  -29.6606  -13.4693   17.7298 H   0  0  0  0  0  0
  -27.8810  -11.2883   18.8690 H   0  0  0  0  0  0
  -27.3898  -12.5580   17.7847 H   0  0  0  0  0  0
  -27.6490  -14.2463   19.4869 H   0  0  0  0  0  0
  -28.7105  -12.1017   21.3929 H   0  0  0  0  0  0
  -28.4190  -13.7669   21.8174 H   0  0  0  0  0  0
  -25.2794   -9.5689   22.4724 H   0  0  0  0  0  0
  -24.0036   -7.4641   22.7463 H   0  0  0  0  0  0
  -21.0848   -8.8758   19.8961 H   0  0  0  0  0  0
  -22.3695  -10.9665   19.6152 H   0  0  0  0  0  0
  -21.1981   -7.6132   23.9703 H   0  0  0  0  0  0
  -21.1497   -6.0511   25.9073 H   0  0  0  0  0  0
  -22.0597   -2.7603   23.2843 H   0  0  0  0  0  0
  -22.4123  -11.9905   22.4829 H   0  0  0  0  0  0
  -21.1095  -13.1220   22.2607 H   0  0  0  0  0  0
  -24.6572  -15.8455   20.5189 H   0  0  0  0  0  0
  -26.2720  -15.6317   20.0759 H   0  0  0  0  0  0
  -26.7155  -32.5455   23.1087 H   0  0  0  0  0  0
  -24.9985  -33.9729   25.0371 H   0  0  0  0  0  0
  -22.7131  -31.2957   21.3987 H   0  0  0  0  0  0
  -23.3776  -35.9606   23.3318 H   0  0  0  0  0  0
  -24.3570  -36.8895   22.2060 H   0  0  0  0  0  0
  -23.7216  -37.6473   23.6653 H   0  0  0  0  0  0
  -26.1024  -31.5563   20.6097 H   0  0  0  0  0  0
  -26.8367  -30.8320   22.0088 H   0  0  0  0  0  0
  -28.1285  -29.0112   21.1521 H   0  0  0  0  0  0
  -26.0184  -25.8940   19.0510 H   0  0  0  0  0  0
  -23.9838  -27.2835   19.0216 H   0  0  0  0  0  0
  -23.7586  -30.5833   19.4017 H   0  0  0  0  0  0
  -22.7607  -29.2366   19.8576 H   0  0  0  0  0  0
  -25.1309  -36.1965   25.0830 H   0  0  0  0  0  0
  -20.9954  -28.3224   24.1418 H   0  0  0  0  0  0
  -20.5673  -26.2261   23.3623 H   0  0  0  0  0  0
  -21.6645  -26.7412   22.1211 H   0  0  0  0  0  0
  -19.6921  -25.6280   21.1238 H   0  0  0  0  0  0
  -19.6702  -27.3189   20.6742 H   0  0  0  0  0  0
  -17.4210  -26.6641   21.4013 H   0  0  0  0  0  0
  -18.0310  -26.0052   22.9010 H   0  0  0  0  0  0
  -19.7924  -30.7236   24.2285 H   0  0  0  0  0  0
  -17.5000  -31.6259   24.5129 H   0  0  0  0  0  0
  -15.5334  -30.2969   23.7640 H   0  0  0  0  0  0
  -15.8655  -28.0788   22.7088 H   0  0  0  0  0  0
  -24.5798  -30.7167   25.7653 H   0  0  0  0  0  0
  -24.8925  -32.2921   26.4862 H   0  0  0  0  0  0
  -25.7953  -30.8804   27.0145 H   0  0  0  0  0  0
  -26.2925  -29.6762   24.1151 H   0  0  0  0  0  0
  -27.4044  -29.7276   25.4648 H   0  0  0  0  0  0
  -27.8780  -30.4340   23.9385 H   0  0  0  0  0  0
  -27.2587  -33.3643   26.2062 H   0  0  0  0  0  0
  -28.3849  -32.6904   25.0370 H   0  0  0  0  0  0
  -28.0620  -31.8461   26.5469 H   0  0  0  0  0  0
  -28.2634  -38.0080   24.7522 H   0  0  0  0  0  0
  -28.1090  -36.2611   24.6287 H   0  0  0  0  0  0
  -27.2304  -37.1432   25.8864 H   0  0  0  0  0  0
  -20.9382  -29.8738   21.6903 H   0  0  0  0  0  0
  -26.0205  -38.2870   24.1417 H   0  0  0  0  0  0
  -27.2409  -21.1530   19.9674 H   0  0  0  0  0  0
  -33.1466  -25.1575   18.1622 H   0  0  0  0  0  0
  -33.8289  -24.4490   19.6276 H   0  0  0  0  0  0
  -32.5170  -25.6264   19.7376 H   0  0  0  0  0  0
  -28.0699  -18.3907   20.3311 H   0  0  0  0  0  0
  -28.7900  -18.5992   21.8831 H   0  0  0  0  0  0
  -32.2007  -22.7130   21.0039 H   0  0  0  0  0  0
  -31.0732  -24.0429   21.0843 H   0  0  0  0  0  0
  -28.7077  -15.8385   20.6491 H   0  0  0  0  0  0
  -29.7301  -16.0011   22.0390 H   0  0  0  0  0  0
  -32.2751  -22.8118   18.5308 H   0  0  0  0  0  0
  -31.0322  -24.0240   18.4880 H   0  0  0  0  0  0
  -31.0439  -17.8010   20.9121 H   0  0  0  0  0  0
  -30.2489  -17.5163   19.3886 H   0  0  0  0  0  0
  -28.9269  -24.1267   18.7978 H   0  0  0  0  0  0
  -27.3666  -23.6471   19.3252 H   0  0  0  0  0  0
  -29.1466  -25.0521   21.3483 H   0  0  0  0  0  0
  -27.4284  -25.0174   21.3038 H   0  0  0  0  0  0
  -31.2567  -20.4674   20.9391 H   0  0  0  0  0  0
  1 25  1  0  0  0
  1 30  2  0  0  0
  1 77  1  0  0  0
  2  3  1  0  0  0
  2 25  1  0  0  0
  2 84  1  0  0  0
  2 85  1  0  0  0
  3  4  1  0  0  0
  3 86  1  0  0  0
  3 87  1  0  0  0
  4  5  1  0  0  0
  4 88  1  0  0  0
  4 89  1  0  0  0
  5  6  1  0  0  0
  5 26  1  0  0  0
  5 90  1  0  0  0
  6 25  1  0  0  0
  6 91  1  0  0  0
  6 92  1  0  0  0
  7  8  2  0  0  0
  7 26  1  0  0  0
  7 29  1  0  0  0
  8  9  1  0  0  0
  8 22  1  0  0  0
  9 10  1  0  0  0
  9 27  2  0  0  0
 10 11  2  0  0  0
 10 15  1  0  0  0
 11 12  1  0  0  0
 11 93  1  0  0  0
 12 13  2  0  0  0
 12 94  1  0  0  0
 13 14  1  0  0  0
 13 31  1  0  0  0
 14 15  2  0  0  0
 14 95  1  0  0  0
 15 96  1  0  0  0
 16 17  2  0  0  0
 16 21  1  0  0  0
 16 31  1  0  0  0
 17 18  1  0  0  0
 17 97  1  0  0  0
 18 19  2  0  0  0
 18 98  1  0  0  0
 19 20  1  0  0  0
 19 24  1  0  0  0
 20 21  2  0  0  0
 20 99  1  0  0  0
 21 23  1  0  0  0
 22 28  1  0  0  0
 22 32  2  0  0  0
 26 27  1  0  0  0
 28100  1  0  0  0
 28101  1  0  0  0
 29102  1  0  0  0
 29103  1  0  0  0
 33 34  1  0  0  0
 33 66  1  0  0  0
 33 70  2  0  0  0
 34 36  1  0  0  0
 34 59  1  0  0  0
 34104  1  0  0  0
 35 44  2  0  0  0
 35 45  1  0  0  0
 35 68  1  0  0  0
 36 56  1  0  0  0
 36105  1  0  0  0
 37 39  1  0  0  0
 37 47  1  0  0  0
 37 66  1  0  0  0
 37106  1  0  0  0
 38 43  2  0  0  0
 38 46  1  0  0  0
 38 47  1  0  0  0
 39 64  1  0  0  0
 39 67  2  0  0  0
 40 52  1  0  0  0
 40 53  2  0  0  0
 40 58  1  0  0  0
 41107  1  0  0  0
 41108  1  0  0  0
 41109  1  0  0  0
 41 48  1  0  0  0
 42 43  1  0  0  0
 42 66  1  0  0  0
 42110  1  0  0  0
 42111  1  0  0  0
 43 44  1  0  0  0
 44112  1  0  0  0
 45 46  2  0  0  0
 45113  1  0  0  0
 46114  1  0  0  0
 47115  1  0  0  0
 47116  1  0  0  0
 48 56  1  0  0  0
 48 65  1  0  0  0
 48117  1  0  0  0
 49 50  1  0  0  0
 49 53  1  0  0  0
 49 64  1  0  0  0
 49118  1  0  0  0
 50 51  1  0  0  0
 50119  1  0  0  0
 50120  1  0  0  0
 51 52  1  0  0  0
 51121  1  0  0  0
 51122  1  0  0  0
 52123  1  0  0  0
 52124  1  0  0  0
 53 54  1  0  0  0
 54 55  2  0  0  0
 54125  1  0  0  0
 55 57  1  0  0  0
 55126  1  0  0  0
 56 69  2  0  0  0
 57 58  2  0  0  0
 57127  1  0  0  0
 58128  1  0  0  0
 59 60  1  0  0  0
 59 61  1  0  0  0
 59 62  1  0  0  0
 60129  1  0  0  0
 60130  1  0  0  0
 60131  1  0  0  0
 61132  1  0  0  0
 61133  1  0  0  0
 61134  1  0  0  0
 62135  1  0  0  0
 62136  1  0  0  0
 62137  1  0  0  0
 63 65  1  0  0  0
 63138  1  0  0  0
 63139  1  0  0  0
 63140  1  0  0  0
 64141  1  0  0  0
 65142  1  0  0  0
 68 81  1  0  0  0
 71 72  2  0  0  0
 71 82  1  0  0  0
 71143  1  0  0  0
 72 75  1  0  0  0
 72 83  1  0  0  0
 73 76  1  0  0  0
 73 82  1  0  0  0
 73 83  2  0  0  0
 74 78  1  0  0  0
 74144  1  0  0  0
 74145  1  0  0  0
 74146  1  0  0  0
 75 79  1  0  0  0
 75147  1  0  0  0
 75148  1  0  0  0
 76 78  1  0  0  0
 76149  1  0  0  0
 76150  1  0  0  0
 77 79  1  0  0  0
 77151  1  0  0  0
 77152  1  0  0  0
 78153  1  0  0  0
 78154  1  0  0  0
 79155  1  0  0  0
 79156  1  0  0  0
 80 81  1  0  0  0
 80 82  1  0  0  0
 80157  1  0  0  0
 80158  1  0  0  0
 81159  1  0  0  0
 81160  1  0  0  0
 83161  1  0  0  0
M  CHG  1  83   1
M  ISO  4   1 100  68 101  77 100  81 101
M  END
> <chiral flag>
0

> <version>
0

> <s_m_source_file>
/data/baiqing/PycharmProjects/Reinvent-master-3.2/result/LINK_invent/BTK/process_docking_weight1_custom_sum_contain_oxygen_bond_distance_aromatic_linkinvent_7_9_3/rearranged_h_0038.sdf

> <i_m_source_file_index>
77

> <r_mmod_Potential_Energy-OPLS-2005>
89.0640716552734

> <r_mmod_Stretch_Energy-OPLS-2005>
106.809219360352

> <r_mmod_Bend_Energy-OPLS-2005>
160.597930908203

> <r_mmod_Torsional_Energy-OPLS-2005>
217.233276367188

> <r_mmod_Improper_Torsional_Energy-OPLS-2005>
3.90782403945923

> <r_mmod_Van_der_Waal_Energy-OPLS-2005>
107.199401855469

> <r_mmod_Electrostatic_Energy-OPLS-2005>
-167.779800415039

> <r_mmod_Solvation_Energy-OPLS-2005>
-400.911804199219

> <b_mmod_Minimization_Converged-OPLS-2005>
0

> <r_mmod_RMS_Derivative-OPLS-2005>
3.03829431533813

$$$$
80
                    3D
 Structure written by MMmdl.
167175  0  0  1  0            999 V2000
  -30.7625  -14.3981   20.6217 C   0  0  0  0  0  0
  -30.4082  -12.2764   19.4144 C   0  0  0  0  0  0
  -29.4858  -12.5093   18.2007 C   0  0  0  0  0  0
  -28.0115  -12.3716   18.6217 C   0  0  0  0  0  0
  -27.6653  -13.2071   19.8828 C   0  0  2  0  0  0
  -28.7077  -12.9716   21.0030 C   0  0  0  0  0  0
  -25.2595  -13.8192   20.5689 C   0  0  0  0  0  0
  -24.1827  -13.0472   20.9148 C   0  0  0  0  0  0
  -24.6371  -11.6934   20.8706 C   0  0  0  0  0  0
  -23.9034  -10.4331   21.0378 C   0  0  0  0  0  0
  -24.3615   -9.4256   21.9150 C   0  0  0  0  0  0
  -23.6306   -8.2272   22.0745 C   0  0  0  0  0  0
  -22.4283   -8.0296   21.3529 C   0  0  0  0  0  0
  -21.9896   -9.0261   20.4622 C   0  0  0  0  0  0
  -22.7201  -10.2149   20.3016 C   0  0  0  0  0  0
  -21.6870   -6.0760   22.5283 C   0  0  0  0  0  0
  -21.4037   -6.5658   23.8220 C   0  0  0  0  0  0
  -21.3653   -5.6799   24.9171 C   0  0  0  0  0  0
  -21.6038   -4.3066   24.7214 C   0  0  0  0  0  0
  -21.8832   -3.8161   23.4343 C   0  0  0  0  0  0
  -21.9211   -4.6990   22.3407 C   0  0  0  0  0  0
  -22.7845  -13.5254   21.1813 C   0  0  0  0  0  0
  -22.1660   -4.2190   21.0976 F   0  0  0  0  0  0
  -21.5619   -3.4543   25.7717 F   0  0  0  0  0  0
  -30.0478  -13.2518   20.4576 N   0  0  0  0  0  0
  -26.3039  -12.9355   20.3414 N   0  0  0  0  0  0
  -25.9313  -11.6519   20.5792 N   0  0  0  0  0  0
  -22.0513  -12.8236   22.0373 N   0  0  0  0  0  0
  -25.4352  -15.1906   20.4147 N   0  0  0  0  0  0
  -31.8231  -14.6164   20.0303 O   0  0  0  0  0  0
  -21.6646   -6.8885   21.4237 O   0  0  0  0  0  0
  -22.3513  -14.5569   20.6672 O   0  0  0  0  0  0
  -24.6126  -31.8680   23.2100 C   0  0  0  0  0  0
  -25.9035  -32.4812   23.8387 C   0  0  1  0  0  0
  -27.2494  -27.4413   20.0759 C   0  0  0  0  0  0
  -25.5892  -33.8616   24.2304 N   0  0  0  0  0  0
  -23.3995  -30.4907   21.5507 C   0  0  2  0  0  0
  -24.8452  -28.9516   20.1208 C   0  0  0  0  0  0
  -22.7403  -29.4668   22.5022 C   0  0  0  0  0  0
  -18.0263  -28.1363   22.8491 C   0  0  0  0  0  0
  -24.1487  -36.7313   23.2638 C   0  0  0  0  0  0
  -25.9281  -30.8315   21.3647 C   0  0  0  0  0  0
  -26.0051  -29.4664   20.7106 C   0  0  0  0  0  0
  -27.2039  -28.7182   20.6840 C   0  0  0  0  0  0
  -26.0638  -26.9402   19.4843 C   0  0  0  0  0  0
  -24.8695  -27.6863   19.5103 C   0  0  0  0  0  0
  -23.6069  -29.8178   20.1678 C   0  0  0  0  0  0
  -25.4108  -36.3106   24.0331 C   0  0  1  0  0  0
  -20.5854  -28.3651   23.1324 C   0  0  2  0  0  0
  -20.6753  -26.9393   22.5415 C   0  0  0  0  0  0
  -19.5737  -26.6378   21.5205 C   0  0  0  0  0  0
  -18.1916  -26.7912   22.1615 C   0  0  0  0  0  0
  -19.1512  -28.8821   23.2901 C   0  0  0  0  0  0
  -18.9449  -30.1431   23.8901 C   0  0  0  0  0  0
  -17.6457  -30.6575   24.0564 C   0  0  0  0  0  0
  -25.9039  -34.9473   23.5115 C   0  0  0  0  0  0
  -16.5347  -29.9085   23.6324 C   0  0  0  0  0  0
  -16.7257  -28.6496   23.0355 C   0  0  0  0  0  0
  -26.4468  -31.6604   25.0720 C   0  0  0  0  0  0
  -25.3740  -31.3731   26.1476 C   0  0  0  0  0  0
  -27.0298  -30.3039   24.6112 C   0  0  0  0  0  0
  -27.6022  -32.4348   25.7489 C   0  0  0  0  0  0
  -27.5588  -37.1801   24.8457 C   0  0  0  0  0  0
  -21.4138  -29.3024   22.3741 N   0  0  0  0  0  0
  -26.4285  -37.3796   23.9425 N   0  0  0  0  0  0
  -24.6643  -31.0799   22.0990 N   0  0  0  0  0  0
  -23.4188  -28.8219   23.3061 O   0  0  0  0  0  0
  -28.4688  -26.7843   20.0596 O   0  0  0  0  0  0
  -26.5620  -34.8931   22.4686 O   0  0  0  0  0  0
  -23.5321  -32.1435   23.7501 O   0  0  0  0  0  0
  -30.2942  -26.0608   18.0564 C   0  0  0  0  0  0
  -31.1802  -25.7432   17.0080 C   0  0  0  0  0  0
  -29.6138  -25.0266   18.7342 C   0  0  0  0  0  0
  -31.3453  -24.3895   16.6599 C   0  0  0  0  0  0
  -29.9004  -23.6869   18.3544 C   0  0  0  0  0  0
  -31.9205  -26.8469   16.2680 C   0  0  0  0  0  0
  -32.2112  -23.9661   15.4885 C   0  0  0  0  0  0
  -28.5782  -25.3730   19.8081 C   0  0  0  0  0  0
  -29.2377  -22.4566   18.9818 C   0  0  0  0  0  0
  -30.1888  -21.5341   19.7853 C   0  0  0  0  0  0
  -29.5540  -20.1512   20.0777 C   0  0  0  0  0  0
  -30.4603  -19.1487   20.8232 C   0  0  0  0  0  0
  -29.8404  -17.7343   20.9064 C   0  0  0  0  0  0
  -30.7439  -16.6925   21.6018 C   0  0  0  0  0  0
  -30.7368  -23.3930   17.3320 N   0  0  0  0  0  0
  -30.2257  -15.3274   21.4303 N   0  0  0  0  0  0
  -31.4565  -12.3379   19.1194 H   0  0  0  0  0  0
  -30.2775  -11.2615   19.7972 H   0  0  0  0  0  0
  -29.7088  -11.7915   17.4080 H   0  0  0  0  0  0
  -29.6630  -13.5011   17.7815 H   0  0  0  0  0  0
  -27.8251  -11.3148   18.8185 H   0  0  0  0  0  0
  -27.3544  -12.6444   17.7955 H   0  0  0  0  0  0
  -27.7185  -14.2583   19.5943 H   0  0  0  0  0  0
  -28.6713  -11.9359   21.3467 H   0  0  0  0  0  0
  -28.4695  -13.5715   21.8812 H   0  0  0  0  0  0
  -25.2779   -9.5780   22.4677 H   0  0  0  0  0  0
  -24.0079   -7.4680   22.7466 H   0  0  0  0  0  0
  -21.0826   -8.8729   19.8926 H   0  0  0  0  0  0
  -22.3635  -10.9667   19.6108 H   0  0  0  0  0  0
  -21.2025   -7.6171   23.9744 H   0  0  0  0  0  0
  -21.1429   -6.0515   25.9084 H   0  0  0  0  0  0
  -22.0598   -2.7631   23.2802 H   0  0  0  0  0  0
  -22.4191  -11.9931   22.4762 H   0  0  0  0  0  0
  -21.1117  -13.1201   22.2595 H   0  0  0  0  0  0
  -24.6755  -15.8520   20.5405 H   0  0  0  0  0  0
  -26.3008  -15.6321   20.1288 H   0  0  0  0  0  0
  -26.7101  -32.5529   23.1150 H   0  0  0  0  0  0
  -25.0036  -33.9775   25.0443 H   0  0  0  0  0  0
  -22.6848  -31.3048   21.4096 H   0  0  0  0  0  0
  -23.3752  -35.9640   23.3283 H   0  0  0  0  0  0
  -24.3575  -36.8951   22.2053 H   0  0  0  0  0  0
  -23.7232  -37.6506   23.6666 H   0  0  0  0  0  0
  -26.0481  -31.6006   20.6003 H   0  0  0  0  0  0
  -26.8113  -30.8774   21.9900 H   0  0  0  0  0  0
  -28.1042  -29.1222   21.1257 H   0  0  0  0  0  0
  -26.0300  -25.9929   18.9693 H   0  0  0  0  0  0
  -23.9781  -27.2857   19.0473 H   0  0  0  0  0  0
  -23.7142  -30.5879   19.4025 H   0  0  0  0  0  0
  -22.7297  -29.2371   19.8766 H   0  0  0  0  0  0
  -25.1288  -36.1954   25.0821 H   0  0  0  0  0  0
  -20.9929  -28.3203   24.1455 H   0  0  0  0  0  0
  -20.5648  -26.2269   23.3605 H   0  0  0  0  0  0
  -21.6632  -26.7436   22.1222 H   0  0  0  0  0  0
  -19.6909  -25.6294   21.1230 H   0  0  0  0  0  0
  -19.6676  -27.3196   20.6742 H   0  0  0  0  0  0
  -17.4196  -26.6664   21.4011 H   0  0  0  0  0  0
  -18.0313  -26.0041   22.8993 H   0  0  0  0  0  0
  -19.7930  -30.7233   24.2288 H   0  0  0  0  0  0
  -17.5019  -31.6260   24.5169 H   0  0  0  0  0  0
  -15.5351  -30.2998   23.7632 H   0  0  0  0  0  0
  -15.8660  -28.0816   22.7083 H   0  0  0  0  0  0
  -24.5887  -30.7102   25.7837 H   0  0  0  0  0  0
  -24.8969  -32.2898   26.4948 H   0  0  0  0  0  0
  -25.8096  -30.8890   27.0223 H   0  0  0  0  0  0
  -26.2836  -29.6804   24.1168 H   0  0  0  0  0  0
  -27.4058  -29.7284   25.4584 H   0  0  0  0  0  0
  -27.8683  -30.4357   23.9267 H   0  0  0  0  0  0
  -27.2607  -33.3635   26.2081 H   0  0  0  0  0  0
  -28.3823  -32.6940   25.0319 H   0  0  0  0  0  0
  -28.0698  -31.8477   26.5404 H   0  0  0  0  0  0
  -28.2584  -38.0122   24.7553 H   0  0  0  0  0  0
  -28.1108  -36.2660   24.6215 H   0  0  0  0  0  0
  -27.2320  -37.1375   25.8860 H   0  0  0  0  0  0
  -20.9300  -29.8752   21.6966 H   0  0  0  0  0  0
  -26.0173  -38.2868   24.1440 H   0  0  0  0  0  0
  -30.1224  -27.0963   18.3123 H   0  0  0  0  0  0
  -31.6884  -27.8297   16.6793 H   0  0  0  0  0  0
  -31.6543  -26.8584   15.2106 H   0  0  0  0  0  0
  -32.9993  -26.7046   16.3443 H   0  0  0  0  0  0
  -33.2654  -24.0581   15.7385 H   0  0  0  0  0  0
  -32.0167  -24.5888   14.6163 H   0  0  0  0  0  0
  -32.0149  -22.9329   15.1996 H   0  0  0  0  0  0
  -28.8939  -24.9071   20.7416 H   0  0  0  0  0  0
  -27.6445  -24.8895   19.5441 H   0  0  0  0  0  0
  -28.8033  -21.8868   18.1572 H   0  0  0  0  0  0
  -28.3965  -22.7399   19.6084 H   0  0  0  0  0  0
  -30.4858  -22.0321   20.7089 H   0  0  0  0  0  0
  -31.1051  -21.3759   19.2141 H   0  0  0  0  0  0
  -29.2558  -19.7020   19.1284 H   0  0  0  0  0  0
  -28.6338  -20.2854   20.6461 H   0  0  0  0  0  0
  -30.6776  -19.5237   21.8250 H   0  0  0  0  0  0
  -31.4208  -19.0811   20.3084 H   0  0  0  0  0  0
  -29.6268  -17.3923   19.8917 H   0  0  0  0  0  0
  -28.8741  -17.7831   21.4140 H   0  0  0  0  0  0
  -30.8206  -16.9098   22.6684 H   0  0  0  0  0  0
  -31.7608  -16.7806   21.2152 H   0  0  0  0  0  0
  -29.3823  -15.0789   21.9256 H   0  0  0  0  0  0
  1 25  1  0  0  0
  1 30  2  0  0  0
  1 86  1  0  0  0
  2  3  1  0  0  0
  2 25  1  0  0  0
  2 87  1  0  0  0
  2 88  1  0  0  0
  3  4  1  0  0  0
  3 89  1  0  0  0
  3 90  1  0  0  0
  4  5  1  0  0  0
  4 91  1  0  0  0
  4 92  1  0  0  0
  5  6  1  0  0  0
  5 26  1  0  0  0
  5 93  1  0  0  0
  6 25  1  0  0  0
  6 94  1  0  0  0
  6 95  1  0  0  0
  7  8  2  0  0  0
  7 26  1  0  0  0
  7 29  1  0  0  0
  8  9  1  0  0  0
  8 22  1  0  0  0
  9 10  1  0  0  0
  9 27  2  0  0  0
 10 11  2  0  0  0
 10 15  1  0  0  0
 11 12  1  0  0  0
 11 96  1  0  0  0
 12 13  2  0  0  0
 12 97  1  0  0  0
 13 14  1  0  0  0
 13 31  1  0  0  0
 14 15  2  0  0  0
 14 98  1  0  0  0
 15 99  1  0  0  0
 16 17  2  0  0  0
 16 21  1  0  0  0
 16 31  1  0  0  0
 17 18  1  0  0  0
 17100  1  0  0  0
 18 19  2  0  0  0
 18101  1  0  0  0
 19 20  1  0  0  0
 19 24  1  0  0  0
 20 21  2  0  0  0
 20102  1  0  0  0
 21 23  1  0  0  0
 22 28  1  0  0  0
 22 32  2  0  0  0
 26 27  1  0  0  0
 28103  1  0  0  0
 28104  1  0  0  0
 29105  1  0  0  0
 29106  1  0  0  0
 33 34  1  0  0  0
 33 66  1  0  0  0
 33 70  2  0  0  0
 34 36  1  0  0  0
 34 59  1  0  0  0
 34107  1  0  0  0
 35 44  2  0  0  0
 35 45  1  0  0  0
 35 68  1  0  0  0
 36 56  1  0  0  0
 36108  1  0  0  0
 37 39  1  0  0  0
 37 47  1  0  0  0
 37 66  1  0  0  0
 37109  1  0  0  0
 38 43  2  0  0  0
 38 46  1  0  0  0
 38 47  1  0  0  0
 39 64  1  0  0  0
 39 67  2  0  0  0
 40 52  1  0  0  0
 40 53  2  0  0  0
 40 58  1  0  0  0
 41110  1  0  0  0
 41111  1  0  0  0
 41112  1  0  0  0
 41 48  1  0  0  0
 42 43  1  0  0  0
 42 66  1  0  0  0
 42113  1  0  0  0
 42114  1  0  0  0
 43 44  1  0  0  0
 44115  1  0  0  0
 45 46  2  0  0  0
 45116  1  0  0  0
 46117  1  0  0  0
 47118  1  0  0  0
 47119  1  0  0  0
 48 56  1  0  0  0
 48 65  1  0  0  0
 48120  1  0  0  0
 49 50  1  0  0  0
 49 53  1  0  0  0
 49 64  1  0  0  0
 49121  1  0  0  0
 50 51  1  0  0  0
 50122  1  0  0  0
 50123  1  0  0  0
 51 52  1  0  0  0
 51124  1  0  0  0
 51125  1  0  0  0
 52126  1  0  0  0
 52127  1  0  0  0
 53 54  1  0  0  0
 54 55  2  0  0  0
 54128  1  0  0  0
 55 57  1  0  0  0
 55129  1  0  0  0
 56 69  2  0  0  0
 57 58  2  0  0  0
 57130  1  0  0  0
 58131  1  0  0  0
 59 60  1  0  0  0
 59 61  1  0  0  0
 59 62  1  0  0  0
 60132  1  0  0  0
 60133  1  0  0  0
 60134  1  0  0  0
 61135  1  0  0  0
 61136  1  0  0  0
 61137  1  0  0  0
 62138  1  0  0  0
 62139  1  0  0  0
 62140  1  0  0  0
 63 65  1  0  0  0
 63141  1  0  0  0
 63142  1  0  0  0
 63143  1  0  0  0
 64144  1  0  0  0
 65145  1  0  0  0
 68 78  1  0  0  0
 71 72  2  0  0  0
 71 73  1  0  0  0
 71146  1  0  0  0
 72 74  1  0  0  0
 72 76  1  0  0  0
 73 75  2  0  0  0
 73 78  1  0  0  0
 74 77  1  0  0  0
 74 85  2  0  0  0
 75 79  1  0  0  0
 75 85  1  0  0  0
 76147  1  0  0  0
 76148  1  0  0  0
 76149  1  0  0  0
 77150  1  0  0  0
 77151  1  0  0  0
 77152  1  0  0  0
 78153  1  0  0  0
 78154  1  0  0  0
 79 80  1  0  0  0
 79155  1  0  0  0
 79156  1  0  0  0
 80 81  1  0  0  0
 80157  1  0  0  0
 80158  1  0  0  0
 81 82  1  0  0  0
 81159  1  0  0  0
 81160  1  0  0  0
 82 83  1  0  0  0
 82161  1  0  0  0
 82162  1  0  0  0
 83 84  1  0  0  0
 83163  1  0  0  0
 83164  1  0  0  0
 84 86  1  0  0  0
 84165  1  0  0  0
 84166  1  0  0  0
 86167  1  0  0  0
M  ISO  4   1 100  68 101  78 101  86 100
M  END
> <chiral flag>
0

> <version>
0

> <s_m_source_file>
/data/baiqing/PycharmProjects/Reinvent-master-3.2/result/LINK_invent/BTK/process_docking_weight1_custom_sum_contain_oxygen_bond_distance_aromatic_linkinvent_7_9_3/rearranged_h_0038.sdf

> <i_m_source_file_index>
78

> <r_mmod_Potential_Energy-OPLS-2005>
-222.813247680664

> <r_mmod_Stretch_Energy-OPLS-2005>
37.8101539611816

> <r_mmod_Bend_Energy-OPLS-2005>
107.445838928223

> <r_mmod_Torsional_Energy-OPLS-2005>
192.838638305664

> <r_mmod_Improper_Torsional_Energy-OPLS-2005>
2.19793057441711

> <r_mmod_Van_der_Waal_Energy-OPLS-2005>
159.677703857422

> <r_mmod_Electrostatic_Energy-OPLS-2005>
-513.392211914062

> <r_mmod_Solvation_Energy-OPLS-2005>
-218.82878112793

> <b_mmod_Minimization_Converged-OPLS-2005>
0

> <r_mmod_RMS_Derivative-OPLS-2005>
3.38080525398254

$$$$
81
                    3D
 Structure written by MMmdl.
158166  0  0  1  0            999 V2000
  -30.6504  -14.6061   20.5111 C   0  0  0  0  0  0
  -30.4287  -12.3747   19.4558 C   0  0  0  0  0  0
  -29.5031  -12.5032   18.2271 C   0  0  0  0  0  0
  -28.0255  -12.3454   18.6382 C   0  0  0  0  0  0
  -27.6506  -13.2181   19.8664 C   0  0  2  0  0  0
  -28.6946  -13.0751   20.9975 C   0  0  0  0  0  0
  -25.2526  -13.8185   20.5690 C   0  0  0  0  0  0
  -24.1795  -13.0444   20.9195 C   0  0  0  0  0  0
  -24.6370  -11.6914   20.8751 C   0  0  0  0  0  0
  -23.9039  -10.4298   21.0407 C   0  0  0  0  0  0
  -24.3593   -9.4214   21.9178 C   0  0  0  0  0  0
  -23.6282   -8.2246   22.0742 C   0  0  0  0  0  0
  -22.4269   -8.0277   21.3536 C   0  0  0  0  0  0
  -21.9895   -9.0242   20.4635 C   0  0  0  0  0  0
  -22.7211  -10.2130   20.3053 C   0  0  0  0  0  0
  -21.6853   -6.0727   22.5271 C   0  0  0  0  0  0
  -21.4002   -6.5631   23.8204 C   0  0  0  0  0  0
  -21.3669   -5.6779   24.9168 C   0  0  0  0  0  0
  -21.6067   -4.3042   24.7217 C   0  0  0  0  0  0
  -21.8819   -3.8134   23.4333 C   0  0  0  0  0  0
  -21.9183   -4.6954   22.3391 C   0  0  0  0  0  0
  -22.7819  -13.5236   21.1868 C   0  0  0  0  0  0
  -22.1655   -4.2136   21.0967 F   0  0  0  0  0  0
  -21.5645   -3.4528   25.7731 F   0  0  0  0  0  0
  -30.0115  -13.3990   20.4317 N   0  0  0  0  0  0
  -26.2955  -12.9365   20.3328 N   0  0  0  0  0  0
  -25.9299  -11.6523   20.5783 N   0  0  0  0  0  0
  -22.0459  -12.8227   22.0427 N   0  0  0  0  0  0
  -25.4248  -15.1906   20.4100 N   0  0  0  0  0  0
  -31.8161  -14.7453   20.1305 O   0  0  0  0  0  0
  -21.6645   -6.8866   21.4233 O   0  0  0  0  0  0
  -22.3517  -14.5553   20.6723 O   0  0  0  0  0  0
  -24.6224  -31.8620   23.2042 C   0  0  0  0  0  0
  -25.9085  -32.4797   23.8366 C   0  0  1  0  0  0
  -27.2281  -27.3395   20.1150 C   0  0  0  0  0  0
  -25.5912  -33.8590   24.2297 N   0  0  0  0  0  0
  -23.4151  -30.4867   21.5458 C   0  0  2  0  0  0
  -24.8608  -28.9393   20.1177 C   0  0  0  0  0  0
  -22.7449  -29.4644   22.4942 C   0  0  0  0  0  0
  -18.0288  -28.1372   22.8503 C   0  0  0  0  0  0
  -24.1484  -36.7301   23.2644 C   0  0  0  0  0  0
  -25.9533  -30.7968   21.3741 C   0  0  0  0  0  0
  -26.0254  -29.4211   20.7271 C   0  0  0  0  0  0
  -27.2074  -28.6287   20.7259 C   0  0  0  0  0  0
  -26.0423  -26.9089   19.4768 C   0  0  0  0  0  0
  -24.8680  -27.6842   19.4904 C   0  0  0  0  0  0
  -23.6289  -29.8184   20.1621 C   0  0  0  0  0  0
  -25.4105  -36.3101   24.0343 C   0  0  1  0  0  0
  -20.5888  -28.3674   23.1293 C   0  0  2  0  0  0
  -20.6768  -26.9400   22.5411 C   0  0  0  0  0  0
  -19.5742  -26.6382   21.5211 C   0  0  0  0  0  0
  -18.1926  -26.7924   22.1629 C   0  0  0  0  0  0
  -19.1540  -28.8837   23.2902 C   0  0  0  0  0  0
  -18.9462  -30.1442   23.8921 C   0  0  0  0  0  0
  -17.6461  -30.6582   24.0565 C   0  0  0  0  0  0
  -25.9039  -34.9465   23.5119 C   0  0  0  0  0  0
  -16.5352  -29.9083   23.6323 C   0  0  0  0  0  0
  -16.7276  -28.6492   23.0359 C   0  0  0  0  0  0
  -26.4482  -31.6594   25.0718 C   0  0  0  0  0  0
  -25.3725  -31.3724   26.1456 C   0  0  0  0  0  0
  -27.0315  -30.3024   24.6140 C   0  0  0  0  0  0
  -27.6047  -32.4325   25.7485 C   0  0  0  0  0  0
  -27.5582  -37.1809   24.8466 C   0  0  0  0  0  0
  -21.4165  -29.3044   22.3687 N   0  0  0  0  0  0
  -26.4292  -37.3788   23.9416 N   0  0  0  0  0  0
  -24.6823  -31.0654   22.0987 N   0  0  0  0  0  0
  -23.4185  -28.8175   23.3003 O   0  0  0  0  0  0
  -28.3931  -26.5637   20.0869 O   0  0  0  0  0  0
  -26.5600  -34.8933   22.4684 O   0  0  0  0  0  0
  -23.5401  -32.1413   23.7387 O   0  0  0  0  0  0
  -27.7886  -22.9994   19.7176 C   0  0  0  0  0  0
  -28.5762  -22.3457   20.6923 C   0  0  0  0  0  0
  -29.3206  -24.6231   21.3057 C   0  0  0  0  0  0
  -29.3672  -23.2060   21.4962 C   0  0  0  0  0  0
  -28.4463  -25.1729   20.3336 C   0  0  0  0  0  0
  -29.5722  -26.0151   23.4319 C   0  0  0  0  0  0
  -28.4037  -20.8055   20.9549 C   0  0  0  0  0  0
  -30.2142  -25.5595   22.1162 C   0  0  0  0  0  0
  -29.5390  -19.7551   20.6145 C   0  0  0  0  0  0
  -29.1683  -18.2326   20.8942 C   0  0  0  0  0  0
  -30.2871  -17.1358   20.6558 C   0  0  0  0  0  0
  -27.7284  -24.3457   19.5367 N   0  0  0  0  0  0
  -29.8880  -15.6969   20.8229 N   0  0  0  0  0  0
  -30.3613  -22.5254   22.7388 Cl  0  0  0  0  0  0
  -31.4711  -12.4877   19.1535 H   0  0  0  0  0  0
  -30.3508  -11.3794   19.8953 H   0  0  0  0  0  0
  -29.7685  -11.7582   17.4764 H   0  0  0  0  0  0
  -29.6472  -13.4782   17.7586 H   0  0  0  0  0  0
  -27.8581  -11.2923   18.8672 H   0  0  0  0  0  0
  -27.3713  -12.5786   17.7979 H   0  0  0  0  0  0
  -27.6711  -14.2541   19.5284 H   0  0  0  0  0  0
  -28.6953  -12.0590   21.3948 H   0  0  0  0  0  0
  -28.4497  -13.7249   21.8389 H   0  0  0  0  0  0
  -25.2739   -9.5707   22.4746 H   0  0  0  0  0  0
  -24.0004   -7.4654   22.7462 H   0  0  0  0  0  0
  -21.0825   -8.8752   19.8948 H   0  0  0  0  0  0
  -22.3658  -10.9665   19.6163 H   0  0  0  0  0  0
  -21.1985   -7.6136   23.9703 H   0  0  0  0  0  0
  -21.1509   -6.0507   25.9074 H   0  0  0  0  0  0
  -22.0597   -2.7594   23.2833 H   0  0  0  0  0  0
  -22.4055  -11.9871   22.4804 H   0  0  0  0  0  0
  -21.1085  -13.1268   22.2656 H   0  0  0  0  0  0
  -24.6575  -15.8453   20.5189 H   0  0  0  0  0  0
  -26.2732  -15.6284   20.0747 H   0  0  0  0  0  0
  -26.7149  -32.5484   23.1114 H   0  0  0  0  0  0
  -25.0077  -33.9731   25.0459 H   0  0  0  0  0  0
  -22.7105  -31.3084   21.4022 H   0  0  0  0  0  0
  -23.3752  -35.9629   23.3304 H   0  0  0  0  0  0
  -24.3591  -36.8913   22.2061 H   0  0  0  0  0  0
  -23.7222  -37.6503   23.6652 H   0  0  0  0  0  0
  -26.0779  -31.5555   20.6005 H   0  0  0  0  0  0
  -26.8380  -30.8526   21.9965 H   0  0  0  0  0  0
  -28.1060  -28.9976   21.2012 H   0  0  0  0  0  0
  -26.0052  -25.9694   18.9499 H   0  0  0  0  0  0
  -23.9782  -27.3110   19.0018 H   0  0  0  0  0  0
  -23.7478  -30.5925   19.4029 H   0  0  0  0  0  0
  -22.7495  -29.2466   19.8604 H   0  0  0  0  0  0
  -25.1285  -36.1966   25.0837 H   0  0  0  0  0  0
  -21.0001  -28.3243   24.1407 H   0  0  0  0  0  0
  -20.5653  -26.2284   23.3607 H   0  0  0  0  0  0
  -21.6635  -26.7422   22.1212 H   0  0  0  0  0  0
  -19.6890  -25.6297   21.1232 H   0  0  0  0  0  0
  -19.6667  -27.3199   20.6747 H   0  0  0  0  0  0
  -17.4190  -26.6690   21.4034 H   0  0  0  0  0  0
  -18.0321  -26.0059   22.9018 H   0  0  0  0  0  0
  -19.7934  -30.7250   24.2304 H   0  0  0  0  0  0
  -17.5015  -31.6268   24.5149 H   0  0  0  0  0  0
  -15.5351  -30.2983   23.7633 H   0  0  0  0  0  0
  -15.8683  -28.0808   22.7069 H   0  0  0  0  0  0
  -24.5899  -30.7068   25.7797 H   0  0  0  0  0  0
  -24.8911  -32.2884   26.4893 H   0  0  0  0  0  0
  -25.8066  -30.8904   27.0224 H   0  0  0  0  0  0
  -26.2871  -29.6788   24.1169 H   0  0  0  0  0  0
  -27.4036  -29.7267   25.4626 H   0  0  0  0  0  0
  -27.8739  -30.4330   23.9339 H   0  0  0  0  0  0
  -27.2660  -33.3627   26.2065 H   0  0  0  0  0  0
  -28.3855  -32.6879   25.0307 H   0  0  0  0  0  0
  -28.0712  -31.8440   26.5399 H   0  0  0  0  0  0
  -28.2603  -38.0105   24.7527 H   0  0  0  0  0  0
  -28.1076  -36.2641   24.6272 H   0  0  0  0  0  0
  -27.2311  -37.1441   25.8872 H   0  0  0  0  0  0
  -20.9314  -29.8787   21.6936 H   0  0  0  0  0  0
  -26.0182  -38.2875   24.1402 H   0  0  0  0  0  0
  -27.1353  -22.4222   19.0798 H   0  0  0  0  0  0
  -30.2370  -26.6972   23.9640 H   0  0  0  0  0  0
  -29.3683  -25.1720   24.0926 H   0  0  0  0  0  0
  -28.6338  -26.5414   23.2542 H   0  0  0  0  0  0
  -27.5021  -20.4936   20.4259 H   0  0  0  0  0  0
  -28.1481  -20.6976   22.0091 H   0  0  0  0  0  0
  -30.4543  -26.4376   21.5149 H   0  0  0  0  0  0
  -31.1765  -25.0850   22.3123 H   0  0  0  0  0  0
  -30.4385  -20.0042   21.1777 H   0  0  0  0  0  0
  -29.8078  -19.8567   19.5628 H   0  0  0  0  0  0
  -28.3001  -17.9812   20.2831 H   0  0  0  0  0  0
  -28.8303  -18.1515   21.9275 H   0  0  0  0  0  0
  -31.1247  -17.3332   21.3266 H   0  0  0  0  0  0
  -30.6802  -17.2582   19.6459 H   0  0  0  0  0  0
  -28.9354  -15.5102   21.0996 H   0  0  0  0  0  0
  1 25  1  0  0  0
  1 30  2  0  0  0
  1 83  1  0  0  0
  2  3  1  0  0  0
  2 25  1  0  0  0
  2 85  1  0  0  0
  2 86  1  0  0  0
  3  4  1  0  0  0
  3 87  1  0  0  0
  3 88  1  0  0  0
  4  5  1  0  0  0
  4 89  1  0  0  0
  4 90  1  0  0  0
  5  6  1  0  0  0
  5 26  1  0  0  0
  5 91  1  0  0  0
  6 25  1  0  0  0
  6 92  1  0  0  0
  6 93  1  0  0  0
  7  8  2  0  0  0
  7 26  1  0  0  0
  7 29  1  0  0  0
  8  9  1  0  0  0
  8 22  1  0  0  0
  9 10  1  0  0  0
  9 27  2  0  0  0
 10 11  2  0  0  0
 10 15  1  0  0  0
 11 12  1  0  0  0
 11 94  1  0  0  0
 12 13  2  0  0  0
 12 95  1  0  0  0
 13 14  1  0  0  0
 13 31  1  0  0  0
 14 15  2  0  0  0
 14 96  1  0  0  0
 15 97  1  0  0  0
 16 17  2  0  0  0
 16 21  1  0  0  0
 16 31  1  0  0  0
 17 18  1  0  0  0
 17 98  1  0  0  0
 18 19  2  0  0  0
 18 99  1  0  0  0
 19 20  1  0  0  0
 19 24  1  0  0  0
 20 21  2  0  0  0
 20100  1  0  0  0
 21 23  1  0  0  0
 22 28  1  0  0  0
 22 32  2  0  0  0
 26 27  1  0  0  0
 28101  1  0  0  0
 28102  1  0  0  0
 29103  1  0  0  0
 29104  1  0  0  0
 33 34  1  0  0  0
 33 66  1  0  0  0
 33 70  2  0  0  0
 34 36  1  0  0  0
 34 59  1  0  0  0
 34105  1  0  0  0
 35 44  2  0  0  0
 35 45  1  0  0  0
 35 68  1  0  0  0
 36 56  1  0  0  0
 36106  1  0  0  0
 37 39  1  0  0  0
 37 47  1  0  0  0
 37 66  1  0  0  0
 37107  1  0  0  0
 38 43  2  0  0  0
 38 46  1  0  0  0
 38 47  1  0  0  0
 39 64  1  0  0  0
 39 67  2  0  0  0
 40 52  1  0  0  0
 40 53  2  0  0  0
 40 58  1  0  0  0
 41108  1  0  0  0
 41109  1  0  0  0
 41110  1  0  0  0
 41 48  1  0  0  0
 42 43  1  0  0  0
 42 66  1  0  0  0
 42111  1  0  0  0
 42112  1  0  0  0
 43 44  1  0  0  0
 44113  1  0  0  0
 45 46  2  0  0  0
 45114  1  0  0  0
 46115  1  0  0  0
 47116  1  0  0  0
 47117  1  0  0  0
 48 56  1  0  0  0
 48 65  1  0  0  0
 48118  1  0  0  0
 49 50  1  0  0  0
 49 53  1  0  0  0
 49 64  1  0  0  0
 49119  1  0  0  0
 50 51  1  0  0  0
 50120  1  0  0  0
 50121  1  0  0  0
 51 52  1  0  0  0
 51122  1  0  0  0
 51123  1  0  0  0
 52124  1  0  0  0
 52125  1  0  0  0
 53 54  1  0  0  0
 54 55  2  0  0  0
 54126  1  0  0  0
 55 57  1  0  0  0
 55127  1  0  0  0
 56 69  2  0  0  0
 57 58  2  0  0  0
 57128  1  0  0  0
 58129  1  0  0  0
 59 60  1  0  0  0
 59 61  1  0  0  0
 59 62  1  0  0  0
 60130  1  0  0  0
 60131  1  0  0  0
 60132  1  0  0  0
 61133  1  0  0  0
 61134  1  0  0  0
 61135  1  0  0  0
 62136  1  0  0  0
 62137  1  0  0  0
 62138  1  0  0  0
 63 65  1  0  0  0
 63139  1  0  0  0
 63140  1  0  0  0
 63141  1  0  0  0
 64142  1  0  0  0
 65143  1  0  0  0
 68 75  1  0  0  0
 71 72  2  0  0  0
 71 82  1  0  0  0
 71144  1  0  0  0
 72 74  1  0  0  0
 72 77  1  0  0  0
 73 74  2  0  0  0
 73 75  1  0  0  0
 73 78  1  0  0  0
 74 84  1  0  0  0
 75 82  2  0  0  0
 76 78  1  0  0  0
 76145  1  0  0  0
 76146  1  0  0  0
 76147  1  0  0  0
 77 79  1  0  0  0
 77148  1  0  0  0
 77149  1  0  0  0
 78150  1  0  0  0
 78151  1  0  0  0
 79 80  1  0  0  0
 79152  1  0  0  0
 79153  1  0  0  0
 80 81  1  0  0  0
 80154  1  0  0  0
 80155  1  0  0  0
 81 83  1  0  0  0
 81156  1  0  0  0
 81157  1  0  0  0
 83158  1  0  0  0
M  ISO  4   1 100  68 101  75 101  83 100
M  END
> <chiral flag>
0

> <version>
0

> <s_m_source_file>
/data/baiqing/PycharmProjects/Reinvent-master-3.2/result/LINK_invent/BTK/process_docking_weight1_custom_sum_contain_oxygen_bond_distance_aromatic_linkinvent_7_9_3/rearranged_h_0038.sdf

> <i_m_source_file_index>
79

> <r_mmod_Potential_Energy-OPLS-2005>
-152.030197143555

> <r_mmod_Stretch_Energy-OPLS-2005>
67.4508743286133

> <r_mmod_Bend_Energy-OPLS-2005>
123.813346862793

> <r_mmod_Torsional_Energy-OPLS-2005>
210.812042236328

> <r_mmod_Improper_Torsional_Energy-OPLS-2005>
6.02546119689941

> <r_mmod_Van_der_Waal_Energy-OPLS-2005>
140.927215576172

> <r_mmod_Electrostatic_Energy-OPLS-2005>
-527.057312011719

> <r_mmod_Solvation_Energy-OPLS-2005>
-209.761123657227

> <b_mmod_Minimization_Converged-OPLS-2005>
0

> <r_mmod_RMS_Derivative-OPLS-2005>
1.83312678337097

$$$$
82
                    3D
 Structure written by MMmdl.
161169  0  0  1  0            999 V2000
  -30.6810  -14.5382   20.5322 C   0  0  0  0  0  0
  -30.4237  -12.3291   19.4579 C   0  0  0  0  0  0
  -29.5038  -12.4882   18.2280 C   0  0  0  0  0  0
  -28.0220  -12.3585   18.6301 C   0  0  0  0  0  0
  -27.6588  -13.2153   19.8732 C   0  0  2  0  0  0
  -28.6972  -13.0425   21.0055 C   0  0  0  0  0  0
  -25.2584  -13.8186   20.5661 C   0  0  0  0  0  0
  -24.1839  -13.0446   20.9156 C   0  0  0  0  0  0
  -24.6409  -11.6918   20.8721 C   0  0  0  0  0  0
  -23.9078  -10.4298   21.0394 C   0  0  0  0  0  0
  -24.3636   -9.4216   21.9166 C   0  0  0  0  0  0
  -23.6305   -8.2253   22.0739 C   0  0  0  0  0  0
  -22.4282   -8.0294   21.3541 C   0  0  0  0  0  0
  -21.9923   -9.0258   20.4639 C   0  0  0  0  0  0
  -22.7251  -10.2139   20.3044 C   0  0  0  0  0  0
  -21.6863   -6.0756   22.5276 C   0  0  0  0  0  0
  -21.4026   -6.5658   23.8210 C   0  0  0  0  0  0
  -21.3646   -5.6804   24.9167 C   0  0  0  0  0  0
  -21.6031   -4.3065   24.7214 C   0  0  0  0  0  0
  -21.8816   -3.8164   23.4335 C   0  0  0  0  0  0
  -21.9194   -4.6984   22.3399 C   0  0  0  0  0  0
  -22.7879  -13.5246   21.1834 C   0  0  0  0  0  0
  -22.1662   -4.2179   21.0975 F   0  0  0  0  0  0
  -21.5612   -3.4541   25.7721 F   0  0  0  0  0  0
  -30.0226  -13.3459   20.4478 N   0  0  0  0  0  0
  -26.3013  -12.9359   20.3348 N   0  0  0  0  0  0
  -25.9344  -11.6512   20.5765 N   0  0  0  0  0  0
  -22.0562  -12.8201   22.0397 N   0  0  0  0  0  0
  -25.4321  -15.1896   20.4067 N   0  0  0  0  0  0
  -31.8308  -14.6805   20.1085 O   0  0  0  0  0  0
  -21.6638   -6.8904   21.4241 O   0  0  0  0  0  0
  -22.3543  -14.5544   20.6699 O   0  0  0  0  0  0
  -24.6198  -31.8662   23.2038 C   0  0  0  0  0  0
  -25.9061  -32.4816   23.8356 C   0  0  1  0  0  0
  -27.2360  -27.3934   20.0935 C   0  0  0  0  0  0
  -25.5880  -33.8609   24.2286 N   0  0  0  0  0  0
  -23.4105  -30.4923   21.5436 C   0  0  2  0  0  0
  -24.8570  -28.9554   20.1101 C   0  0  0  0  0  0
  -22.7432  -29.4690   22.4922 C   0  0  0  0  0  0
  -18.0330  -28.1387   22.8408 C   0  0  0  0  0  0
  -24.1480  -36.7320   23.2639 C   0  0  0  0  0  0
  -25.9443  -30.8219   21.3609 C   0  0  0  0  0  0
  -26.0207  -29.4527   20.7077 C   0  0  0  0  0  0
  -27.2104  -28.6804   20.6973 C   0  0  0  0  0  0
  -26.0424  -26.9192   19.5158 C   0  0  0  0  0  0
  -24.8650  -27.6872   19.5086 C   0  0  0  0  0  0
  -23.6200  -29.8239   20.1590 C   0  0  0  0  0  0
  -25.4101  -36.3110   24.0331 C   0  0  1  0  0  0
  -20.5903  -28.3717   23.1291 C   0  0  2  0  0  0
  -20.6804  -26.9436   22.5434 C   0  0  0  0  0  0
  -19.5876  -26.6561   21.5106 C   0  0  0  0  0  0
  -18.2023  -26.7973   22.1477 C   0  0  0  0  0  0
  -19.1550  -28.8873   23.2844 C   0  0  0  0  0  0
  -18.9430  -30.1486   23.8825 C   0  0  0  0  0  0
  -17.6403  -30.6579   24.0459 C   0  0  0  0  0  0
  -25.9035  -34.9480   23.5111 C   0  0  0  0  0  0
  -16.5321  -29.9039   23.6237 C   0  0  0  0  0  0
  -16.7296  -28.6462   23.0261 C   0  0  0  0  0  0
  -26.4472  -31.6594   25.0688 C   0  0  0  0  0  0
  -25.3734  -31.3692   26.1428 C   0  0  0  0  0  0
  -27.0269  -30.3026   24.6064 C   0  0  0  0  0  0
  -27.6049  -32.4300   25.7459 C   0  0  0  0  0  0
  -27.5577  -37.1810   24.8462 C   0  0  0  0  0  0
  -21.4159  -29.3079   22.3664 N   0  0  0  0  0  0
  -26.4289  -37.3791   23.9402 N   0  0  0  0  0  0
  -24.6763  -31.0755   22.0940 N   0  0  0  0  0  0
  -23.4171  -28.8224   23.2984 O   0  0  0  0  0  0
  -28.3897  -26.6203   20.1472 O   0  0  0  0  0  0
  -26.5627  -34.8951   22.4697 O   0  0  0  0  0  0
  -23.5378  -32.1419   23.7410 O   0  0  0  0  0  0
  -28.7570  -23.2440   20.2239 C   0  0  0  0  0  0
  -28.1424  -24.1511   19.3095 C   0  0  0  0  0  0
  -27.1399  -23.5988   18.4529 C   0  0  0  0  0  0
  -28.3605  -21.8787   20.2684 C   0  0  0  0  0  0
  -26.7520  -22.2496   18.6343 C   0  0  0  0  0  0
  -26.4951  -24.3651   17.2951 C   0  0  0  0  0  0
  -25.6673  -21.5967   17.7928 C   0  0  0  0  0  0
  -28.6918  -25.6045   19.1521 C   0  0  0  0  0  0
  -28.9828  -20.8107   21.1973 C   0  0  0  0  0  0
  -29.6257  -19.5651   20.4823 C   0  0  0  0  0  0
  -29.4647  -18.1676   21.1813 C   0  0  0  0  0  0
  -30.3040  -17.0216   20.5200 C   0  0  0  0  0  0
  -27.3402  -21.4251   19.5181 N   0  0  0  0  0  0
  -29.9462  -15.6231   20.8865 N   0  0  0  0  0  0
  -31.4710  -12.4198   19.1625 H   0  0  0  0  0  0
  -30.3240  -11.3310   19.8874 H   0  0  0  0  0  0
  -29.7529  -11.7356   17.4790 H   0  0  0  0  0  0
  -29.6746  -13.4582   17.7595 H   0  0  0  0  0  0
  -27.8268  -11.3060   18.8359 H   0  0  0  0  0  0
  -27.3789  -12.6224   17.7898 H   0  0  0  0  0  0
  -27.6911  -14.2572   19.5544 H   0  0  0  0  0  0
  -28.6819  -12.0212   21.3891 H   0  0  0  0  0  0
  -28.4582  -13.6837   21.8555 H   0  0  0  0  0  0
  -25.2798   -9.5687   22.4714 H   0  0  0  0  0  0
  -24.0013   -7.4655   22.7468 H   0  0  0  0  0  0
  -21.0850   -8.8787   19.8956 H   0  0  0  0  0  0
  -22.3716  -10.9671   19.6143 H   0  0  0  0  0  0
  -21.2033   -7.6171   23.9726 H   0  0  0  0  0  0
  -21.1464   -6.0534   25.9073 H   0  0  0  0  0  0
  -22.0607   -2.7628   23.2820 H   0  0  0  0  0  0
  -22.4222  -11.9841   22.4705 H   0  0  0  0  0  0
  -21.1193  -13.1193   22.2695 H   0  0  0  0  0  0
  -24.6716  -15.8503   20.5269 H   0  0  0  0  0  0
  -26.2813  -15.6218   20.0638 H   0  0  0  0  0  0
  -26.7129  -32.5525   23.1118 H   0  0  0  0  0  0
  -24.9920  -33.9738   25.0356 H   0  0  0  0  0  0
  -22.7057  -31.3138   21.3997 H   0  0  0  0  0  0
  -23.3733  -35.9662   23.3296 H   0  0  0  0  0  0
  -24.3580  -36.8946   22.2057 H   0  0  0  0  0  0
  -23.7245  -37.6527   23.6662 H   0  0  0  0  0  0
  -26.0632  -31.5859   20.5909 H   0  0  0  0  0  0
  -26.8314  -30.8753   21.9802 H   0  0  0  0  0  0
  -28.1089  -29.0637   21.1624 H   0  0  0  0  0  0
  -25.9856  -25.9266   19.1190 H   0  0  0  0  0  0
  -23.9664  -27.2879   19.0585 H   0  0  0  0  0  0
  -23.7293  -30.5961   19.3972 H   0  0  0  0  0  0
  -22.7435  -29.2444   19.8610 H   0  0  0  0  0  0
  -25.1285  -36.1969   25.0824 H   0  0  0  0  0  0
  -21.0001  -28.3315   24.1409 H   0  0  0  0  0  0
  -20.5549  -26.2328   23.3623 H   0  0  0  0  0  0
  -21.6689  -26.7431   22.1265 H   0  0  0  0  0  0
  -19.6914  -27.3563   20.6794 H   0  0  0  0  0  0
  -19.7116  -25.6578   21.0916 H   0  0  0  0  0  0
  -17.4355  -26.6765   21.3800 H   0  0  0  0  0  0
  -18.0460  -26.0061   22.8814 H   0  0  0  0  0  0
  -19.7876  -30.7366   24.2176 H   0  0  0  0  0  0
  -17.4902  -31.6286   24.4981 H   0  0  0  0  0  0
  -15.5292  -30.2892   23.7513 H   0  0  0  0  0  0
  -15.8734  -28.0753   22.6936 H   0  0  0  0  0  0
  -24.5928  -30.7017   25.7759 H   0  0  0  0  0  0
  -24.8900  -32.2830   26.4888 H   0  0  0  0  0  0
  -25.8100  -30.8863   27.0177 H   0  0  0  0  0  0
  -26.2775  -29.6809   24.1138 H   0  0  0  0  0  0
  -27.4032  -29.7255   25.4522 H   0  0  0  0  0  0
  -27.8636  -30.4312   23.9189 H   0  0  0  0  0  0
  -27.2665  -33.3586   26.2068 H   0  0  0  0  0  0
  -28.3849  -32.6871   25.0279 H   0  0  0  0  0  0
  -28.0714  -31.8389   26.5351 H   0  0  0  0  0  0
  -28.2605  -38.0097   24.7503 H   0  0  0  0  0  0
  -28.1063  -36.2632   24.6291 H   0  0  0  0  0  0
  -27.2298  -37.1468   25.8868 H   0  0  0  0  0  0
  -20.9308  -29.8813   21.6898 H   0  0  0  0  0  0
  -26.0179  -38.2871   24.1406 H   0  0  0  0  0  0
  -29.5589  -23.5897   20.8622 H   0  0  0  0  0  0
  -26.8645  -25.3747   17.1448 H   0  0  0  0  0  0
  -25.4167  -24.4384   17.4440 H   0  0  0  0  0  0
  -26.6601  -23.8356   16.3566 H   0  0  0  0  0  0
  -26.0324  -21.4162   16.7818 H   0  0  0  0  0  0
  -24.7761  -22.2209   17.7317 H   0  0  0  0  0  0
  -25.3549  -20.6394   18.2136 H   0  0  0  0  0  0
  -28.5405  -26.0110   18.1562 H   0  0  0  0  0  0
  -29.7755  -25.4912   19.2029 H   0  0  0  0  0  0
  -28.1999  -20.4780   21.8802 H   0  0  0  0  0  0
  -29.7308  -21.2843   21.8349 H   0  0  0  0  0  0
  -30.6800  -19.7737   20.2951 H   0  0  0  0  0  0
  -29.1842  -19.4665   19.4910 H   0  0  0  0  0  0
  -28.4081  -17.9007   21.1700 H   0  0  0  0  0  0
  -29.7392  -18.2494   22.2344 H   0  0  0  0  0  0
  -31.3600  -17.1969   20.7367 H   0  0  0  0  0  0
  -30.2029  -17.1051   19.4359 H   0  0  0  0  0  0
  -29.0062  -15.4510   21.2128 H   0  0  0  0  0  0
  1 25  1  0  0  0
  1 30  2  0  0  0
  1 84  1  0  0  0
  2  3  1  0  0  0
  2 25  1  0  0  0
  2 85  1  0  0  0
  2 86  1  0  0  0
  3  4  1  0  0  0
  3 87  1  0  0  0
  3 88  1  0  0  0
  4  5  1  0  0  0
  4 89  1  0  0  0
  4 90  1  0  0  0
  5  6  1  0  0  0
  5 26  1  0  0  0
  5 91  1  0  0  0
  6 25  1  0  0  0
  6 92  1  0  0  0
  6 93  1  0  0  0
  7  8  2  0  0  0
  7 26  1  0  0  0
  7 29  1  0  0  0
  8  9  1  0  0  0
  8 22  1  0  0  0
  9 10  1  0  0  0
  9 27  2  0  0  0
 10 11  2  0  0  0
 10 15  1  0  0  0
 11 12  1  0  0  0
 11 94  1  0  0  0
 12 13  2  0  0  0
 12 95  1  0  0  0
 13 14  1  0  0  0
 13 31  1  0  0  0
 14 15  2  0  0  0
 14 96  1  0  0  0
 15 97  1  0  0  0
 16 17  2  0  0  0
 16 21  1  0  0  0
 16 31  1  0  0  0
 17 18  1  0  0  0
 17 98  1  0  0  0
 18 19  2  0  0  0
 18 99  1  0  0  0
 19 20  1  0  0  0
 19 24  1  0  0  0
 20 21  2  0  0  0
 20100  1  0  0  0
 21 23  1  0  0  0
 22 28  1  0  0  0
 22 32  2  0  0  0
 26 27  1  0  0  0
 28101  1  0  0  0
 28102  1  0  0  0
 29103  1  0  0  0
 29104  1  0  0  0
 33 34  1  0  0  0
 33 66  1  0  0  0
 33 70  2  0  0  0
 34 36  1  0  0  0
 34 59  1  0  0  0
 34105  1  0  0  0
 35 44  2  0  0  0
 35 45  1  0  0  0
 35 68  1  0  0  0
 36 56  1  0  0  0
 36106  1  0  0  0
 37 39  1  0  0  0
 37 47  1  0  0  0
 37 66  1  0  0  0
 37107  1  0  0  0
 38 43  2  0  0  0
 38 46  1  0  0  0
 38 47  1  0  0  0
 39 64  1  0  0  0
 39 67  2  0  0  0
 40 52  1  0  0  0
 40 53  2  0  0  0
 40 58  1  0  0  0
 41108  1  0  0  0
 41109  1  0  0  0
 41110  1  0  0  0
 41 48  1  0  0  0
 42 43  1  0  0  0
 42 66  1  0  0  0
 42111  1  0  0  0
 42112  1  0  0  0
 43 44  1  0  0  0
 44113  1  0  0  0
 45 46  2  0  0  0
 45114  1  0  0  0
 46115  1  0  0  0
 47116  1  0  0  0
 47117  1  0  0  0
 48 56  1  0  0  0
 48 65  1  0  0  0
 48118  1  0  0  0
 49 50  1  0  0  0
 49 53  1  0  0  0
 49 64  1  0  0  0
 49119  1  0  0  0
 50 51  1  0  0  0
 50120  1  0  0  0
 50121  1  0  0  0
 51 52  1  0  0  0
 51122  1  0  0  0
 51123  1  0  0  0
 52124  1  0  0  0
 52125  1  0  0  0
 53 54  1  0  0  0
 54 55  2  0  0  0
 54126  1  0  0  0
 55 57  1  0  0  0
 55127  1  0  0  0
 56 69  2  0  0  0
 57 58  2  0  0  0
 57128  1  0  0  0
 58129  1  0  0  0
 59 60  1  0  0  0
 59 61  1  0  0  0
 59 62  1  0  0  0
 60130  1  0  0  0
 60131  1  0  0  0
 60132  1  0  0  0
 61133  1  0  0  0
 61134  1  0  0  0
 61135  1  0  0  0
 62136  1  0  0  0
 62137  1  0  0  0
 62138  1  0  0  0
 63 65  1  0  0  0
 63139  1  0  0  0
 63140  1  0  0  0
 63141  1  0  0  0
 64142  1  0  0  0
 65143  1  0  0  0
 68 78  1  0  0  0
 71 72  2  0  0  0
 71 74  1  0  0  0
 71144  1  0  0  0
 72 73  1  0  0  0
 72 78  1  0  0  0
 73 75  2  0  0  0
 73 76  1  0  0  0
 74 79  1  0  0  0
 74 83  2  0  0  0
 75 77  1  0  0  0
 75 83  1  0  0  0
 76145  1  0  0  0
 76146  1  0  0  0
 76147  1  0  0  0
 77148  1  0  0  0
 77149  1  0  0  0
 77150  1  0  0  0
 78151  1  0  0  0
 78152  1  0  0  0
 79 80  1  0  0  0
 79153  1  0  0  0
 79154  1  0  0  0
 80 81  1  0  0  0
 80155  1  0  0  0
 80156  1  0  0  0
 81 82  1  0  0  0
 81157  1  0  0  0
 81158  1  0  0  0
 82 84  1  0  0  0
 82159  1  0  0  0
 82160  1  0  0  0
 84161  1  0  0  0
M  ISO  4   1 100  68 101  78 101  84 100
M  END
> <chiral flag>
0

> <version>
0

> <s_m_source_file>
/data/baiqing/PycharmProjects/Reinvent-master-3.2/result/LINK_invent/BTK/process_docking_weight1_custom_sum_contain_oxygen_bond_distance_aromatic_linkinvent_7_9_3/rearranged_h_0038.sdf

> <i_m_source_file_index>
80

> <r_mmod_Potential_Energy-OPLS-2005>
-170.150329589844

> <r_mmod_Stretch_Energy-OPLS-2005>
54.3943634033203

> <r_mmod_Bend_Energy-OPLS-2005>
125.310539245605

> <r_mmod_Torsional_Energy-OPLS-2005>
214.816543579102

> <r_mmod_Improper_Torsional_Energy-OPLS-2005>
6.82448625564575

> <r_mmod_Van_der_Waal_Energy-OPLS-2005>
155.80500793457

> <r_mmod_Electrostatic_Energy-OPLS-2005>
-529.705322265625

> <r_mmod_Solvation_Energy-OPLS-2005>
-220.661956787109

> <b_mmod_Minimization_Converged-OPLS-2005>
0

> <r_mmod_RMS_Derivative-OPLS-2005>
2.5229651927948

$$$$
83
                    3D
 Structure written by MMmdl.
172180  0  0  1  0            999 V2000
  -30.7377  -14.4063   20.5946 C   0  0  0  0  0  0
  -30.4171  -12.2808   19.4035 C   0  0  0  0  0  0
  -29.4876  -12.5055   18.1943 C   0  0  0  0  0  0
  -28.0061  -12.3799   18.6045 C   0  0  0  0  0  0
  -27.6651  -13.1982   19.8788 C   0  0  2  0  0  0
  -28.7063  -12.9199   20.9834 C   0  0  0  0  0  0
  -25.2603  -13.8137   20.5677 C   0  0  0  0  0  0
  -24.1838  -13.0442   20.9178 C   0  0  0  0  0  0
  -24.6370  -11.6902   20.8717 C   0  0  0  0  0  0
  -23.9026  -10.4299   21.0389 C   0  0  0  0  0  0
  -24.3588   -9.4223   21.9171 C   0  0  0  0  0  0
  -23.6282   -8.2249   22.0742 C   0  0  0  0  0  0
  -22.4263   -8.0276   21.3539 C   0  0  0  0  0  0
  -21.9888   -9.0238   20.4632 C   0  0  0  0  0  0
  -22.7195  -10.2132   20.3046 C   0  0  0  0  0  0
  -21.6850   -6.0726   22.5270 C   0  0  0  0  0  0
  -21.4011   -6.5631   23.8205 C   0  0  0  0  0  0
  -21.3664   -5.6786   24.9167 C   0  0  0  0  0  0
  -21.6057   -4.3051   24.7222 C   0  0  0  0  0  0
  -21.8824   -3.8141   23.4341 C   0  0  0  0  0  0
  -21.9189   -4.6952   22.3395 C   0  0  0  0  0  0
  -22.7856  -13.5241   21.1865 C   0  0  0  0  0  0
  -22.1661   -4.2142   21.0973 F   0  0  0  0  0  0
  -21.5637   -3.4535   25.7735 F   0  0  0  0  0  0
  -30.0365  -13.2495   20.4441 N   0  0  0  0  0  0
  -26.3032  -12.9292   20.3377 N   0  0  0  0  0  0
  -25.9292  -11.6458   20.5741 N   0  0  0  0  0  0
  -22.0495  -12.8234   22.0412 N   0  0  0  0  0  0
  -25.4370  -15.1855   20.4079 N   0  0  0  0  0  0
  -31.8486  -14.5861   20.0949 O   0  0  0  0  0  0
  -21.6644   -6.8862   21.4229 O   0  0  0  0  0  0
  -22.3533  -14.5554   20.6719 O   0  0  0  0  0  0
  -24.6104  -31.8711   23.2132 C   0  0  0  0  0  0
  -25.9021  -32.4832   23.8392 C   0  0  1  0  0  0
  -27.2206  -27.4547   20.0759 C   0  0  0  0  0  0
  -25.5899  -33.8628   24.2329 N   0  0  0  0  0  0
  -23.3935  -30.5001   21.5552 C   0  0  2  0  0  0
  -24.8323  -28.9709   20.1098 C   0  0  0  0  0  0
  -22.7382  -29.4688   22.5009 C   0  0  0  0  0  0
  -18.0284  -28.1379   22.8502 C   0  0  0  0  0  0
  -24.1490  -36.7316   23.2634 C   0  0  0  0  0  0
  -25.9208  -30.8416   21.3615 C   0  0  0  0  0  0
  -25.9927  -29.4792   20.7060 C   0  0  0  0  0  0
  -27.1849  -28.7258   20.6904 C   0  0  0  0  0  0
  -26.0435  -26.9646   19.4611 C   0  0  0  0  0  0
  -24.8502  -27.7105   19.4910 C   0  0  0  0  0  0
  -23.5948  -29.8373   20.1672 C   0  0  0  0  0  0
  -25.4112  -36.3116   24.0332 C   0  0  1  0  0  0
  -20.5866  -28.3657   23.1333 C   0  0  2  0  0  0
  -20.6775  -26.9399   22.5429 C   0  0  0  0  0  0
  -19.5752  -26.6386   21.5225 C   0  0  0  0  0  0
  -18.1927  -26.7927   22.1633 C   0  0  0  0  0  0
  -19.1529  -28.8837   23.2917 C   0  0  0  0  0  0
  -18.9456  -30.1453   23.8912 C   0  0  0  0  0  0
  -17.6456  -30.6585   24.0569 C   0  0  0  0  0  0
  -25.9040  -34.9482   23.5125 C   0  0  0  0  0  0
  -16.5349  -29.9086   23.6335 C   0  0  0  0  0  0
  -16.7271  -28.6511   23.0339 C   0  0  0  0  0  0
  -26.4458  -31.6596   25.0705 C   0  0  0  0  0  0
  -25.3736  -31.3671   26.1461 C   0  0  0  0  0  0
  -27.0260  -30.3047   24.6031 C   0  0  0  0  0  0
  -27.6051  -32.4293   25.7464 C   0  0  0  0  0  0
  -27.5583  -37.1814   24.8466 C   0  0  0  0  0  0
  -21.4120  -29.3020   22.3730 N   0  0  0  0  0  0
  -26.4301  -37.3800   23.9407 N   0  0  0  0  0  0
  -24.6604  -31.0836   22.1022 N   0  0  0  0  0  0
  -23.4180  -28.8236   23.3032 O   0  0  0  0  0  0
  -28.4085  -26.7537   20.1235 O   0  0  0  0  0  0
  -26.5605  -34.8930   22.4689 O   0  0  0  0  0  0
  -23.5318  -32.1456   23.7572 O   0  0  0  0  0  0
  -27.2242  -22.0780   20.1222 C   0  0  0  0  0  0
  -26.3357  -22.2424   21.1945 C   0  0  0  0  0  0
  -26.2621  -23.5378   21.7442 C   0  0  0  0  0  0
  -27.7795  -24.2950   20.1904 C   0  0  0  0  0  0
  -25.3324  -23.9039   22.8862 C   0  0  0  0  0  0
  -25.4682  -21.0676   21.6401 C   0  0  0  0  0  0
  -28.5188  -25.4597   19.5122 C   0  0  0  0  0  0
  -26.1456  -20.0887   22.6186 C   0  0  0  0  0  0
  -26.2538  -20.6394   24.0502 C   0  0  0  0  0  0
  -26.6205  -19.5917   25.1201 C   0  0  0  0  0  0
  -28.1175  -19.4979   25.4782 C   0  0  0  0  0  0
  -29.0452  -19.0100   24.3545 C   0  0  0  0  0  0
  -28.7512  -17.5765   23.8823 C   0  0  0  0  0  0
  -29.6932  -17.1383   22.7566 C   0  0  0  0  0  0
  -29.3630  -15.7347   22.2331 C   0  0  0  0  0  0
  -27.9314  -23.1039   19.6191 N   0  0  0  0  0  0
  -27.0054  -24.5423   21.2465 N   0  0  0  0  0  0
  -30.0677  -15.4967   20.9820 N   0  0  0  0  0  0
  -31.4597  -12.3759   19.0973 H   0  0  0  0  0  0
  -30.3176  -11.2604   19.7798 H   0  0  0  0  0  0
  -29.7188  -11.7885   17.4050 H   0  0  0  0  0  0
  -29.6686  -13.4942   17.7705 H   0  0  0  0  0  0
  -27.8001  -11.3236   18.7788 H   0  0  0  0  0  0
  -27.3597  -12.6834   17.7809 H   0  0  0  0  0  0
  -27.7267  -14.2542   19.6142 H   0  0  0  0  0  0
  -28.6800  -11.8649   21.2582 H   0  0  0  0  0  0
  -28.4544  -13.4318   21.9046 H   0  0  0  0  0  0
  -25.2733   -9.5715   22.4745 H   0  0  0  0  0  0
  -24.0007   -7.4637   22.7456 H   0  0  0  0  0  0
  -21.0828   -8.8732   19.8935 H   0  0  0  0  0  0
  -22.3627  -10.9667   19.6166 H   0  0  0  0  0  0
  -21.2000   -7.6138   23.9703 H   0  0  0  0  0  0
  -21.1489   -6.0517   25.9072 H   0  0  0  0  0  0
  -22.0602   -2.7604   23.2837 H   0  0  0  0  0  0
  -22.4087  -11.9892   22.4815 H   0  0  0  0  0  0
  -21.1104  -13.1251   22.2602 H   0  0  0  0  0  0
  -24.6819  -15.8517   20.5255 H   0  0  0  0  0  0
  -26.3046  -15.6176   20.1153 H   0  0  0  0  0  0
  -26.7084  -32.5539   23.1145 H   0  0  0  0  0  0
  -25.0021  -33.9787   25.0458 H   0  0  0  0  0  0
  -22.6800  -31.3169   21.4250 H   0  0  0  0  0  0
  -23.3749  -35.9653   23.3318 H   0  0  0  0  0  0
  -24.3576  -36.8915   22.2044 H   0  0  0  0  0  0
  -23.7256  -37.6532   23.6635 H   0  0  0  0  0  0
  -26.0275  -31.6097   20.5938 H   0  0  0  0  0  0
  -26.8121  -30.8918   21.9755 H   0  0  0  0  0  0
  -28.0809  -29.1146   21.1526 H   0  0  0  0  0  0
  -26.0141  -26.0044   18.9678 H   0  0  0  0  0  0
  -23.9541  -27.3144   19.0338 H   0  0  0  0  0  0
  -23.6980  -30.6154   19.4099 H   0  0  0  0  0  0
  -22.7157  -29.2595   19.8757 H   0  0  0  0  0  0
  -25.1294  -36.1965   25.0826 H   0  0  0  0  0  0
  -20.9975  -28.3220   24.1443 H   0  0  0  0  0  0
  -20.5693  -26.2254   23.3607 H   0  0  0  0  0  0
  -21.6642  -26.7449   22.1208 H   0  0  0  0  0  0
  -19.6904  -25.6300   21.1236 H   0  0  0  0  0  0
  -19.6690  -27.3215   20.6770 H   0  0  0  0  0  0
  -17.4200  -26.6694   21.4026 H   0  0  0  0  0  0
  -18.0318  -26.0063   22.9024 H   0  0  0  0  0  0
  -19.7930  -30.7279   24.2260 H   0  0  0  0  0  0
  -17.5009  -31.6266   24.5163 H   0  0  0  0  0  0
  -15.5349  -30.2981   23.7655 H   0  0  0  0  0  0
  -15.8678  -28.0845   22.7010 H   0  0  0  0  0  0
  -24.5943  -30.6973   25.7805 H   0  0  0  0  0  0
  -24.8875  -32.2801   26.4906 H   0  0  0  0  0  0
  -25.8107  -30.8858   27.0220 H   0  0  0  0  0  0
  -26.2770  -29.6841   24.1093 H   0  0  0  0  0  0
  -27.4065  -29.7239   25.4445 H   0  0  0  0  0  0
  -27.8595  -30.4388   23.9130 H   0  0  0  0  0  0
  -27.2699  -33.3598   26.2057 H   0  0  0  0  0  0
  -28.3851  -32.6839   25.0275 H   0  0  0  0  0  0
  -28.0717  -31.8389   26.5363 H   0  0  0  0  0  0
  -28.2613  -38.0103   24.7516 H   0  0  0  0  0  0
  -28.1067  -36.2633   24.6288 H   0  0  0  0  0  0
  -27.2293  -37.1468   25.8870 H   0  0  0  0  0  0
  -20.9262  -29.8701   21.6934 H   0  0  0  0  0  0
  -26.0183  -38.2876   24.1416 H   0  0  0  0  0  0
  -27.3389  -21.1212   19.6356 H   0  0  0  0  0  0
  -25.6111  -23.3733   23.7937 H   0  0  0  0  0  0
  -24.2993  -23.6601   22.6392 H   0  0  0  0  0  0
  -25.3753  -24.9702   23.1109 H   0  0  0  0  0  0
  -25.1995  -20.5114   20.7407 H   0  0  0  0  0  0
  -24.5187  -21.4124   22.0492 H   0  0  0  0  0  0
  -28.2328  -25.5155   18.4603 H   0  0  0  0  0  0
  -29.5801  -25.2090   19.5139 H   0  0  0  0  0  0
  -27.1153  -19.7709   22.2352 H   0  0  0  0  0  0
  -25.5338  -19.1852   22.6520 H   0  0  0  0  0  0
  -25.2738  -21.0407   24.3126 H   0  0  0  0  0  0
  -26.9518  -21.4760   24.0854 H   0  0  0  0  0  0
  -26.2193  -18.6140   24.8537 H   0  0  0  0  0  0
  -26.0962  -19.8665   26.0364 H   0  0  0  0  0  0
  -28.2287  -18.8335   26.3364 H   0  0  0  0  0  0
  -28.4661  -20.4732   25.8213 H   0  0  0  0  0  0
  -30.0724  -19.0559   24.7186 H   0  0  0  0  0  0
  -29.0078  -19.7035   23.5140 H   0  0  0  0  0  0
  -27.7253  -17.5131   23.5194 H   0  0  0  0  0  0
  -28.8289  -16.8831   24.7201 H   0  0  0  0  0  0
  -30.7237  -17.1569   23.1108 H   0  0  0  0  0  0
  -29.6300  -17.8649   21.9442 H   0  0  0  0  0  0
  -28.2914  -15.6578   22.0425 H   0  0  0  0  0  0
  -29.6254  -14.9873   22.9852 H   0  0  0  0  0  0
  -30.5238  -16.3293   20.6394 H   0  0  0  0  0  0
  1 25  1  0  0  0
  1 30  2  0  0  0
  1 88  1  0  0  0
  2  3  1  0  0  0
  2 25  1  0  0  0
  2 89  1  0  0  0
  2 90  1  0  0  0
  3  4  1  0  0  0
  3 91  1  0  0  0
  3 92  1  0  0  0
  4  5  1  0  0  0
  4 93  1  0  0  0
  4 94  1  0  0  0
  5  6  1  0  0  0
  5 26  1  0  0  0
  5 95  1  0  0  0
  6 25  1  0  0  0
  6 96  1  0  0  0
  6 97  1  0  0  0
  7  8  2  0  0  0
  7 26  1  0  0  0
  7 29  1  0  0  0
  8  9  1  0  0  0
  8 22  1  0  0  0
  9 10  1  0  0  0
  9 27  2  0  0  0
 10 11  2  0  0  0
 10 15  1  0  0  0
 11 12  1  0  0  0
 11 98  1  0  0  0
 12 13  2  0  0  0
 12 99  1  0  0  0
 13 14  1  0  0  0
 13 31  1  0  0  0
 14 15  2  0  0  0
 14100  1  0  0  0
 15101  1  0  0  0
 16 17  2  0  0  0
 16 21  1  0  0  0
 16 31  1  0  0  0
 17 18  1  0  0  0
 17102  1  0  0  0
 18 19  2  0  0  0
 18103  1  0  0  0
 19 20  1  0  0  0
 19 24  1  0  0  0
 20 21  2  0  0  0
 20104  1  0  0  0
 21 23  1  0  0  0
 22 28  1  0  0  0
 22 32  2  0  0  0
 26 27  1  0  0  0
 28105  1  0  0  0
 28106  1  0  0  0
 29107  1  0  0  0
 29108  1  0  0  0
 33 34  1  0  0  0
 33 66  1  0  0  0
 33 70  2  0  0  0
 34 36  1  0  0  0
 34 59  1  0  0  0
 34109  1  0  0  0
 35 44  2  0  0  0
 35 45  1  0  0  0
 35 68  1  0  0  0
 36 56  1  0  0  0
 36110  1  0  0  0
 37 39  1  0  0  0
 37 47  1  0  0  0
 37 66  1  0  0  0
 37111  1  0  0  0
 38 43  2  0  0  0
 38 46  1  0  0  0
 38 47  1  0  0  0
 39 64  1  0  0  0
 39 67  2  0  0  0
 40 52  1  0  0  0
 40 53  2  0  0  0
 40 58  1  0  0  0
 41112  1  0  0  0
 41113  1  0  0  0
 41114  1  0  0  0
 41 48  1  0  0  0
 42 43  1  0  0  0
 42 66  1  0  0  0
 42115  1  0  0  0
 42116  1  0  0  0
 43 44  1  0  0  0
 44117  1  0  0  0
 45 46  2  0  0  0
 45118  1  0  0  0
 46119  1  0  0  0
 47120  1  0  0  0
 47121  1  0  0  0
 48 56  1  0  0  0
 48 65  1  0  0  0
 48122  1  0  0  0
 49 50  1  0  0  0
 49 53  1  0  0  0
 49 64  1  0  0  0
 49123  1  0  0  0
 50 51  1  0  0  0
 50124  1  0  0  0
 50125  1  0  0  0
 51 52  1  0  0  0
 51126  1  0  0  0
 51127  1  0  0  0
 52128  1  0  0  0
 52129  1  0  0  0
 53 54  1  0  0  0
 54 55  2  0  0  0
 54130  1  0  0  0
 55 57  1  0  0  0
 55131  1  0  0  0
 56 69  2  0  0  0
 57 58  2  0  0  0
 57132  1  0  0  0
 58133  1  0  0  0
 59 60  1  0  0  0
 59 61  1  0  0  0
 59 62  1  0  0  0
 60134  1  0  0  0
 60135  1  0  0  0
 60136  1  0  0  0
 61137  1  0  0  0
 61138  1  0  0  0
 61139  1  0  0  0
 62140  1  0  0  0
 62141  1  0  0  0
 62142  1  0  0  0
 63 65  1  0  0  0
 63143  1  0  0  0
 63144  1  0  0  0
 63145  1  0  0  0
 64146  1  0  0  0
 65147  1  0  0  0
 68 77  1  0  0  0
 71 72  2  0  0  0
 71 86  1  0  0  0
 71148  1  0  0  0
 72 73  1  0  0  0
 72 76  1  0  0  0
 73 75  1  0  0  0
 73 87  2  0  0  0
 74 77  1  0  0  0
 74 86  2  0  0  0
 74 87  1  0  0  0
 75149  1  0  0  0
 75150  1  0  0  0
 75151  1  0  0  0
 76 78  1  0  0  0
 76152  1  0  0  0
 76153  1  0  0  0
 77154  1  0  0  0
 77155  1  0  0  0
 78 79  1  0  0  0
 78156  1  0  0  0
 78157  1  0  0  0
 79 80  1  0  0  0
 79158  1  0  0  0
 79159  1  0  0  0
 80 81  1  0  0  0
 80160  1  0  0  0
 80161  1  0  0  0
 81 82  1  0  0  0
 81162  1  0  0  0
 81163  1  0  0  0
 82 83  1  0  0  0
 82164  1  0  0  0
 82165  1  0  0  0
 83 84  1  0  0  0
 83166  1  0  0  0
 83167  1  0  0  0
 84 85  1  0  0  0
 84168  1  0  0  0
 84169  1  0  0  0
 85 88  1  0  0  0
 85170  1  0  0  0
 85171  1  0  0  0
 88172  1  0  0  0
M  ISO  4   1 100  68 101  77 101  88 100
M  END
> <chiral flag>
0

> <version>
0

> <s_m_source_file>
/data/baiqing/PycharmProjects/Reinvent-master-3.2/result/LINK_invent/BTK/process_docking_weight1_custom_sum_contain_oxygen_bond_distance_aromatic_linkinvent_7_9_3/rearranged_h_0038.sdf

> <i_m_source_file_index>
81

> <r_mmod_Potential_Energy-OPLS-2005>
-350.260101318359

> <r_mmod_Stretch_Energy-OPLS-2005>
32.7342071533203

> <r_mmod_Bend_Energy-OPLS-2005>
129.017669677734

> <r_mmod_Torsional_Energy-OPLS-2005>
249.847503662109

> <r_mmod_Improper_Torsional_Energy-OPLS-2005>
12.4851999282837

> <r_mmod_Van_der_Waal_Energy-OPLS-2005>
153.983673095703

> <r_mmod_Electrostatic_Energy-OPLS-2005>
-721.53173828125

> <r_mmod_Solvation_Energy-OPLS-2005>
-218.103408813477

> <b_mmod_Minimization_Converged-OPLS-2005>
0

> <r_mmod_RMS_Derivative-OPLS-2005>
2.26369071006775

$$$$
84
                    3D
 Structure written by MMmdl.
173181  0  0  1  0            999 V2000
  -31.2835  -13.8744   21.0854 C   0  0  0  0  0  0
  -30.9376  -12.8057   18.8712 C   0  0  0  0  0  0
  -29.6097  -11.9818   17.7099 C   0  0  0  0  0  0
  -27.7337  -12.0790   18.2367 C   0  0  0  0  0  0
  -27.2815  -13.1858   19.7538 C   0  0  2  0  0  0
  -28.6638  -13.9349   20.8599 C   0  0  0  0  0  0
  -25.1272  -13.8098   20.6938 C   0  0  0  0  0  0
  -24.0726  -13.0236   21.0055 C   0  0  0  0  0  0
  -24.5396  -11.6725   20.9390 C   0  0  0  0  0  0
  -23.8405  -10.4109   21.0722 C   0  0  0  0  0  0
  -24.3234   -9.4052   21.9345 C   0  0  0  0  0  0
  -23.6092   -8.2006   22.0751 C   0  0  0  0  0  0
  -22.4094   -8.0059   21.3507 C   0  0  0  0  0  0
  -21.9628   -8.9983   20.4616 C   0  0  0  0  0  0
  -22.6765  -10.1946   20.3163 C   0  0  0  0  0  0
  -21.6769   -6.0609   22.5286 C   0  0  0  0  0  0
  -21.3948   -6.5568   23.8199 C   0  0  0  0  0  0
  -21.3629   -5.6754   24.9184 C   0  0  0  0  0  0
  -21.6043   -4.3021   24.7259 C   0  0  0  0  0  0
  -21.8824   -3.8077   23.4392 C   0  0  0  0  0  0
  -21.9173   -4.6857   22.3431 C   0  0  0  0  0  0
  -22.6850  -13.5069   21.2301 C   0  0  0  0  0  0
  -22.1663   -4.2046   21.1013 F   0  0  0  0  0  0
  -21.5651   -3.4526   25.7794 F   0  0  0  0  0  0
  -30.3561  -13.8054   20.2870 N   0  0  0  0  0  0
  -26.1139  -12.8991   20.4153 N   0  0  0  0  0  0
  -25.8125  -11.6183   20.6291 N   0  0  0  0  0  0
  -21.9415  -12.8089   22.0746 N   0  0  0  0  0  0
  -25.3166  -15.1878   20.5455 N   0  0  0  0  0  0
  -32.2434  -14.5937   20.8309 O   0  0  0  0  0  0
  -21.6515   -6.8656   21.4203 O   0  0  0  0  0  0
  -22.2768  -14.5373   20.6962 O   0  0  0  0  0  0
  -24.6174  -31.8653   23.2094 C   0  0  0  0  0  0
  -25.9059  -32.4806   23.8384 C   0  0  1  0  0  0
  -27.2303  -27.4116   20.0634 C   0  0  0  0  0  0
  -25.5906  -33.8608   24.2315 N   0  0  0  0  0  0
  -23.4057  -30.4902   21.5511 C   0  0  2  0  0  0
  -24.8474  -28.9504   20.1159 C   0  0  0  0  0  0
  -22.7419  -29.4648   22.4984 C   0  0  0  0  0  0
  -18.0273  -28.1374   22.8494 C   0  0  0  0  0  0
  -24.1486  -36.7309   23.2639 C   0  0  0  0  0  0
  -25.9386  -30.8166   21.3688 C   0  0  0  0  0  0
  -26.0109  -29.4488   20.7146 C   0  0  0  0  0  0
  -27.2017  -28.6813   20.6957 C   0  0  0  0  0  0
  -26.0359  -26.9225   19.4884 C   0  0  0  0  0  0
  -24.8538  -27.6846   19.5079 C   0  0  0  0  0  0
  -23.6141  -29.8244   20.1654 C   0  0  0  0  0  0
  -25.4109  -36.3104   24.0335 C   0  0  1  0  0  0
  -20.5867  -28.3666   23.1314 C   0  0  2  0  0  0
  -20.6764  -26.9401   22.5416 C   0  0  0  0  0  0
  -19.5741  -26.6385   21.5212 C   0  0  0  0  0  0
  -18.1921  -26.7922   22.1625 C   0  0  0  0  0  0
  -19.1523  -28.8836   23.2904 C   0  0  0  0  0  0
  -18.9450  -30.1444   23.8913 C   0  0  0  0  0  0
  -17.6451  -30.6583   24.0567 C   0  0  0  0  0  0
  -25.9037  -34.9469   23.5122 C   0  0  0  0  0  0
  -16.5344  -29.9086   23.6326 C   0  0  0  0  0  0
  -16.7264  -28.6502   23.0350 C   0  0  0  0  0  0
  -26.4480  -31.6596   25.0724 C   0  0  0  0  0  0
  -25.3743  -31.3704   26.1469 C   0  0  0  0  0  0
  -27.0318  -30.3037   24.6120 C   0  0  0  0  0  0
  -27.6051  -32.4323   25.7489 C   0  0  0  0  0  0
  -27.5578  -37.1813   24.8469 C   0  0  0  0  0  0
  -21.4145  -29.3031   22.3719 N   0  0  0  0  0  0
  -26.4295  -37.3789   23.9405 N   0  0  0  0  0  0
  -24.6724  -31.0726   22.1010 N   0  0  0  0  0  0
  -23.4184  -28.8183   23.3026 O   0  0  0  0  0  0
  -28.4029  -26.6757   20.0382 O   0  0  0  0  0  0
  -26.5602  -34.8925   22.4685 O   0  0  0  0  0  0
  -23.5361  -32.1423   23.7473 O   0  0  0  0  0  0
  -29.6935  -22.1985   19.9196 C   0  0  0  0  0  0
  -29.6955  -23.6101   19.8529 C   0  0  0  0  0  0
  -28.6268  -21.4657   19.3578 C   0  0  0  0  0  0
  -28.6279  -24.2713   19.2005 C   0  0  0  0  0  0
  -27.5847  -22.2131   18.7568 C   0  0  0  0  0  0
  -30.8534  -24.3861   20.4590 C   0  0  0  0  0  0
  -26.3495  -21.5454   18.1822 C   0  0  0  0  0  0
  -28.5872  -19.9291   19.5186 C   0  0  0  0  0  0
  -28.6471  -25.7926   18.9176 C   0  0  0  0  0  0
  -29.0992  -19.0673   18.3259 C   0  0  0  0  0  0
  -29.2764  -17.5580   18.6836 C   0  0  0  0  0  0
  -29.4906  -16.5873   17.4805 C   0  0  0  0  0  0
  -30.0410  -15.1600   17.8362 C   0  0  0  0  0  0
  -28.9860  -14.1034   18.4604 C   0  0  0  0  0  0
  -29.2026  -11.8037   20.0465 C   0  0  0  0  0  0
  -30.1777  -11.6228   21.3957 C   0  0  0  0  0  0
  -27.5957  -23.5672   18.6760 N   0  0  0  0  0  0
  -31.2120  -12.6953   21.7348 N   0  0  0  0  0  0
  -31.6790  -13.3463   18.2830 H   0  0  0  0  0  0
  -31.5835  -12.0008   19.2300 H   0  0  0  0  0  0
  -29.8825  -10.9438   17.5087 H   0  0  0  0  0  0
  -29.7112  -12.4166   16.7132 H   0  0  0  0  0  0
  -27.3815  -11.0616   18.4237 H   0  0  0  0  0  0
  -27.1186  -12.3611   17.3803 H   0  0  0  0  0  0
  -26.8310  -13.9821   19.1611 H   0  0  0  0  0  0
  -28.5645  -13.5352   21.8710 H   0  0  0  0  0  0
  -28.4550  -14.9909   21.0330 H   0  0  0  0  0  0
  -25.2338   -9.5645   22.4955 H   0  0  0  0  0  0
  -23.9870   -7.4360   22.7402 H   0  0  0  0  0  0
  -21.0590   -8.8405   19.8899 H   0  0  0  0  0  0
  -22.3171  -10.9530   19.6353 H   0  0  0  0  0  0
  -21.1910   -7.6076   23.9659 H   0  0  0  0  0  0
  -21.1461   -6.0513   25.9079 H   0  0  0  0  0  0
  -22.0648   -2.7538   23.2934 H   0  0  0  0  0  0
  -22.3016  -11.9809   22.5249 H   0  0  0  0  0  0
  -20.9993  -13.1090   22.2808 H   0  0  0  0  0  0
  -24.5679  -15.8575   20.6833 H   0  0  0  0  0  0
  -26.1892  -15.6173   20.2638 H   0  0  0  0  0  0
  -26.7119  -32.5499   23.1132 H   0  0  0  0  0  0
  -25.0065  -33.9766   25.0465 H   0  0  0  0  0  0
  -22.6964  -31.3089   21.4127 H   0  0  0  0  0  0
  -23.3744  -35.9647   23.3314 H   0  0  0  0  0  0
  -24.3577  -36.8913   22.2051 H   0  0  0  0  0  0
  -23.7243  -37.6519   23.6647 H   0  0  0  0  0  0
  -26.0578  -31.5816   20.6004 H   0  0  0  0  0  0
  -26.8245  -30.8667   21.9903 H   0  0  0  0  0  0
  -28.1024  -29.0645   21.1550 H   0  0  0  0  0  0
  -25.9992  -25.9448   19.0296 H   0  0  0  0  0  0
  -23.9548  -27.2891   19.0559 H   0  0  0  0  0  0
  -23.7287  -30.6001   19.4069 H   0  0  0  0  0  0
  -22.7348  -29.2501   19.8671 H   0  0  0  0  0  0
  -25.1287  -36.1968   25.0829 H   0  0  0  0  0  0
  -20.9964  -28.3226   24.1432 H   0  0  0  0  0  0
  -20.5664  -26.2271   23.3602 H   0  0  0  0  0  0
  -21.6635  -26.7439   22.1207 H   0  0  0  0  0  0
  -19.6903  -25.6300   21.1231 H   0  0  0  0  0  0
  -19.6679  -27.3205   20.6750 H   0  0  0  0  0  0
  -17.4193  -26.6677   21.4027 H   0  0  0  0  0  0
  -18.0322  -26.0058   22.9014 H   0  0  0  0  0  0
  -19.7927  -30.7259   24.2288 H   0  0  0  0  0  0
  -17.5008  -31.6265   24.5164 H   0  0  0  0  0  0
  -15.5346  -30.2994   23.7640 H   0  0  0  0  0  0
  -15.8664  -28.0830   22.7054 H   0  0  0  0  0  0
  -24.5922  -30.7043   25.7806 H   0  0  0  0  0  0
  -24.8927  -32.2859   26.4915 H   0  0  0  0  0  0
  -25.8094  -30.8877   27.0228 H   0  0  0  0  0  0
  -26.2870  -29.6792   24.1172 H   0  0  0  0  0  0
  -27.4080  -29.7278   25.4586 H   0  0  0  0  0  0
  -27.8709  -30.4353   23.9284 H   0  0  0  0  0  0
  -27.2665  -33.3612   26.2090 H   0  0  0  0  0  0
  -28.3849  -32.6899   25.0310 H   0  0  0  0  0  0
  -28.0733  -31.8435   26.5387 H   0  0  0  0  0  0
  -28.2611  -38.0095   24.7497 H   0  0  0  0  0  0
  -28.1058  -36.2625   24.6319 H   0  0  0  0  0  0
  -27.2294  -37.1494   25.8873 H   0  0  0  0  0  0
  -20.9306  -29.8762   21.6949 H   0  0  0  0  0  0
  -26.0184  -38.2869   24.1394 H   0  0  0  0  0  0
  -30.5039  -21.6787   20.4122 H   0  0  0  0  0  0
  -31.4585  -23.7539   21.1097 H   0  0  0  0  0  0
  -30.4910  -25.2217   21.0596 H   0  0  0  0  0  0
  -31.5020  -24.7817   19.6766 H   0  0  0  0  0  0
  -26.6058  -20.6415   17.6319 H   0  0  0  0  0  0
  -25.8225  -22.2075   17.4945 H   0  0  0  0  0  0
  -25.6614  -21.2757   18.9837 H   0  0  0  0  0  0
  -27.5687  -19.6255   19.7658 H   0  0  0  0  0  0
  -29.1753  -19.6786   20.4026 H   0  0  0  0  0  0
  -28.0112  -26.0213   18.0616 H   0  0  0  0  0  0
  -29.6465  -26.0336   18.5557 H   0  0  0  0  0  0
  -30.0599  -19.4540   17.9828 H   0  0  0  0  0  0
  -28.4143  -19.1676   17.4835 H   0  0  0  0  0  0
  -28.4071  -17.2274   19.2514 H   0  0  0  0  0  0
  -30.1237  -17.4686   19.3648 H   0  0  0  0  0  0
  -30.2100  -17.0534   16.8048 H   0  0  0  0  0  0
  -28.5667  -16.5006   16.9067 H   0  0  0  0  0  0
  -30.8973  -15.3651   18.4752 H   0  0  0  0  0  0
  -30.4601  -14.7349   16.9229 H   0  0  0  0  0  0
  -28.3861  -14.0829   17.5421 H   0  0  0  0  0  0
  -28.4895  -14.9750   18.8917 H   0  0  0  0  0  0
  -29.4852  -10.8436   19.5992 H   0  0  0  0  0  0
  -28.3132  -11.3472   20.4915 H   0  0  0  0  0  0
  -30.7203  -10.6796   21.3141 H   0  0  0  0  0  0
  -29.5504  -11.4994   22.2801 H   0  0  0  0  0  0
  -31.9793  -12.4439   22.3425 H   0  0  0  0  0  0
  1 25  1  0  0  0
  1 30  2  0  0  0
  1 88  1  0  0  0
  2  3  1  0  0  0
  2 25  1  0  0  0
  2 89  1  0  0  0
  2 90  1  0  0  0
  3  4  1  0  0  0
  3 91  1  0  0  0
  3 92  1  0  0  0
  4  5  1  0  0  0
  4 93  1  0  0  0
  4 94  1  0  0  0
  5  6  1  0  0  0
  5 26  1  0  0  0
  5 95  1  0  0  0
  6 25  1  0  0  0
  6 96  1  0  0  0
  6 97  1  0  0  0
  7  8  2  0  0  0
  7 26  1  0  0  0
  7 29  1  0  0  0
  8  9  1  0  0  0
  8 22  1  0  0  0
  9 10  1  0  0  0
  9 27  2  0  0  0
 10 11  2  0  0  0
 10 15  1  0  0  0
 11 12  1  0  0  0
 11 98  1  0  0  0
 12 13  2  0  0  0
 12 99  1  0  0  0
 13 14  1  0  0  0
 13 31  1  0  0  0
 14 15  2  0  0  0
 14100  1  0  0  0
 15101  1  0  0  0
 16 17  2  0  0  0
 16 21  1  0  0  0
 16 31  1  0  0  0
 17 18  1  0  0  0
 17102  1  0  0  0
 18 19  2  0  0  0
 18103  1  0  0  0
 19 20  1  0  0  0
 19 24  1  0  0  0
 20 21  2  0  0  0
 20104  1  0  0  0
 21 23  1  0  0  0
 22 28  1  0  0  0
 22 32  2  0  0  0
 26 27  1  0  0  0
 28105  1  0  0  0
 28106  1  0  0  0
 29107  1  0  0  0
 29108  1  0  0  0
 33 34  1  0  0  0
 33 66  1  0  0  0
 33 70  2  0  0  0
 34 36  1  0  0  0
 34 59  1  0  0  0
 34109  1  0  0  0
 35 44  2  0  0  0
 35 45  1  0  0  0
 35 68  1  0  0  0
 36 56  1  0  0  0
 36110  1  0  0  0
 37 39  1  0  0  0
 37 47  1  0  0  0
 37 66  1  0  0  0
 37111  1  0  0  0
 38 43  2  0  0  0
 38 46  1  0  0  0
 38 47  1  0  0  0
 39 64  1  0  0  0
 39 67  2  0  0  0
 40 52  1  0  0  0
 40 53  2  0  0  0
 40 58  1  0  0  0
 41112  1  0  0  0
 41113  1  0  0  0
 41114  1  0  0  0
 41 48  1  0  0  0
 42 43  1  0  0  0
 42 66  1  0  0  0
 42115  1  0  0  0
 42116  1  0  0  0
 43 44  1  0  0  0
 44117  1  0  0  0
 45 46  2  0  0  0
 45118  1  0  0  0
 46119  1  0  0  0
 47120  1  0  0  0
 47121  1  0  0  0
 48 56  1  0  0  0
 48 65  1  0  0  0
 48122  1  0  0  0
 49 50  1  0  0  0
 49 53  1  0  0  0
 49 64  1  0  0  0
 49123  1  0  0  0
 50 51  1  0  0  0
 50124  1  0  0  0
 50125  1  0  0  0
 51 52  1  0  0  0
 51126  1  0  0  0
 51127  1  0  0  0
 52128  1  0  0  0
 52129  1  0  0  0
 53 54  1  0  0  0
 54 55  2  0  0  0
 54130  1  0  0  0
 55 57  1  0  0  0
 55131  1  0  0  0
 56 69  2  0  0  0
 57 58  2  0  0  0
 57132  1  0  0  0
 58133  1  0  0  0
 59 60  1  0  0  0
 59 61  1  0  0  0
 59 62  1  0  0  0
 60134  1  0  0  0
 60135  1  0  0  0
 60136  1  0  0  0
 61137  1  0  0  0
 61138  1  0  0  0
 61139  1  0  0  0
 62140  1  0  0  0
 62141  1  0  0  0
 62142  1  0  0  0
 63 65  1  0  0  0
 63143  1  0  0  0
 63144  1  0  0  0
 63145  1  0  0  0
 64146  1  0  0  0
 65147  1  0  0  0
 68 79  1  0  0  0
 71 72  2  0  0  0
 71 73  1  0  0  0
 71148  1  0  0  0
 72 74  1  0  0  0
 72 76  1  0  0  0
 73 75  2  0  0  0
 73 78  1  0  0  0
 74 79  1  0  0  0
 74 87  2  0  0  0
 75 77  1  0  0  0
 75 87  1  0  0  0
 76149  1  0  0  0
 76150  1  0  0  0
 76151  1  0  0  0
 77152  1  0  0  0
 77153  1  0  0  0
 77154  1  0  0  0
 78 80  1  0  0  0
 78155  1  0  0  0
 78156  1  0  0  0
 79157  1  0  0  0
 79158  1  0  0  0
 80 81  1  0  0  0
 80159  1  0  0  0
 80160  1  0  0  0
 81 82  1  0  0  0
 81161  1  0  0  0
 81162  1  0  0  0
 82 83  1  0  0  0
 82163  1  0  0  0
 82164  1  0  0  0
 83 84  1  0  0  0
 83165  1  0  0  0
 83166  1  0  0  0
 84 85  1  0  0  0
 84167  1  0  0  0
 84168  1  0  0  0
 85 86  1  0  0  0
 85169  1  0  0  0
 85170  1  0  0  0
 86 88  1  0  0  0
 86171  1  0  0  0
 86172  1  0  0  0
 88173  1  0  0  0
M  ISO  4   1 100  68 101  79 101  88 100
M  END
> <chiral flag>
0

> <version>
0

> <s_m_source_file>
/data/baiqing/PycharmProjects/Reinvent-master-3.2/result/LINK_invent/BTK/process_docking_weight1_custom_sum_contain_oxygen_bond_distance_aromatic_linkinvent_7_9_3/rearranged_h_0038.sdf

> <i_m_source_file_index>
82

> <r_mmod_Potential_Energy-OPLS-2005>
5423.44140625

> <r_mmod_Stretch_Energy-OPLS-2005>
3048.9326171875

> <r_mmod_Bend_Energy-OPLS-2005>
357.282928466797

> <r_mmod_Torsional_Energy-OPLS-2005>
380.601806640625

> <r_mmod_Improper_Torsional_Energy-OPLS-2005>
27.5540027618408

> <r_mmod_Van_der_Waal_Energy-OPLS-2005>
1802.98937988281

> <r_mmod_Electrostatic_Energy-OPLS-2005>
-498.172302246094

> <r_mmod_Solvation_Energy-OPLS-2005>
-207.992706298828

> <b_mmod_Minimization_Converged-OPLS-2005>
0

> <r_mmod_RMS_Derivative-OPLS-2005>
1.74304795265198

$$$$
85
                    3D
 Structure written by MMmdl.
157165  0  0  1  0            999 V2000
  -30.7133  -14.4885   20.6372 C   0  0  0  0  0  0
  -30.4193  -12.3398   19.4373 C   0  0  0  0  0  0
  -29.4997  -12.5259   18.2155 C   0  0  0  0  0  0
  -28.0243  -12.3596   18.6245 C   0  0  0  0  0  0
  -27.6606  -13.2048   19.8767 C   0  0  2  0  0  0
  -28.6939  -13.0078   21.0063 C   0  0  0  0  0  0
  -25.2580  -13.8172   20.5686 C   0  0  0  0  0  0
  -24.1827  -13.0470   20.9223 C   0  0  0  0  0  0
  -24.6361  -11.6938   20.8840 C   0  0  0  0  0  0
  -23.9042  -10.4321   21.0510 C   0  0  0  0  0  0
  -24.3585   -9.4240   21.9279 C   0  0  0  0  0  0
  -23.6289   -8.2262   22.0784 C   0  0  0  0  0  0
  -22.4286   -8.0301   21.3595 C   0  0  0  0  0  0
  -21.9939   -9.0275   20.4711 C   0  0  0  0  0  0
  -22.7246  -10.2161   20.3151 C   0  0  0  0  0  0
  -21.6839   -6.0786   22.5291 C   0  0  0  0  0  0
  -21.3972   -6.5718   23.8200 C   0  0  0  0  0  0
  -21.3641   -5.6883   24.9162 C   0  0  0  0  0  0
  -21.6002   -4.3135   24.7256 C   0  0  0  0  0  0
  -21.8766   -3.8234   23.4384 C   0  0  0  0  0  0
  -21.9162   -4.7030   22.3438 C   0  0  0  0  0  0
  -22.7840  -13.5298   21.1790 C   0  0  0  0  0  0
  -22.1650   -4.2193   21.1036 F   0  0  0  0  0  0
  -21.5641   -3.4609   25.7786 F   0  0  0  0  0  0
  -30.0284  -13.3193   20.4676 N   0  0  0  0  0  0
  -26.3004  -12.9322   20.3367 N   0  0  0  0  0  0
  -25.9269  -11.6492   20.5832 N   0  0  0  0  0  0
  -22.0405  -12.8440   22.0398 N   0  0  0  0  0  0
  -25.4383  -15.1882   20.3988 N   0  0  0  0  0  0
  -31.7538  -14.7201   20.0143 O   0  0  0  0  0  0
  -21.6657   -6.8897   21.4246 O   0  0  0  0  0  0
  -22.3551  -14.5538   20.6466 O   0  0  0  0  0  0
  -24.6173  -31.8671   23.2080 C   0  0  0  0  0  0
  -25.9037  -32.4837   23.8388 C   0  0  1  0  0  0
  -27.2365  -27.4110   20.1079 C   0  0  0  0  0  0
  -25.5887  -33.8623   24.2328 N   0  0  0  0  0  0
  -23.4093  -30.4917   21.5484 C   0  0  2  0  0  0
  -24.8553  -28.9483   20.1143 C   0  0  0  0  0  0
  -22.7429  -29.4679   22.4979 C   0  0  0  0  0  0
  -18.0287  -28.1394   22.8503 C   0  0  0  0  0  0
  -24.1495  -36.7306   23.2643 C   0  0  0  0  0  0
  -25.9411  -30.8224   21.3651 C   0  0  0  0  0  0
  -26.0161  -29.4569   20.7091 C   0  0  0  0  0  0
  -27.2135  -28.6988   20.6947 C   0  0  0  0  0  0
  -26.0568  -26.9205   19.5111 C   0  0  0  0  0  0
  -24.8688  -27.6768   19.5091 C   0  0  0  0  0  0
  -23.6190  -29.8189   20.1652 C   0  0  0  0  0  0
  -25.4113  -36.3138   24.0353 C   0  0  1  0  0  0
  -20.5872  -28.3698   23.1304 C   0  0  2  0  0  0
  -20.6779  -26.9428   22.5410 C   0  0  0  0  0  0
  -19.5757  -26.6395   21.5222 C   0  0  0  0  0  0
  -18.1938  -26.7937   22.1632 C   0  0  0  0  0  0
  -19.1539  -28.8862   23.2902 C   0  0  0  0  0  0
  -18.9456  -30.1463   23.8923 C   0  0  0  0  0  0
  -17.6459  -30.6589   24.0573 C   0  0  0  0  0  0
  -25.9044  -34.9492   23.5157 C   0  0  0  0  0  0
  -16.5349  -29.9086   23.6327 C   0  0  0  0  0  0
  -16.7277  -28.6500   23.0352 C   0  0  0  0  0  0
  -26.4430  -31.6623   25.0714 C   0  0  0  0  0  0
  -25.3692  -31.3714   26.1472 C   0  0  0  0  0  0
  -27.0289  -30.3079   24.6123 C   0  0  0  0  0  0
  -27.6030  -32.4326   25.7453 C   0  0  0  0  0  0
  -27.5600  -37.1814   24.8468 C   0  0  0  0  0  0
  -21.4149  -29.3066   22.3698 N   0  0  0  0  0  0
  -26.4327  -37.3800   23.9416 N   0  0  0  0  0  0
  -24.6748  -31.0771   22.0988 N   0  0  0  0  0  0
  -23.4181  -28.8221   23.3027 O   0  0  0  0  0  0
  -28.3880  -26.6461   20.0960 O   0  0  0  0  0  0
  -26.5610  -34.8946   22.4718 O   0  0  0  0  0  0
  -23.5357  -32.1427   23.7459 O   0  0  0  0  0  0
  -29.9990  -15.3380   22.9078 C   0  0  0  0  0  0
  -29.6144  -16.6133   23.4000 C   0  0  0  0  0  0
  -30.2012  -15.5535   21.5739 C   0  0  0  0  0  0
  -28.7585  -21.4581   19.8150 C   0  0  0  0  0  0
  -28.9975  -20.1099   20.5922 C   0  0  0  0  0  0
  -28.7626  -22.7751   20.6609 C   0  0  0  0  0  0
  -30.2094  -19.2404   20.1198 C   0  0  0  0  0  0
  -28.5349  -24.1105   19.8669 C   0  0  0  0  0  0
  -30.0420  -17.6763   20.0521 C   0  0  0  0  0  0
  -28.3174  -25.3636   20.7676 C   0  0  0  0  0  0
  -29.6079  -17.5435   22.4520 N   0  0  0  0  0  0
  -29.9962  -16.9158   21.3130 N   0  0  0  0  0  0
  -31.4682  -12.4352   19.1461 H   0  0  0  0  0  0
  -30.3178  -11.3318   19.8354 H   0  0  0  0  0  0
  -29.7508  -11.8006   17.4380 H   0  0  0  0  0  0
  -29.6505  -13.5171   17.7841 H   0  0  0  0  0  0
  -27.8503  -11.3024   18.8235 H   0  0  0  0  0  0
  -27.3687  -12.6164   17.7927 H   0  0  0  0  0  0
  -27.7031  -14.2501   19.5722 H   0  0  0  0  0  0
  -28.6787  -11.9816   21.3739 H   0  0  0  0  0  0
  -28.4110  -13.6208   21.8603 H   0  0  0  0  0  0
  -25.2691   -9.5735   22.4928 H   0  0  0  0  0  0
  -23.9976   -7.4684   22.7529 H   0  0  0  0  0  0
  -21.0894   -8.8758   19.9023 H   0  0  0  0  0  0
  -22.3682  -10.9722   19.6295 H   0  0  0  0  0  0
  -21.1915   -7.6229   23.9670 H   0  0  0  0  0  0
  -21.1565   -6.0688   25.9051 H   0  0  0  0  0  0
  -22.0569   -2.7719   23.2926 H   0  0  0  0  0  0
  -21.1075  -13.1692   22.2579 H   0  0  0  0  0  0
  -22.3925  -12.0155   22.4947 H   0  0  0  0  0  0
  -24.6846  -15.8552   20.5274 H   0  0  0  0  0  0
  -26.2931  -15.6210   20.0727 H   0  0  0  0  0  0
  -26.7120  -32.5522   23.1164 H   0  0  0  0  0  0
  -25.0042  -33.9751   25.0495 H   0  0  0  0  0  0
  -22.7005  -31.3088   21.4043 H   0  0  0  0  0  0
  -23.3774  -35.9625   23.3323 H   0  0  0  0  0  0
  -24.3606  -36.8893   22.2056 H   0  0  0  0  0  0
  -23.7214  -37.6501   23.6641 H   0  0  0  0  0  0
  -26.0703  -31.5903   20.6000 H   0  0  0  0  0  0
  -26.8205  -30.8667   21.9966 H   0  0  0  0  0  0
  -28.1091  -29.0874   21.1552 H   0  0  0  0  0  0
  -26.0563  -25.9472   19.0436 H   0  0  0  0  0  0
  -23.9776  -27.2748   19.0462 H   0  0  0  0  0  0
  -23.7269  -30.5890   19.4008 H   0  0  0  0  0  0
  -22.7403  -29.2400   19.8754 H   0  0  0  0  0  0
  -25.1300  -36.2020   25.0849 H   0  0  0  0  0  0
  -21.0004  -28.3280   24.1411 H   0  0  0  0  0  0
  -20.5718  -26.2306   23.3608 H   0  0  0  0  0  0
  -21.6648  -26.7476   22.1195 H   0  0  0  0  0  0
  -19.6915  -25.6316   21.1250 H   0  0  0  0  0  0
  -19.6692  -27.3210   20.6764 H   0  0  0  0  0  0
  -17.4208  -26.6702   21.4026 H   0  0  0  0  0  0
  -18.0319  -26.0067   22.9023 H   0  0  0  0  0  0
  -19.7933  -30.7275   24.2298 H   0  0  0  0  0  0
  -17.5010  -31.6280   24.5175 H   0  0  0  0  0  0
  -15.5356  -30.2997   23.7642 H   0  0  0  0  0  0
  -15.8671  -28.0838   22.7038 H   0  0  0  0  0  0
  -24.5843  -30.7102   25.7791 H   0  0  0  0  0  0
  -24.8891  -32.2859   26.4970 H   0  0  0  0  0  0
  -25.8009  -30.8819   27.0222 H   0  0  0  0  0  0
  -26.2866  -29.6809   24.1182 H   0  0  0  0  0  0
  -27.4087  -29.7331   25.4584 H   0  0  0  0  0  0
  -27.8678  -30.4418   23.9287 H   0  0  0  0  0  0
  -27.2696  -33.3625   26.2085 H   0  0  0  0  0  0
  -28.3787  -32.6904   25.0222 H   0  0  0  0  0  0
  -28.0794  -31.8426   26.5308 H   0  0  0  0  0  0
  -28.2637  -38.0097   24.7539 H   0  0  0  0  0  0
  -28.1088  -36.2633   24.6296 H   0  0  0  0  0  0
  -27.2329  -37.1467   25.8875 H   0  0  0  0  0  0
  -20.9314  -29.8740   21.6887 H   0  0  0  0  0  0
  -26.0226  -38.2910   24.1347 H   0  0  0  0  0  0
  -30.1098  -14.4098   23.4470 H   0  0  0  0  0  0
  -29.3510  -16.8900   24.4123 H   0  0  0  0  0  0
  -27.7795  -21.3792   19.3355 H   0  0  0  0  0  0
  -29.4712  -21.5547   18.9935 H   0  0  0  0  0  0
  -28.0984  -19.4999   20.4970 H   0  0  0  0  0  0
  -29.0896  -20.3068   21.6600 H   0  0  0  0  0  0
  -29.7137  -22.8536   21.1885 H   0  0  0  0  0  0
  -28.0016  -22.6942   21.4392 H   0  0  0  0  0  0
  -31.0953  -19.5027   20.7054 H   0  0  0  0  0  0
  -30.4573  -19.5487   19.1032 H   0  0  0  0  0  0
  -27.6781  -23.9985   19.2017 H   0  0  0  0  0  0
  -29.3950  -24.3004   19.2217 H   0  0  0  0  0  0
  -30.8858  -17.2850   19.4808 H   0  0  0  0  0  0
  -29.1447  -17.4243   19.4816 H   0  0  0  0  0  0
  -27.3848  -25.2571   21.3232 H   0  0  0  0  0  0
  -29.0997  -25.3762   21.5272 H   0  0  0  0  0  0
  1 25  1  0  0  0
  1 30  2  0  0  0
  1 73  1  0  0  0
  2  3  1  0  0  0
  2 25  1  0  0  0
  2 83  1  0  0  0
  2 84  1  0  0  0
  3  4  1  0  0  0
  3 85  1  0  0  0
  3 86  1  0  0  0
  4  5  1  0  0  0
  4 87  1  0  0  0
  4 88  1  0  0  0
  5  6  1  0  0  0
  5 26  1  0  0  0
  5 89  1  0  0  0
  6 25  1  0  0  0
  6 90  1  0  0  0
  6 91  1  0  0  0
  7  8  2  0  0  0
  7 26  1  0  0  0
  7 29  1  0  0  0
  8  9  1  0  0  0
  8 22  1  0  0  0
  9 10  1  0  0  0
  9 27  2  0  0  0
 10 11  2  0  0  0
 10 15  1  0  0  0
 11 12  1  0  0  0
 11 92  1  0  0  0
 12 13  2  0  0  0
 12 93  1  0  0  0
 13 14  1  0  0  0
 13 31  1  0  0  0
 14 15  2  0  0  0
 14 94  1  0  0  0
 15 95  1  0  0  0
 16 17  2  0  0  0
 16 21  1  0  0  0
 16 31  1  0  0  0
 17 18  1  0  0  0
 17 96  1  0  0  0
 18 19  2  0  0  0
 18 97  1  0  0  0
 19 20  1  0  0  0
 19 24  1  0  0  0
 20 21  2  0  0  0
 20 98  1  0  0  0
 21 23  1  0  0  0
 22 28  1  0  0  0
 22 32  2  0  0  0
 26 27  1  0  0  0
 28 99  1  0  0  0
 28100  1  0  0  0
 29101  1  0  0  0
 29102  1  0  0  0
 33 34  1  0  0  0
 33 66  1  0  0  0
 33 70  2  0  0  0
 34 36  1  0  0  0
 34 59  1  0  0  0
 34103  1  0  0  0
 35 44  2  0  0  0
 35 45  1  0  0  0
 35 68  1  0  0  0
 36 56  1  0  0  0
 36104  1  0  0  0
 37 39  1  0  0  0
 37 47  1  0  0  0
 37 66  1  0  0  0
 37105  1  0  0  0
 38 43  2  0  0  0
 38 46  1  0  0  0
 38 47  1  0  0  0
 39 64  1  0  0  0
 39 67  2  0  0  0
 40 52  1  0  0  0
 40 53  2  0  0  0
 40 58  1  0  0  0
 41106  1  0  0  0
 41107  1  0  0  0
 41108  1  0  0  0
 41 48  1  0  0  0
 42 43  1  0  0  0
 42 66  1  0  0  0
 42109  1  0  0  0
 42110  1  0  0  0
 43 44  1  0  0  0
 44111  1  0  0  0
 45 46  2  0  0  0
 45112  1  0  0  0
 46113  1  0  0  0
 47114  1  0  0  0
 47115  1  0  0  0
 48 56  1  0  0  0
 48 65  1  0  0  0
 48116  1  0  0  0
 49 50  1  0  0  0
 49 53  1  0  0  0
 49 64  1  0  0  0
 49117  1  0  0  0
 50 51  1  0  0  0
 50118  1  0  0  0
 50119  1  0  0  0
 51 52  1  0  0  0
 51120  1  0  0  0
 51121  1  0  0  0
 52122  1  0  0  0
 52123  1  0  0  0
 53 54  1  0  0  0
 54 55  2  0  0  0
 54124  1  0  0  0
 55 57  1  0  0  0
 55125  1  0  0  0
 56 69  2  0  0  0
 57 58  2  0  0  0
 57126  1  0  0  0
 58127  1  0  0  0
 59 60  1  0  0  0
 59 61  1  0  0  0
 59 62  1  0  0  0
 60128  1  0  0  0
 60129  1  0  0  0
 60130  1  0  0  0
 61131  1  0  0  0
 61132  1  0  0  0
 61133  1  0  0  0
 62134  1  0  0  0
 62135  1  0  0  0
 62136  1  0  0  0
 63 65  1  0  0  0
 63137  1  0  0  0
 63138  1  0  0  0
 63139  1  0  0  0
 64140  1  0  0  0
 65141  1  0  0  0
 68 80  1  0  0  0
 71 72  1  0  0  0
 71 73  2  0  0  0
 71142  1  0  0  0
 72 81  2  0  0  0
 72143  1  0  0  0
 73 82  1  0  0  0
 74 75  1  0  0  0
 74 76  1  0  0  0
 74144  1  0  0  0
 74145  1  0  0  0
 75 77  1  0  0  0
 75146  1  0  0  0
 75147  1  0  0  0
 76 78  1  0  0  0
 76148  1  0  0  0
 76149  1  0  0  0
 77 79  1  0  0  0
 77150  1  0  0  0
 77151  1  0  0  0
 78 80  1  0  0  0
 78152  1  0  0  0
 78153  1  0  0  0
 79 82  1  0  0  0
 79154  1  0  0  0
 79155  1  0  0  0
 80156  1  0  0  0
 80157  1  0  0  0
 81 82  1  0  0  0
M  ISO  4   1 100  68 101  73 100  80 101
M  END
> <chiral flag>
0

> <version>
0

> <s_m_source_file>
/data/baiqing/PycharmProjects/Reinvent-master-3.2/result/LINK_invent/BTK/process_docking_weight1_custom_sum_contain_oxygen_bond_distance_aromatic_linkinvent_7_9_3/rearranged_h_0038.sdf

> <i_m_source_file_index>
83

> <r_mmod_Potential_Energy-OPLS-2005>
88.2859878540039

> <r_mmod_Stretch_Energy-OPLS-2005>
47.5150108337402

> <r_mmod_Bend_Energy-OPLS-2005>
117.115951538086

> <r_mmod_Torsional_Energy-OPLS-2005>
239.349090576172

> <r_mmod_Improper_Torsional_Energy-OPLS-2005>
2.5068793296814

> <r_mmod_Van_der_Waal_Energy-OPLS-2005>
118.379425048828

> <r_mmod_Electrostatic_Energy-OPLS-2005>
-259.553741455078

> <r_mmod_Solvation_Energy-OPLS-2005>
-192.505920410156

> <b_mmod_Minimization_Converged-OPLS-2005>
0

> <r_mmod_RMS_Derivative-OPLS-2005>
4.90127754211426

$$$$
86
                    3D
 Structure written by MMmdl.
171179  0  0  1  0            999 V2000
  -30.7968  -14.2963   20.7499 C   0  0  0  0  0  0
  -30.4176  -12.2877   19.3683 C   0  0  0  0  0  0
  -29.4781  -12.5388   18.1774 C   0  0  0  0  0  0
  -28.0058  -12.3822   18.6002 C   0  0  0  0  0  0
  -27.6670  -13.1981   19.8736 C   0  0  2  0  0  0
  -28.7017  -12.9224   20.9830 C   0  0  0  0  0  0
  -25.2617  -13.8152   20.5652 C   0  0  0  0  0  0
  -24.1850  -13.0445   20.9150 C   0  0  0  0  0  0
  -24.6391  -11.6903   20.8714 C   0  0  0  0  0  0
  -23.9056  -10.4292   21.0398 C   0  0  0  0  0  0
  -24.3605   -9.4210   21.9177 C   0  0  0  0  0  0
  -23.6291   -8.2245   22.0753 C   0  0  0  0  0  0
  -22.4276   -8.0286   21.3544 C   0  0  0  0  0  0
  -21.9903   -9.0257   20.4647 C   0  0  0  0  0  0
  -22.7229  -10.2135   20.3057 C   0  0  0  0  0  0
  -21.6856   -6.0741   22.5281 C   0  0  0  0  0  0
  -21.4014   -6.5639   23.8218 C   0  0  0  0  0  0
  -21.3655   -5.6791   24.9173 C   0  0  0  0  0  0
  -21.6045   -4.3056   24.7228 C   0  0  0  0  0  0
  -21.8815   -3.8150   23.4349 C   0  0  0  0  0  0
  -21.9188   -4.6964   22.3408 C   0  0  0  0  0  0
  -22.7876  -13.5252   21.1820 C   0  0  0  0  0  0
  -22.1656   -4.2150   21.0983 F   0  0  0  0  0  0
  -21.5628   -3.4538   25.7741 F   0  0  0  0  0  0
  -30.0526  -13.2040   20.4555 N   0  0  0  0  0  0
  -26.3046  -12.9303   20.3333 N   0  0  0  0  0  0
  -25.9305  -11.6469   20.5716 N   0  0  0  0  0  0
  -22.0494  -12.8271   22.0384 N   0  0  0  0  0  0
  -25.4370  -15.1868   20.4069 N   0  0  0  0  0  0
  -31.7612  -14.6788   20.0766 O   0  0  0  0  0  0
  -21.6639   -6.8886   21.4251 O   0  0  0  0  0  0
  -22.3563  -14.5551   20.6653 O   0  0  0  0  0  0
  -24.6082  -31.8724   23.2123 C   0  0  0  0  0  0
  -25.9006  -32.4828   23.8423 C   0  0  1  0  0  0
  -27.2412  -27.4859   20.0929 C   0  0  0  0  0  0
  -25.5906  -33.8624   24.2350 N   0  0  0  0  0  0
  -23.3949  -30.4932   21.5517 C   0  0  2  0  0  0
  -24.8434  -28.9670   20.1097 C   0  0  0  0  0  0
  -22.7383  -29.4661   22.5007 C   0  0  0  0  0  0
  -18.0264  -28.1376   22.8500 C   0  0  0  0  0  0
  -24.1489  -36.7303   23.2639 C   0  0  0  0  0  0
  -25.9163  -30.8569   21.3543 C   0  0  0  0  0  0
  -25.9971  -29.4975   20.6985 C   0  0  0  0  0  0
  -27.1999  -28.7682   20.6818 C   0  0  0  0  0  0
  -26.0782  -26.9576   19.4975 C   0  0  0  0  0  0
  -24.8780  -27.6966   19.5016 C   0  0  0  0  0  0
  -23.6002  -29.8243   20.1644 C   0  0  0  0  0  0
  -25.4117  -36.3111   24.0329 C   0  0  1  0  0  0
  -20.5854  -28.3652   23.1333 C   0  0  2  0  0  0
  -20.6742  -26.9389   22.5429 C   0  0  0  0  0  0
  -19.5725  -26.6387   21.5217 C   0  0  0  0  0  0
  -18.1906  -26.7925   22.1624 C   0  0  0  0  0  0
  -19.1514  -28.8827   23.2916 C   0  0  0  0  0  0
  -18.9444  -30.1438   23.8922 C   0  0  0  0  0  0
  -17.6445  -30.6587   24.0571 C   0  0  0  0  0  0
  -25.9040  -34.9465   23.5132 C   0  0  0  0  0  0
  -16.5335  -29.9094   23.6323 C   0  0  0  0  0  0
  -16.7251  -28.6508   23.0348 C   0  0  0  0  0  0
  -26.4428  -31.6581   25.0738 C   0  0  0  0  0  0
  -25.3708  -31.3697   26.1505 C   0  0  0  0  0  0
  -27.0254  -30.3031   24.6058 C   0  0  0  0  0  0
  -27.6020  -32.4244   25.7535 C   0  0  0  0  0  0
  -27.5581  -37.1805   24.8461 C   0  0  0  0  0  0
  -21.4115  -29.3020   22.3752 N   0  0  0  0  0  0
  -26.4303  -37.3785   23.9399 N   0  0  0  0  0  0
  -24.6580  -31.0867   22.0992 N   0  0  0  0  0  0
  -23.4173  -28.8193   23.3027 O   0  0  0  0  0  0
  -28.3924  -26.7382   20.1197 O   0  0  0  0  0  0
  -26.5588  -34.8898   22.4687 O   0  0  0  0  0  0
  -23.5281  -32.1447   23.7557 O   0  0  0  0  0  0
  -30.2827  -26.9615   21.7444 C   0  0  0  0  0  0
  -30.2978  -26.7570   23.0963 C   0  0  0  0  0  0
  -28.9734  -26.5817   21.3535 C   0  0  0  0  0  0
  -28.5101  -25.9271   24.7480 C   0  0  0  0  0  0
  -31.3998  -27.0189   24.0794 C   0  0  0  0  0  0
  -31.9810  -25.7688   24.7657 C   0  0  0  0  0  0
  -32.3452  -24.6194   23.8038 C   0  0  0  0  0  0
  -31.5220  -23.3511   24.0696 C   0  0  0  0  0  0
  -31.7754  -22.2441   23.0395 C   0  0  0  0  0  0
  -31.2140  -20.8960   23.5063 C   0  0  0  0  0  0
  -31.3015  -19.7978   22.4390 C   0  0  0  0  0  0
  -31.1901  -18.4011   23.0616 C   0  0  0  0  0  0
  -30.9406  -17.2919   22.0328 C   0  0  0  0  0  0
  -31.1959  -15.9015   22.6357 C   0  0  0  0  0  0
  -28.2456  -26.1317   22.3668 N   0  0  0  0  0  0
  -29.0478  -26.2666   23.4443 N   0  0  0  0  0  0
  -30.4824  -14.8509   21.9241 N   0  0  0  0  0  0
  -31.4590  -12.4052   19.0603 H   0  0  0  0  0  0
  -30.3281  -11.2568   19.7131 H   0  0  0  0  0  0
  -29.7107  -11.8510   17.3622 H   0  0  0  0  0  0
  -29.6422  -13.5446   17.7876 H   0  0  0  0  0  0
  -27.8198  -11.3233   18.7790 H   0  0  0  0  0  0
  -27.3476  -12.6701   17.7805 H   0  0  0  0  0  0
  -27.7313  -14.2531   19.6091 H   0  0  0  0  0  0
  -28.6563  -11.8772   21.2922 H   0  0  0  0  0  0
  -28.4372  -13.4978   21.8693 H   0  0  0  0  0  0
  -25.2746   -9.5693   22.4743 H   0  0  0  0  0  0
  -23.9997   -7.4649   22.7476 H   0  0  0  0  0  0
  -21.0836   -8.8786   19.8966 H   0  0  0  0  0  0
  -22.3692  -10.9672   19.6169 H   0  0  0  0  0  0
  -21.2014   -7.6148   23.9724 H   0  0  0  0  0  0
  -21.1477   -6.0515   25.9075 H   0  0  0  0  0  0
  -22.0599   -2.7616   23.2845 H   0  0  0  0  0  0
  -22.4075  -11.9940   22.4817 H   0  0  0  0  0  0
  -21.1113  -13.1325   22.2562 H   0  0  0  0  0  0
  -24.6777  -15.8507   20.5224 H   0  0  0  0  0  0
  -26.3027  -15.6210   20.1099 H   0  0  0  0  0  0
  -26.7096  -32.5555   23.1207 H   0  0  0  0  0  0
  -25.0098  -33.9818   25.0521 H   0  0  0  0  0  0
  -22.6800  -31.3073   21.4150 H   0  0  0  0  0  0
  -23.3744  -35.9647   23.3327 H   0  0  0  0  0  0
  -24.3552  -36.8900   22.2045 H   0  0  0  0  0  0
  -23.7247  -37.6516   23.6642 H   0  0  0  0  0  0
  -26.0217  -31.6271   20.5880 H   0  0  0  0  0  0
  -26.8066  -30.9089   21.9693 H   0  0  0  0  0  0
  -28.0892  -29.1772   21.1406 H   0  0  0  0  0  0
  -26.1019  -25.9750   19.0463 H   0  0  0  0  0  0
  -23.9896  -27.2847   19.0428 H   0  0  0  0  0  0
  -23.6956  -30.5985   19.4015 H   0  0  0  0  0  0
  -22.7269  -29.2361   19.8766 H   0  0  0  0  0  0
  -25.1294  -36.1989   25.0821 H   0  0  0  0  0  0
  -20.9954  -28.3220   24.1445 H   0  0  0  0  0  0
  -20.5632  -26.2252   23.3613 H   0  0  0  0  0  0
  -21.6616  -26.7424   22.1227 H   0  0  0  0  0  0
  -19.6878  -25.6305   21.1229 H   0  0  0  0  0  0
  -19.6671  -27.3209   20.6763 H   0  0  0  0  0  0
  -17.4174  -26.6685   21.4026 H   0  0  0  0  0  0
  -18.0297  -26.0065   22.9013 H   0  0  0  0  0  0
  -19.7917  -30.7254   24.2301 H   0  0  0  0  0  0
  -17.4999  -31.6269   24.5182 H   0  0  0  0  0  0
  -15.5335  -30.3012   23.7630 H   0  0  0  0  0  0
  -15.8645  -28.0845   22.7047 H   0  0  0  0  0  0
  -24.5789  -30.7162   25.7834 H   0  0  0  0  0  0
  -24.9016  -32.2884   26.5043 H   0  0  0  0  0  0
  -25.8048  -30.8778   27.0221 H   0  0  0  0  0  0
  -26.2817  -29.6851   24.1023 H   0  0  0  0  0  0
  -27.3962  -29.7188   25.4500 H   0  0  0  0  0  0
  -27.8655  -30.4375   23.9246 H   0  0  0  0  0  0
  -27.2651  -33.3520   26.2171 H   0  0  0  0  0  0
  -28.3851  -32.6805   25.0401 H   0  0  0  0  0  0
  -28.0650  -31.8298   26.5420 H   0  0  0  0  0  0
  -28.2619  -38.0083   24.7504 H   0  0  0  0  0  0
  -28.1055  -36.2611   24.6300 H   0  0  0  0  0  0
  -27.2280  -37.1467   25.8860 H   0  0  0  0  0  0
  -20.9267  -29.8757   21.6999 H   0  0  0  0  0  0
  -26.0195  -38.2869   24.1386 H   0  0  0  0  0  0
  -31.0728  -27.3710   21.1327 H   0  0  0  0  0  0
  -28.4631  -24.8438   24.8585 H   0  0  0  0  0  0
  -27.5051  -26.3383   24.8559 H   0  0  0  0  0  0
  -29.1292  -26.3414   25.5424 H   0  0  0  0  0  0
  -31.0498  -27.7204   24.8373 H   0  0  0  0  0  0
  -32.2094  -27.5358   23.5636 H   0  0  0  0  0  0
  -31.2711  -25.4083   25.5100 H   0  0  0  0  0  0
  -32.8620  -26.0620   25.3382 H   0  0  0  0  0  0
  -33.4039  -24.3818   23.9163 H   0  0  0  0  0  0
  -32.2275  -24.9268   22.7639 H   0  0  0  0  0  0
  -30.4589  -23.5927   24.0702 H   0  0  0  0  0  0
  -31.7504  -22.9852   25.0717 H   0  0  0  0  0  0
  -32.8471  -22.1404   22.8639 H   0  0  0  0  0  0
  -31.3304  -22.5291   22.0855 H   0  0  0  0  0  0
  -30.1729  -21.0103   23.8137 H   0  0  0  0  0  0
  -31.7602  -20.5843   24.3976 H   0  0  0  0  0  0
  -32.2493  -19.8658   21.9018 H   0  0  0  0  0  0
  -30.5136  -19.9496   21.7000 H   0  0  0  0  0  0
  -30.3802  -18.3834   23.7926 H   0  0  0  0  0  0
  -32.1043  -18.1940   23.6200 H   0  0  0  0  0  0
  -31.5804  -17.4305   21.1599 H   0  0  0  0  0  0
  -29.9128  -17.3722   21.6761 H   0  0  0  0  0  0
  -30.8492  -15.8723   23.6698 H   0  0  0  0  0  0
  -32.2663  -15.6849   22.6624 H   0  0  0  0  0  0
  -29.7068  -14.4231   22.4106 H   0  0  0  0  0  0
  1 25  1  0  0  0
  1 30  2  0  0  0
  1 87  1  0  0  0
  2  3  1  0  0  0
  2 25  1  0  0  0
  2 88  1  0  0  0
  2 89  1  0  0  0
  3  4  1  0  0  0
  3 90  1  0  0  0
  3 91  1  0  0  0
  4  5  1  0  0  0
  4 92  1  0  0  0
  4 93  1  0  0  0
  5  6  1  0  0  0
  5 26  1  0  0  0
  5 94  1  0  0  0
  6 25  1  0  0  0
  6 95  1  0  0  0
  6 96  1  0  0  0
  7  8  2  0  0  0
  7 26  1  0  0  0
  7 29  1  0  0  0
  8  9  1  0  0  0
  8 22  1  0  0  0
  9 10  1  0  0  0
  9 27  2  0  0  0
 10 11  2  0  0  0
 10 15  1  0  0  0
 11 12  1  0  0  0
 11 97  1  0  0  0
 12 13  2  0  0  0
 12 98  1  0  0  0
 13 14  1  0  0  0
 13 31  1  0  0  0
 14 15  2  0  0  0
 14 99  1  0  0  0
 15100  1  0  0  0
 16 17  2  0  0  0
 16 21  1  0  0  0
 16 31  1  0  0  0
 17 18  1  0  0  0
 17101  1  0  0  0
 18 19  2  0  0  0
 18102  1  0  0  0
 19 20  1  0  0  0
 19 24  1  0  0  0
 20 21  2  0  0  0
 20103  1  0  0  0
 21 23  1  0  0  0
 22 28  1  0  0  0
 22 32  2  0  0  0
 26 27  1  0  0  0
 28104  1  0  0  0
 28105  1  0  0  0
 29106  1  0  0  0
 29107  1  0  0  0
 33 34  1  0  0  0
 33 66  1  0  0  0
 33 70  2  0  0  0
 34 36  1  0  0  0
 34 59  1  0  0  0
 34108  1  0  0  0
 35 44  2  0  0  0
 35 45  1  0  0  0
 35 68  1  0  0  0
 36 56  1  0  0  0
 36109  1  0  0  0
 37 39  1  0  0  0
 37 47  1  0  0  0
 37 66  1  0  0  0
 37110  1  0  0  0
 38 43  2  0  0  0
 38 46  1  0  0  0
 38 47  1  0  0  0
 39 64  1  0  0  0
 39 67  2  0  0  0
 40 52  1  0  0  0
 40 53  2  0  0  0
 40 58  1  0  0  0
 41111  1  0  0  0
 41112  1  0  0  0
 41113  1  0  0  0
 41 48  1  0  0  0
 42 43  1  0  0  0
 42 66  1  0  0  0
 42114  1  0  0  0
 42115  1  0  0  0
 43 44  1  0  0  0
 44116  1  0  0  0
 45 46  2  0  0  0
 45117  1  0  0  0
 46118  1  0  0  0
 47119  1  0  0  0
 47120  1  0  0  0
 48 56  1  0  0  0
 48 65  1  0  0  0
 48121  1  0  0  0
 49 50  1  0  0  0
 49 53  1  0  0  0
 49 64  1  0  0  0
 49122  1  0  0  0
 50 51  1  0  0  0
 50123  1  0  0  0
 50124  1  0  0  0
 51 52  1  0  0  0
 51125  1  0  0  0
 51126  1  0  0  0
 52127  1  0  0  0
 52128  1  0  0  0
 53 54  1  0  0  0
 54 55  2  0  0  0
 54129  1  0  0  0
 55 57  1  0  0  0
 55130  1  0  0  0
 56 69  2  0  0  0
 57 58  2  0  0  0
 57131  1  0  0  0
 58132  1  0  0  0
 59 60  1  0  0  0
 59 61  1  0  0  0
 59 62  1  0  0  0
 60133  1  0  0  0
 60134  1  0  0  0
 60135  1  0  0  0
 61136  1  0  0  0
 61137  1  0  0  0
 61138  1  0  0  0
 62139  1  0  0  0
 62140  1  0  0  0
 62141  1  0  0  0
 63 65  1  0  0  0
 63142  1  0  0  0
 63143  1  0  0  0
 63144  1  0  0  0
 64145  1  0  0  0
 65146  1  0  0  0
 68 73  1  0  0  0
 71 72  2  0  0  0
 71 73  1  0  0  0
 71147  1  0  0  0
 72 75  1  0  0  0
 72 86  1  0  0  0
 73 85  2  0  0  0
 74 86  1  0  0  0
 74148  1  0  0  0
 74149  1  0  0  0
 74150  1  0  0  0
 75 76  1  0  0  0
 75151  1  0  0  0
 75152  1  0  0  0
 76 77  1  0  0  0
 76153  1  0  0  0
 76154  1  0  0  0
 77 78  1  0  0  0
 77155  1  0  0  0
 77156  1  0  0  0
 78 79  1  0  0  0
 78157  1  0  0  0
 78158  1  0  0  0
 79 80  1  0  0  0
 79159  1  0  0  0
 79160  1  0  0  0
 80 81  1  0  0  0
 80161  1  0  0  0
 80162  1  0  0  0
 81 82  1  0  0  0
 81163  1  0  0  0
 81164  1  0  0  0
 82 83  1  0  0  0
 82165  1  0  0  0
 82166  1  0  0  0
 83 84  1  0  0  0
 83167  1  0  0  0
 83168  1  0  0  0
 84 87  1  0  0  0
 84169  1  0  0  0
 84170  1  0  0  0
 85 86  1  0  0  0
 87171  1  0  0  0
M  ISO  4   1 100  68 101  73 101  87 100
M  END
> <chiral flag>
0

> <version>
0

> <s_m_source_file>
/data/baiqing/PycharmProjects/Reinvent-master-3.2/result/LINK_invent/BTK/process_docking_weight1_custom_sum_contain_oxygen_bond_distance_aromatic_linkinvent_7_9_3/rearranged_h_0038.sdf

> <i_m_source_file_index>
84

> <r_mmod_Potential_Energy-OPLS-2005>
-93.6902236938477

> <r_mmod_Stretch_Energy-OPLS-2005>
29.1555213928223

> <r_mmod_Bend_Energy-OPLS-2005>
87.5285873413086

> <r_mmod_Torsional_Energy-OPLS-2005>
228.402725219727

> <r_mmod_Improper_Torsional_Energy-OPLS-2005>
3.11961984634399

> <r_mmod_Van_der_Waal_Energy-OPLS-2005>
124.093589782715

> <r_mmod_Electrostatic_Energy-OPLS-2005>
-363.616668701172

> <r_mmod_Solvation_Energy-OPLS-2005>
-210.861770629883

> <b_mmod_Minimization_Converged-OPLS-2005>
0

> <r_mmod_RMS_Derivative-OPLS-2005>
1.9040664434433

$$$$
87
                    3D
 Structure written by MMmdl.
180188  0  0  1  0            999 V2000
  -30.7112  -14.4064   20.6123 C   0  0  0  0  0  0
  -30.4211  -12.2798   19.3990 C   0  0  0  0  0  0
  -29.4886  -12.5190   18.1949 C   0  0  0  0  0  0
  -28.0084  -12.3806   18.6065 C   0  0  0  0  0  0
  -27.6671  -13.1985   19.8817 C   0  0  2  0  0  0
  -28.7106  -12.9311   20.9909 C   0  0  0  0  0  0
  -25.2613  -13.8140   20.5664 C   0  0  0  0  0  0
  -24.1857  -13.0428   20.9168 C   0  0  0  0  0  0
  -24.6386  -11.6902   20.8729 C   0  0  0  0  0  0
  -23.9044  -10.4293   21.0403 C   0  0  0  0  0  0
  -24.3602   -9.4223   21.9183 C   0  0  0  0  0  0
  -23.6293   -8.2246   22.0754 C   0  0  0  0  0  0
  -22.4273   -8.0282   21.3545 C   0  0  0  0  0  0
  -21.9900   -9.0240   20.4647 C   0  0  0  0  0  0
  -22.7211  -10.2132   20.3057 C   0  0  0  0  0  0
  -21.6847   -6.0745   22.5278 C   0  0  0  0  0  0
  -21.4002   -6.5645   23.8217 C   0  0  0  0  0  0
  -21.3666   -5.6801   24.9176 C   0  0  0  0  0  0
  -21.6049   -4.3061   24.7225 C   0  0  0  0  0  0
  -21.8818   -3.8157   23.4340 C   0  0  0  0  0  0
  -21.9192   -4.6972   22.3405 C   0  0  0  0  0  0
  -22.7877  -13.5255   21.1826 C   0  0  0  0  0  0
  -22.1668   -4.2161   21.0981 F   0  0  0  0  0  0
  -21.5635   -3.4547   25.7736 F   0  0  0  0  0  0
  -30.0420  -13.2369   20.4458 N   0  0  0  0  0  0
  -26.3056  -12.9289   20.3405 N   0  0  0  0  0  0
  -25.9318  -11.6456   20.5771 N   0  0  0  0  0  0
  -22.0513  -12.8242   22.0381 N   0  0  0  0  0  0
  -25.4379  -15.1839   20.4036 N   0  0  0  0  0  0
  -31.8163  -14.6119   20.0996 O   0  0  0  0  0  0
  -21.6636   -6.8876   21.4243 O   0  0  0  0  0  0
  -22.3576  -14.5558   20.6688 O   0  0  0  0  0  0
  -24.6965  -31.9709   23.2126 C   0  0  0  0  0  0
  -25.9842  -32.5180   23.8580 C   0  0  1  0  0  0
  -25.3351  -27.2219   20.7455 C   0  0  0  0  0  0
  -25.6705  -33.8896   24.2635 N   0  0  0  0  0  0
  -23.4905  -30.6689   21.5684 C   0  0  2  0  0  0
  -24.7852  -29.3766   19.7390 C   0  0  0  0  0  0
  -23.1025  -29.6157   22.6226 C   0  0  0  0  0  0
  -18.7122  -28.2543   22.1292 C   0  0  0  0  0  0
  -24.1535  -36.7339   23.2591 C   0  0  0  0  0  0
  -25.9945  -30.8272   21.3864 C   0  0  0  0  0  0
  -25.8369  -29.5074   20.6528 C   0  0  0  0  0  0
  -26.2775  -28.2683   21.1375 C   0  0  0  0  0  0
  -25.4115  -27.0617   19.3795 C   0  0  0  0  0  0
  -24.7001  -28.1855   18.9568 C   0  0  0  0  0  0
  -23.5824  -30.2114   20.0579 C   0  0  0  0  0  0
  -25.4174  -36.3248   24.0329 C   0  0  1  0  0  0
  -21.3038  -28.3402   23.5024 C   0  0  2  0  0  0
  -21.9714  -26.3047   23.2029 C   0  0  0  0  0  0
  -20.5944  -25.5529   21.6541 C   0  0  0  0  0  0
  -19.1848  -26.8167   21.1978 C   0  0  0  0  0  0
  -19.7076  -28.9639   23.0284 C   0  0  0  0  0  0
  -19.1953  -30.0482   23.8241 C   0  0  0  0  0  0
  -17.8305  -30.4159   23.9276 C   0  0  0  0  0  0
  -25.9238  -34.9668   23.5142 C   0  0  0  0  0  0
  -16.8717  -29.6265   23.2813 C   0  0  0  0  0  0
  -17.3090  -28.5663   22.4291 C   0  0  0  0  0  0
  -26.4730  -31.6708   25.0922 C   0  0  0  0  0  0
  -25.3765  -31.3826   26.1436 C   0  0  0  0  0  0
  -27.0438  -30.3105   24.6353 C   0  0  0  0  0  0
  -27.6246  -32.4218   25.7954 C   0  0  0  0  0  0
  -27.5602  -37.1950   24.8475 C   0  0  0  0  0  0
  -21.8463  -29.5101   22.8721 N   0  0  0  0  0  0
  -26.4317  -37.3959   23.9427 N   0  0  0  0  0  0
  -24.7513  -31.2340   22.0705 N   0  0  0  0  0  0
  -23.8858  -28.9298   23.2740 O   0  0  0  0  0  0
  -23.8884  -27.1113   21.3137 O   0  0  0  0  0  0
  -26.5465  -34.9070   22.4510 O   0  0  0  0  0  0
  -23.6136  -32.2453   23.7606 O   0  0  0  0  0  0
  -20.6378  -23.0181   23.8559 C   0  0  0  0  0  0
  -19.9365  -21.9814   23.3036 C   0  0  0  0  0  0
  -20.4144  -20.6637   22.7593 C   0  0  0  0  0  0
  -30.0359  -15.5680   21.3632 C   0  0  0  0  0  0
  -20.4352  -20.5911   21.2150 C   0  0  0  0  0  0
  -30.4929  -16.9550   20.8540 C   0  0  0  0  0  0
  -21.3092  -21.6431   20.5018 C   0  0  0  0  0  0
  -29.5703  -18.1176   21.2603 C   0  0  0  0  0  0
  -22.8080  -21.5966   20.8479 C   0  0  0  0  0  0
  -28.2231  -18.1193   20.5114 C   0  0  0  0  0  0
  -23.5862  -20.3921   20.2801 C   0  0  0  0  0  0
  -27.3151  -19.2775   20.9435 C   0  0  0  0  0  0
  -25.0214  -20.3679   20.8370 C   0  0  0  0  0  0
  -25.9175  -19.2433   20.2946 C   0  0  0  0  0  0
  -19.8040  -26.5703   23.4992 C   0  0  0  0  0  0
  -19.7937  -25.3499   24.5777 C   0  0  0  0  0  0
  -21.8443  -27.4473   21.3263 C   0  0  0  0  0  0
  -18.5844  -22.3187   23.2924 N   0  0  0  0  0  0
  -18.4347  -23.5151   23.7640 N   0  0  0  0  0  0
  -19.6664  -23.9786   24.0929 N   0  0  0  0  0  0
  -31.4660  -12.3724   19.0968 H   0  0  0  0  0  0
  -30.3106  -11.2610   19.7720 H   0  0  0  0  0  0
  -29.7219  -11.8223   17.3885 H   0  0  0  0  0  0
  -29.6589  -13.5201   17.7940 H   0  0  0  0  0  0
  -27.8039  -11.3220   18.7772 H   0  0  0  0  0  0
  -27.3588  -12.6820   17.7830 H   0  0  0  0  0  0
  -27.7246  -14.2526   19.6087 H   0  0  0  0  0  0
  -28.6745  -11.8814   21.2854 H   0  0  0  0  0  0
  -28.4844  -13.4843   21.9022 H   0  0  0  0  0  0
  -25.2741   -9.5710   22.4766 H   0  0  0  0  0  0
  -24.0009   -7.4640   22.7474 H   0  0  0  0  0  0
  -21.0829   -8.8735   19.8958 H   0  0  0  0  0  0
  -22.3644  -10.9662   19.6176 H   0  0  0  0  0  0
  -21.1978   -7.6153   23.9711 H   0  0  0  0  0  0
  -21.1499   -6.0539   25.9083 H   0  0  0  0  0  0
  -22.0593   -2.7618   23.2835 H   0  0  0  0  0  0
  -22.4106  -11.9895   22.4756 H   0  0  0  0  0  0
  -21.1146  -13.1300   22.2599 H   0  0  0  0  0  0
  -24.6715  -15.8421   20.4887 H   0  0  0  0  0  0
  -26.2947  -15.6081   20.0733 H   0  0  0  0  0  0
  -26.7964  -32.5590   23.1317 H   0  0  0  0  0  0
  -25.1179  -34.0010   25.1000 H   0  0  0  0  0  0
  -22.7252  -31.4498   21.5819 H   0  0  0  0  0  0
  -23.3856  -35.9615   23.3279 H   0  0  0  0  0  0
  -24.3610  -36.8917   22.1998 H   0  0  0  0  0  0
  -23.7199  -37.6527   23.6541 H   0  0  0  0  0  0
  -26.2548  -31.6043   20.6659 H   0  0  0  0  0  0
  -26.8504  -30.7230   22.0428 H   0  0  0  0  0  0
  -26.6922  -28.2900   22.1366 H   0  0  0  0  0  0
  -25.0523  -26.1561   18.9088 H   0  0  0  0  0  0
  -23.9524  -28.0847   18.1797 H   0  0  0  0  0  0
  -23.6494  -31.1100   19.4433 H   0  0  0  0  0  0
  -22.6766  -29.7194   19.7178 H   0  0  0  0  0  0
  -25.1343  -36.2109   25.0820 H   0  0  0  0  0  0
  -21.4229  -28.5318   24.5705 H   0  0  0  0  0  0
  -22.0639  -25.7185   24.1090 H   0  0  0  0  0  0
  -23.0265  -26.1534   23.0174 H   0  0  0  0  0  0
  -20.1144  -24.6177   21.8914 H   0  0  0  0  0  0
  -21.1122  -25.1621   20.7746 H   0  0  0  0  0  0
  -19.3946  -27.1964   20.1973 H   0  0  0  0  0  0
  -18.2800  -26.2269   21.0386 H   0  0  0  0  0  0
  -19.8883  -30.5789   24.4633 H   0  0  0  0  0  0
  -17.5260  -31.2200   24.5789 H   0  0  0  0  0  0
  -15.8167  -29.8227   23.4193 H   0  0  0  0  0  0
  -16.5521  -27.9771   21.9325 H   0  0  0  0  0  0
  -24.6017  -30.7201   25.7570 H   0  0  0  0  0  0
  -24.8928  -32.2994   26.4829 H   0  0  0  0  0  0
  -25.7967  -30.8941   27.0243 H   0  0  0  0  0  0
  -26.3004  -29.7042   24.1215 H   0  0  0  0  0  0
  -27.3852  -29.7217   25.4879 H   0  0  0  0  0  0
  -27.9042  -30.4330   23.9769 H   0  0  0  0  0  0
  -27.2921  -33.3512   26.2587 H   0  0  0  0  0  0
  -28.4246  -32.6747   25.0988 H   0  0  0  0  0  0
  -28.0662  -31.8198   26.5914 H   0  0  0  0  0  0
  -28.2638  -38.0238   24.7552 H   0  0  0  0  0  0
  -28.1091  -36.2772   24.6299 H   0  0  0  0  0  0
  -27.2293  -37.1601   25.8868 H   0  0  0  0  0  0
  -21.1953  -30.1407   22.4273 H   0  0  0  0  0  0
  -26.0186  -38.3025   24.1442 H   0  0  0  0  0  0
  -21.6951  -23.1646   24.0421 H   0  0  0  0  0  0
  -19.7604  -19.8736   23.1291 H   0  0  0  0  0  0
  -21.3983  -20.4175   23.1560 H   0  0  0  0  0  0
  -28.9597  -15.5015   21.2356 H   0  0  0  0  0  0
  -30.2281  -15.4712   22.4321 H   0  0  0  0  0  0
  -19.4108  -20.7020   20.8538 H   0  0  0  0  0  0
  -20.7436  -19.5917   20.9079 H   0  0  0  0  0  0
  -30.5856  -16.9514   19.7657 H   0  0  0  0  0  0
  -31.4961  -17.1450   21.2385 H   0  0  0  0  0  0
  -20.9254  -22.6322   20.7477 H   0  0  0  0  0  0
  -21.1843  -21.5440   19.4231 H   0  0  0  0  0  0
  -30.0862  -19.0560   21.0512 H   0  0  0  0  0  0
  -29.4115  -18.0978   22.3396 H   0  0  0  0  0  0
  -22.9373  -21.6386   21.9293 H   0  0  0  0  0  0
  -23.2689  -22.5096   20.4687 H   0  0  0  0  0  0
  -27.6952  -17.1863   20.6947 H   0  0  0  0  0  0
  -28.3996  -18.1702   19.4358 H   0  0  0  0  0  0
  -23.6072  -20.4525   19.1908 H   0  0  0  0  0  0
  -23.0835  -19.4565   20.5264 H   0  0  0  0  0  0
  -27.8068  -20.2247   20.7139 H   0  0  0  0  0  0
  -27.2021  -19.2466   22.0282 H   0  0  0  0  0  0
  -24.9688  -20.2800   21.9232 H   0  0  0  0  0  0
  -25.5006  -21.3254   20.6331 H   0  0  0  0  0  0
  -25.4446  -18.2771   20.4807 H   0  0  0  0  0  0
  -26.0132  -19.3335   19.2117 H   0  0  0  0  0  0
  -19.5948  -27.1902   24.3851 H   0  0  0  0  0  0
  -18.7745  -26.2579   23.2715 H   0  0  0  0  0  0
  -18.9126  -25.4929   25.2110 H   0  0  0  0  0  0
  -20.5688  -25.3960   25.3452 H   0  0  0  0  0  0
  -21.5559  -28.3958   20.8857 H   0  0  0  0  0  0
  -21.6892  -27.0332   20.3252 H   0  0  0  0  0  0
  1 25  1  0  0  0
  1 30  2  0  0  0
  1 74  1  0  0  0
  2  3  1  0  0  0
  2 25  1  0  0  0
  2 91  1  0  0  0
  2 92  1  0  0  0
  3  4  1  0  0  0
  3 93  1  0  0  0
  3 94  1  0  0  0
  4  5  1  0  0  0
  4 95  1  0  0  0
  4 96  1  0  0  0
  5  6  1  0  0  0
  5 26  1  0  0  0
  5 97  1  0  0  0
  6 25  1  0  0  0
  6 98  1  0  0  0
  6 99  1  0  0  0
  7  8  2  0  0  0
  7 26  1  0  0  0
  7 29  1  0  0  0
  8  9  1  0  0  0
  8 22  1  0  0  0
  9 10  1  0  0  0
  9 27  2  0  0  0
 10 11  2  0  0  0
 10 15  1  0  0  0
 11 12  1  0  0  0
 11100  1  0  0  0
 12 13  2  0  0  0
 12101  1  0  0  0
 13 14  1  0  0  0
 13 31  1  0  0  0
 14 15  2  0  0  0
 14102  1  0  0  0
 15103  1  0  0  0
 16 17  2  0  0  0
 16 21  1  0  0  0
 16 31  1  0  0  0
 17 18  1  0  0  0
 17104  1  0  0  0
 18 19  2  0  0  0
 18105  1  0  0  0
 19 20  1  0  0  0
 19 24  1  0  0  0
 20 21  2  0  0  0
 20106  1  0  0  0
 21 23  1  0  0  0
 22 28  1  0  0  0
 22 32  2  0  0  0
 26 27  1  0  0  0
 28107  1  0  0  0
 28108  1  0  0  0
 29109  1  0  0  0
 29110  1  0  0  0
 33 34  1  0  0  0
 33 66  1  0  0  0
 33 70  2  0  0  0
 34 36  1  0  0  0
 34 59  1  0  0  0
 34111  1  0  0  0
 35 44  2  0  0  0
 35 45  1  0  0  0
 35 68  1  0  0  0
 36 56  1  0  0  0
 36112  1  0  0  0
 37 39  1  0  0  0
 37 47  1  0  0  0
 37 66  1  0  0  0
 37113  1  0  0  0
 38 43  2  0  0  0
 38 46  1  0  0  0
 38 47  1  0  0  0
 39 64  1  0  0  0
 39 67  2  0  0  0
 40 52  1  0  0  0
 40 53  2  0  0  0
 40 58  1  0  0  0
 41114  1  0  0  0
 41115  1  0  0  0
 41116  1  0  0  0
 41 48  1  0  0  0
 42 43  1  0  0  0
 42 66  1  0  0  0
 42117  1  0  0  0
 42118  1  0  0  0
 43 44  1  0  0  0
 44119  1  0  0  0
 45 46  2  0  0  0
 45120  1  0  0  0
 46121  1  0  0  0
 47122  1  0  0  0
 47123  1  0  0  0
 48 56  1  0  0  0
 48 65  1  0  0  0
 48124  1  0  0  0
 49 50  1  0  0  0
 49 53  1  0  0  0
 49 64  1  0  0  0
 49125  1  0  0  0
 50 51  1  0  0  0
 50126  1  0  0  0
 50127  1  0  0  0
 51 52  1  0  0  0
 51128  1  0  0  0
 51129  1  0  0  0
 52130  1  0  0  0
 52131  1  0  0  0
 53 54  1  0  0  0
 54 55  2  0  0  0
 54132  1  0  0  0
 55 57  1  0  0  0
 55133  1  0  0  0
 56 69  2  0  0  0
 57 58  2  0  0  0
 57134  1  0  0  0
 58135  1  0  0  0
 59 60  1  0  0  0
 59 61  1  0  0  0
 59 62  1  0  0  0
 60136  1  0  0  0
 60137  1  0  0  0
 60138  1  0  0  0
 61139  1  0  0  0
 61140  1  0  0  0
 61141  1  0  0  0
 62142  1  0  0  0
 62143  1  0  0  0
 62144  1  0  0  0
 63 65  1  0  0  0
 63145  1  0  0  0
 63146  1  0  0  0
 63147  1  0  0  0
 64148  1  0  0  0
 65149  1  0  0  0
 68 87  1  0  0  0
 71 72  2  0  0  0
 71 90  1  0  0  0
 71150  1  0  0  0
 72 73  1  0  0  0
 72 88  1  0  0  0
 73 75  1  0  0  0
 73151  1  0  0  0
 73152  1  0  0  0
 74 76  1  0  0  0
 74153  1  0  0  0
 74154  1  0  0  0
 75 77  1  0  0  0
 75155  1  0  0  0
 75156  1  0  0  0
 76 78  1  0  0  0
 76157  1  0  0  0
 76158  1  0  0  0
 77 79  1  0  0  0
 77159  1  0  0  0
 77160  1  0  0  0
 78 80  1  0  0  0
 78161  1  0  0  0
 78162  1  0  0  0
 79 81  1  0  0  0
 79163  1  0  0  0
 79164  1  0  0  0
 80 82  1  0  0  0
 80165  1  0  0  0
 80166  1  0  0  0
 81 83  1  0  0  0
 81167  1  0  0  0
 81168  1  0  0  0
 82 84  1  0  0  0
 82169  1  0  0  0
 82170  1  0  0  0
 83 84  1  0  0  0
 83171  1  0  0  0
 83172  1  0  0  0
 84173  1  0  0  0
 84174  1  0  0  0
 85 86  1  0  0  0
 85 87  1  0  0  0
 85175  1  0  0  0
 85176  1  0  0  0
 86 90  1  0  0  0
 86177  1  0  0  0
 86178  1  0  0  0
 87179  1  0  0  0
 87180  1  0  0  0
 88 89  2  0  0  0
 89 90  1  0  0  0
M  ISO  4   1 100  68 101  74 100  87 101
M  END
> <chiral flag>
0

> <version>
0

> <s_m_source_file>
/data/baiqing/PycharmProjects/Reinvent-master-3.2/result/LINK_invent/BTK/process_docking_weight1_custom_sum_contain_oxygen_bond_distance_aromatic_linkinvent_7_9_3/rearranged_h_0038.sdf

> <i_m_source_file_index>
85

> <r_mmod_Potential_Energy-OPLS-2005>
11528.244140625

> <r_mmod_Stretch_Energy-OPLS-2005>
4890.05126953125

> <r_mmod_Bend_Energy-OPLS-2005>
703.546875

> <r_mmod_Torsional_Energy-OPLS-2005>
537.786682128906

> <r_mmod_Improper_Torsional_Energy-OPLS-2005>
50.5750350952148

> <r_mmod_Van_der_Waal_Energy-OPLS-2005>
1836.2744140625

> <r_mmod_Electrostatic_Energy-OPLS-2005>
-346.848480224609

> <r_mmod_Solvation_Energy-OPLS-2005>
-184.107147216797

> <b_mmod_Minimization_Converged-OPLS-2005>
0

> <r_mmod_RMS_Derivative-OPLS-2005>
4.88745832443237

$$$$
88
                    3D
 Structure written by MMmdl.
170178  0  0  1  0            999 V2000
  -30.6332  -14.5733   20.5530 C   0  0  0  0  0  0
  -30.4421  -12.3537   19.4539 C   0  0  0  0  0  0
  -29.5102  -12.4731   18.2282 C   0  0  0  0  0  0
  -28.0362  -12.2997   18.6460 C   0  0  0  0  0  0
  -27.6526  -13.1963   19.8545 C   0  0  2  0  0  0
  -28.6873  -13.0390   20.9930 C   0  0  0  0  0  0
  -25.2589  -13.8132   20.5731 C   0  0  0  0  0  0
  -24.1838  -13.0467   20.9237 C   0  0  0  0  0  0
  -24.6335  -11.6901   20.8804 C   0  0  0  0  0  0
  -23.8995  -10.4302   21.0451 C   0  0  0  0  0  0
  -24.3585   -9.4232   21.9246 C   0  0  0  0  0  0
  -23.6307   -8.2247   22.0769 C   0  0  0  0  0  0
  -22.4292   -8.0282   21.3534 C   0  0  0  0  0  0
  -21.9907   -9.0226   20.4638 C   0  0  0  0  0  0
  -22.7188  -10.2146   20.3084 C   0  0  0  0  0  0
  -21.6826   -6.0764   22.5297 C   0  0  0  0  0  0
  -21.3989   -6.5649   23.8252 C   0  0  0  0  0  0
  -21.3662   -5.6805   24.9207 C   0  0  0  0  0  0
  -21.6059   -4.3058   24.7235 C   0  0  0  0  0  0
  -21.8802   -3.8168   23.4349 C   0  0  0  0  0  0
  -21.9187   -4.6994   22.3419 C   0  0  0  0  0  0
  -22.7855  -13.5316   21.1864 C   0  0  0  0  0  0
  -22.1669   -4.2194   21.0993 F   0  0  0  0  0  0
  -21.5622   -3.4531   25.7739 F   0  0  0  0  0  0
  -30.0172  -13.3569   20.4480 N   0  0  0  0  0  0
  -26.2958  -12.9258   20.3265 N   0  0  0  0  0  0
  -25.9240  -11.6437   20.5771 N   0  0  0  0  0  0
  -22.0381  -12.8410   22.0396 N   0  0  0  0  0  0
  -25.4406  -15.1857   20.4186 N   0  0  0  0  0  0
  -31.7742  -14.7825   20.1345 O   0  0  0  0  0  0
  -21.6623   -6.8887   21.4248 O   0  0  0  0  0  0
  -22.3624  -14.5615   20.6633 O   0  0  0  0  0  0
  -24.6215  -31.8623   23.1992 C   0  0  0  0  0  0
  -25.9077  -32.4784   23.8338 C   0  0  1  0  0  0
  -27.2627  -27.3967   20.1257 C   0  0  0  0  0  0
  -25.5928  -33.8595   24.2264 N   0  0  0  0  0  0
  -23.4142  -30.4755   21.5397 C   0  0  2  0  0  0
  -24.8697  -28.9179   20.1337 C   0  0  0  0  0  0
  -22.7478  -29.4591   22.4943 C   0  0  0  0  0  0
  -18.0307  -28.1402   22.8542 C   0  0  0  0  0  0
  -24.1490  -36.7312   23.2617 C   0  0  0  0  0  0
  -25.9439  -30.8134   21.3605 C   0  0  0  0  0  0
  -26.0266  -29.4352   20.7292 C   0  0  0  0  0  0
  -27.2274  -28.6818   20.7214 C   0  0  0  0  0  0
  -26.0877  -26.8904   19.5356 C   0  0  0  0  0  0
  -24.8931  -27.6409   19.5410 C   0  0  0  0  0  0
  -23.6321  -29.7877   20.1633 C   0  0  0  0  0  0
  -25.4110  -36.3071   24.0281 C   0  0  1  0  0  0
  -20.5912  -28.3617   23.1296 C   0  0  2  0  0  0
  -20.6757  -26.9376   22.5337 C   0  0  0  0  0  0
  -19.5663  -26.6498   21.5147 C   0  0  0  0  0  0
  -18.1946  -26.7922   22.1765 C   0  0  0  0  0  0
  -19.1572  -28.8835   23.2931 C   0  0  0  0  0  0
  -18.9505  -30.1447   23.8951 C   0  0  0  0  0  0
  -17.6499  -30.6592   24.0641 C   0  0  0  0  0  0
  -25.9034  -34.9442   23.5046 C   0  0  0  0  0  0
  -16.5386  -29.9118   23.6358 C   0  0  0  0  0  0
  -16.7291  -28.6532   23.0372 C   0  0  0  0  0  0
  -26.4510  -31.6591   25.0700 C   0  0  0  0  0  0
  -25.3768  -31.3708   26.1439 C   0  0  0  0  0  0
  -27.0342  -30.3014   24.6118 C   0  0  0  0  0  0
  -27.6082  -32.4332   25.7483 C   0  0  0  0  0  0
  -27.5570  -37.1797   24.8448 C   0  0  0  0  0  0
  -21.4219  -29.2939   22.3665 N   0  0  0  0  0  0
  -26.4287  -37.3763   23.9379 N   0  0  0  0  0  0
  -24.6773  -31.0665   22.0917 N   0  0  0  0  0  0
  -23.4245  -28.8191   23.3053 O   0  0  0  0  0  0
  -28.4486  -26.6999   19.9925 O   0  0  0  0  0  0
  -26.5584  -34.8903   22.4602 O   0  0  0  0  0  0
  -23.5376  -32.1380   23.7330 O   0  0  0  0  0  0
  -27.2032  -21.6432   21.7696 C   0  0  0  0  0  0
  -29.1585  -20.3406   21.1760 C   0  0  0  0  0  0
  -28.4899  -21.6057   21.2000 C   0  0  0  0  0  0
  -26.6590  -20.4799   22.3422 C   0  0  0  0  0  0
  -28.5399  -19.1959   21.7579 C   0  0  0  0  0  0
  -22.9088  -16.0495   24.1561 C   0  0  0  0  0  0
  -29.1940  -22.9385   20.8365 C   0  0  0  0  0  0
  -25.3846  -20.5642   23.1973 C   0  0  0  0  0  0
  -29.2306  -17.8260   22.0292 C   0  0  0  0  0  0
  -23.9434  -17.0331   23.6140 C   0  0  0  0  0  0
  -28.3583  -24.1399   20.2382 C   0  0  0  0  0  0
  -24.2605  -19.5307   22.8664 C   0  0  0  0  0  0
  -23.5422  -18.5180   23.8139 C   0  0  0  0  0  0
  -29.9812  -17.0623   20.8803 C   0  0  0  0  0  0
  -28.7125  -25.5498   20.8226 C   0  0  0  0  0  0
  -27.3160  -19.2967   22.3224 N   0  0  0  0  0  0
  -29.8233  -15.5799   20.9681 N   0  0  0  0  0  0
  -31.4833  -12.4823   19.1531 H   0  0  0  0  0  0
  -30.3782  -11.3531   19.8864 H   0  0  0  0  0  0
  -29.7790  -11.7214   17.4819 H   0  0  0  0  0  0
  -29.6451  -13.4477   17.7556 H   0  0  0  0  0  0
  -27.8996  -11.2505   18.9242 H   0  0  0  0  0  0
  -27.3683  -12.4747   17.7995 H   0  0  0  0  0  0
  -27.6786  -14.2293   19.5024 H   0  0  0  0  0  0
  -28.6807  -12.0183   21.3728 H   0  0  0  0  0  0
  -28.4289  -13.6625   21.8530 H   0  0  0  0  0  0
  -25.2707   -9.5754   22.4862 H   0  0  0  0  0  0
  -24.0017   -7.4638   22.7498 H   0  0  0  0  0  0
  -21.0837   -8.8707   19.8967 H   0  0  0  0  0  0
  -22.3603  -10.9683   19.6225 H   0  0  0  0  0  0
  -21.1961   -7.6161   23.9761 H   0  0  0  0  0  0
  -21.1521   -6.0533   25.9119 H   0  0  0  0  0  0
  -22.0590   -2.7626   23.2829 H   0  0  0  0  0  0
  -22.3834  -12.0086   22.4932 H   0  0  0  0  0  0
  -21.0956  -13.1488   22.2259 H   0  0  0  0  0  0
  -24.6786  -15.8423   20.5455 H   0  0  0  0  0  0
  -26.3046  -15.6268   20.1333 H   0  0  0  0  0  0
  -26.7165  -32.5497   23.1132 H   0  0  0  0  0  0
  -25.0200  -33.9769   25.0492 H   0  0  0  0  0  0
  -22.7017  -31.2878   21.3834 H   0  0  0  0  0  0
  -23.3725  -35.9680   23.3287 H   0  0  0  0  0  0
  -24.3579  -36.8947   22.2034 H   0  0  0  0  0  0
  -23.7288  -37.6518   23.6664 H   0  0  0  0  0  0
  -26.0422  -31.5631   20.5755 H   0  0  0  0  0  0
  -26.8355  -30.8886   21.9727 H   0  0  0  0  0  0
  -28.1272  -29.0881   21.1622 H   0  0  0  0  0  0
  -26.1010  -25.9191   19.0577 H   0  0  0  0  0  0
  -24.0029  -27.2289   19.0868 H   0  0  0  0  0  0
  -23.7521  -30.5479   19.3918 H   0  0  0  0  0  0
  -22.7640  -29.1965   19.8637 H   0  0  0  0  0  0
  -25.1314  -36.1884   25.0769 H   0  0  0  0  0  0
  -21.0030  -28.3146   24.1412 H   0  0  0  0  0  0
  -20.5667  -26.2177   23.3444 H   0  0  0  0  0  0
  -21.6608  -26.7418   22.1045 H   0  0  0  0  0  0
  -19.6789  -25.6490   21.0951 H   0  0  0  0  0  0
  -19.6497  -27.3528   20.6848 H   0  0  0  0  0  0
  -17.4078  -26.6514   21.4356 H   0  0  0  0  0  0
  -18.0617  -26.0161   22.9309 H   0  0  0  0  0  0
  -19.7979  -30.7252   24.2326 H   0  0  0  0  0  0
  -17.5057  -31.6235   24.5310 H   0  0  0  0  0  0
  -15.5380  -30.3028   23.7651 H   0  0  0  0  0  0
  -15.8702  -28.0834   22.7079 H   0  0  0  0  0  0
  -24.5949  -30.7065   25.7740 H   0  0  0  0  0  0
  -24.8993  -32.2895   26.4854 H   0  0  0  0  0  0
  -25.8123  -30.8879   27.0205 H   0  0  0  0  0  0
  -26.2882  -29.6764   24.1207 H   0  0  0  0  0  0
  -27.4111  -29.7255   25.4578 H   0  0  0  0  0  0
  -27.8729  -30.4284   23.9275 H   0  0  0  0  0  0
  -27.2686  -33.3613   26.2096 H   0  0  0  0  0  0
  -28.3908  -32.6931   25.0340 H   0  0  0  0  0  0
  -28.0783  -31.8468   26.5387 H   0  0  0  0  0  0
  -28.2576  -38.0105   24.7510 H   0  0  0  0  0  0
  -28.1082  -36.2634   24.6279 H   0  0  0  0  0  0
  -27.2295  -37.1460   25.8854 H   0  0  0  0  0  0
  -20.9429  -29.8577   21.6794 H   0  0  0  0  0  0
  -26.0145  -38.2822   24.1412 H   0  0  0  0  0  0
  -26.6658  -22.5760   21.8573 H   0  0  0  0  0  0
  -30.1727  -20.2566   20.8127 H   0  0  0  0  0  0
  -23.2333  -15.0182   24.0080 H   0  0  0  0  0  0
  -21.9575  -16.1676   23.6367 H   0  0  0  0  0  0
  -22.7349  -16.2040   25.2214 H   0  0  0  0  0  0
  -30.0431  -22.7302   20.1836 H   0  0  0  0  0  0
  -29.6367  -23.2701   21.7752 H   0  0  0  0  0  0
  -25.0113  -21.5890   23.1059 H   0  0  0  0  0  0
  -25.6880  -20.4768   24.2436 H   0  0  0  0  0  0
  -28.4768  -17.1507   22.4442 H   0  0  0  0  0  0
  -29.9138  -17.9914   22.8665 H   0  0  0  0  0  0
  -24.0942  -16.8317   22.5521 H   0  0  0  0  0  0
  -24.9060  -16.8516   24.0992 H   0  0  0  0  0  0
  -27.2874  -23.9940   20.3539 H   0  0  0  0  0  0
  -28.5198  -24.1559   19.1591 H   0  0  0  0  0  0
  -23.6307  -20.2320   23.4223 H   0  0  0  0  0  0
  -25.0807  -18.8729   23.1151 H   0  0  0  0  0  0
  -23.7009  -18.7835   24.8659 H   0  0  0  0  0  0
  -22.4656  -18.5921   23.6460 H   0  0  0  0  0  0
  -31.0326  -17.3528   20.8859 H   0  0  0  0  0  0
  -29.6001  -17.3791   19.9105 H   0  0  0  0  0  0
  -29.7948  -25.5884   20.9686 H   0  0  0  0  0  0
  -28.2721  -25.6896   21.8107 H   0  0  0  0  0  0
  -28.8964  -15.2721   21.2137 H   0  0  0  0  0  0
  1 25  1  0  0  0
  1 30  2  0  0  0
  1 87  1  0  0  0
  2  3  1  0  0  0
  2 25  1  0  0  0
  2 88  1  0  0  0
  2 89  1  0  0  0
  3  4  1  0  0  0
  3 90  1  0  0  0
  3 91  1  0  0  0
  4  5  1  0  0  0
  4 92  1  0  0  0
  4 93  1  0  0  0
  5  6  1  0  0  0
  5 26  1  0  0  0
  5 94  1  0  0  0
  6 25  1  0  0  0
  6 95  1  0  0  0
  6 96  1  0  0  0
  7  8  2  0  0  0
  7 26  1  0  0  0
  7 29  1  0  0  0
  8  9  1  0  0  0
  8 22  1  0  0  0
  9 10  1  0  0  0
  9 27  2  0  0  0
 10 11  2  0  0  0
 10 15  1  0  0  0
 11 12  1  0  0  0
 11 97  1  0  0  0
 12 13  2  0  0  0
 12 98  1  0  0  0
 13 14  1  0  0  0
 13 31  1  0  0  0
 14 15  2  0  0  0
 14 99  1  0  0  0
 15100  1  0  0  0
 16 17  2  0  0  0
 16 21  1  0  0  0
 16 31  1  0  0  0
 17 18  1  0  0  0
 17101  1  0  0  0
 18 19  2  0  0  0
 18102  1  0  0  0
 19 20  1  0  0  0
 19 24  1  0  0  0
 20 21  2  0  0  0
 20103  1  0  0  0
 21 23  1  0  0  0
 22 28  1  0  0  0
 22 32  2  0  0  0
 26 27  1  0  0  0
 28104  1  0  0  0
 28105  1  0  0  0
 29106  1  0  0  0
 29107  1  0  0  0
 33 34  1  0  0  0
 33 66  1  0  0  0
 33 70  2  0  0  0
 34 36  1  0  0  0
 34 59  1  0  0  0
 34108  1  0  0  0
 35 44  2  0  0  0
 35 45  1  0  0  0
 35 68  1  0  0  0
 36 56  1  0  0  0
 36109  1  0  0  0
 37 39  1  0  0  0
 37 47  1  0  0  0
 37 66  1  0  0  0
 37110  1  0  0  0
 38 43  2  0  0  0
 38 46  1  0  0  0
 38 47  1  0  0  0
 39 64  1  0  0  0
 39 67  2  0  0  0
 40 52  1  0  0  0
 40 53  2  0  0  0
 40 58  1  0  0  0
 41111  1  0  0  0
 41112  1  0  0  0
 41113  1  0  0  0
 41 48  1  0  0  0
 42 43  1  0  0  0
 42 66  1  0  0  0
 42114  1  0  0  0
 42115  1  0  0  0
 43 44  1  0  0  0
 44116  1  0  0  0
 45 46  2  0  0  0
 45117  1  0  0  0
 46118  1  0  0  0
 47119  1  0  0  0
 47120  1  0  0  0
 48 56  1  0  0  0
 48 65  1  0  0  0
 48121  1  0  0  0
 49 50  1  0  0  0
 49 53  1  0  0  0
 49 64  1  0  0  0
 49122  1  0  0  0
 50 51  1  0  0  0
 50123  1  0  0  0
 50124  1  0  0  0
 51 52  1  0  0  0
 51125  1  0  0  0
 51126  1  0  0  0
 52127  1  0  0  0
 52128  1  0  0  0
 53 54  1  0  0  0
 54 55  2  0  0  0
 54129  1  0  0  0
 55 57  1  0  0  0
 55130  1  0  0  0
 56 69  2  0  0  0
 57 58  2  0  0  0
 57131  1  0  0  0
 58132  1  0  0  0
 59 60  1  0  0  0
 59 61  1  0  0  0
 59 62  1  0  0  0
 60133  1  0  0  0
 60134  1  0  0  0
 60135  1  0  0  0
 61136  1  0  0  0
 61137  1  0  0  0
 61138  1  0  0  0
 62139  1  0  0  0
 62140  1  0  0  0
 62141  1  0  0  0
 63 65  1  0  0  0
 63142  1  0  0  0
 63143  1  0  0  0
 63144  1  0  0  0
 64145  1  0  0  0
 65146  1  0  0  0
 68 85  1  0  0  0
 71 73  2  0  0  0
 71 74  1  0  0  0
 71147  1  0  0  0
 72 73  1  0  0  0
 72 75  2  0  0  0
 72148  1  0  0  0
 73 77  1  0  0  0
 74 78  1  0  0  0
 74 86  2  0  0  0
 75 79  1  0  0  0
 75 86  1  0  0  0
 76 80  1  0  0  0
 76149  1  0  0  0
 76150  1  0  0  0
 76151  1  0  0  0
 77 81  1  0  0  0
 77152  1  0  0  0
 77153  1  0  0  0
 78 82  1  0  0  0
 78154  1  0  0  0
 78155  1  0  0  0
 79 84  1  0  0  0
 79156  1  0  0  0
 79157  1  0  0  0
 80 83  1  0  0  0
 80158  1  0  0  0
 80159  1  0  0  0
 81 85  1  0  0  0
 81160  1  0  0  0
 81161  1  0  0  0
 82 83  1  0  0  0
 82162  1  0  0  0
 82163  1  0  0  0
 83164  1  0  0  0
 83165  1  0  0  0
 84 87  1  0  0  0
 84166  1  0  0  0
 84167  1  0  0  0
 85168  1  0  0  0
 85169  1  0  0  0
 87170  1  0  0  0
M  ISO  4   1 100  68 101  85 101  87 100
M  END
> <chiral flag>
0

> <version>
0

> <s_m_source_file>
/data/baiqing/PycharmProjects/Reinvent-master-3.2/result/LINK_invent/BTK/process_docking_weight1_custom_sum_contain_oxygen_bond_distance_aromatic_linkinvent_7_9_3/rearranged_h_0038.sdf

> <i_m_source_file_index>
86

> <r_mmod_Potential_Energy-OPLS-2005>
145.066925048828

> <r_mmod_Stretch_Energy-OPLS-2005>
58.1402778625488

> <r_mmod_Bend_Energy-OPLS-2005>
355.612640380859

> <r_mmod_Torsional_Energy-OPLS-2005>
257.161712646484

> <r_mmod_Improper_Torsional_Energy-OPLS-2005>
7.96478033065796

> <r_mmod_Van_der_Waal_Energy-OPLS-2005>
157.235885620117

> <r_mmod_Electrostatic_Energy-OPLS-2005>
-508.119415283203

> <r_mmod_Solvation_Energy-OPLS-2005>
-209.639190673828

> <b_mmod_Minimization_Converged-OPLS-2005>
0

> <r_mmod_RMS_Derivative-OPLS-2005>
6.45232152938843

$$$$
89
                    3D
 Structure written by MMmdl.
170178  0  0  1  0            999 V2000
  -30.7475  -14.4109   20.5679 C   0  0  0  0  0  0
  -30.4182  -12.2683   19.4115 C   0  0  0  0  0  0
  -29.4917  -12.5093   18.2017 C   0  0  0  0  0  0
  -28.0152  -12.3668   18.6202 C   0  0  0  0  0  0
  -27.6724  -13.2016   19.8845 C   0  0  2  0  0  0
  -28.7186  -12.9703   21.0017 C   0  0  0  0  0  0
  -25.2656  -13.8140   20.5743 C   0  0  0  0  0  0
  -24.1895  -13.0419   20.9184 C   0  0  0  0  0  0
  -24.6455  -11.6876   20.8772 C   0  0  0  0  0  0
  -23.9113  -10.4266   21.0424 C   0  0  0  0  0  0
  -24.3659   -9.4172   21.9200 C   0  0  0  0  0  0
  -23.6331   -8.2203   22.0760 C   0  0  0  0  0  0
  -22.4302   -8.0265   21.3551 C   0  0  0  0  0  0
  -21.9950   -9.0235   20.4644 C   0  0  0  0  0  0
  -22.7285  -10.2116   20.3064 C   0  0  0  0  0  0
  -21.6842   -6.0750   22.5310 C   0  0  0  0  0  0
  -21.3991   -6.5651   23.8244 C   0  0  0  0  0  0
  -21.3662   -5.6803   24.9207 C   0  0  0  0  0  0
  -21.6042   -4.3066   24.7253 C   0  0  0  0  0  0
  -21.8808   -3.8163   23.4377 C   0  0  0  0  0  0
  -21.9195   -4.6987   22.3433 C   0  0  0  0  0  0
  -22.7908  -13.5213   21.1825 C   0  0  0  0  0  0
  -22.1653   -4.2174   21.1009 F   0  0  0  0  0  0
  -21.5643   -3.4538   25.7756 F   0  0  0  0  0  0
  -30.0576  -13.2464   20.4505 N   0  0  0  0  0  0
  -26.3117  -12.9314   20.3457 N   0  0  0  0  0  0
  -25.9401  -11.6475   20.5851 N   0  0  0  0  0  0
  -22.0536  -12.8206   22.0369 N   0  0  0  0  0  0
  -25.4355  -15.1855   20.4148 N   0  0  0  0  0  0
  -31.8425  -14.6024   20.0380 O   0  0  0  0  0  0
  -21.6632   -6.8879   21.4268 O   0  0  0  0  0  0
  -22.3606  -14.5532   20.6692 O   0  0  0  0  0  0
  -24.6112  -31.8690   23.2108 C   0  0  0  0  0  0
  -25.9025  -32.4808   23.8407 C   0  0  1  0  0  0
  -27.2676  -27.4930   20.0753 C   0  0  0  0  0  0
  -25.5894  -33.8602   24.2348 N   0  0  0  0  0  0
  -23.3991  -30.4872   21.5482 C   0  0  2  0  0  0
  -24.8525  -28.9502   20.1221 C   0  0  0  0  0  0
  -22.7391  -29.4655   22.5007 C   0  0  0  0  0  0
  -18.0268  -28.1380   22.8493 C   0  0  0  0  0  0
  -24.1478  -36.7293   23.2635 C   0  0  0  0  0  0
  -25.9213  -30.8482   21.3594 C   0  0  0  0  0  0
  -26.0048  -29.4850   20.7101 C   0  0  0  0  0  0
  -27.2116  -28.7610   20.6940 C   0  0  0  0  0  0
  -26.0947  -26.9454   19.5190 C   0  0  0  0  0  0
  -24.8875  -27.6733   19.5296 C   0  0  0  0  0  0
  -23.6095  -29.8079   20.1667 C   0  0  0  0  0  0
  -25.4089  -36.3090   24.0352 C   0  0  1  0  0  0
  -20.5856  -28.3659   23.1327 C   0  0  2  0  0  0
  -20.6758  -26.9400   22.5426 C   0  0  0  0  0  0
  -19.5740  -26.6391   21.5214 C   0  0  0  0  0  0
  -18.1916  -26.7930   22.1626 C   0  0  0  0  0  0
  -19.1520  -28.8836   23.2902 C   0  0  0  0  0  0
  -18.9450  -30.1444   23.8907 C   0  0  0  0  0  0
  -17.6452  -30.6585   24.0568 C   0  0  0  0  0  0
  -25.9028  -34.9459   23.5152 C   0  0  0  0  0  0
  -16.5340  -29.9083   23.6329 C   0  0  0  0  0  0
  -16.7259  -28.6504   23.0346 C   0  0  0  0  0  0
  -26.4489  -31.6557   25.0705 C   0  0  0  0  0  0
  -25.3793  -31.3611   26.1471 C   0  0  0  0  0  0
  -27.0317  -30.3005   24.6048 C   0  0  0  0  0  0
  -27.6089  -32.4254   25.7452 C   0  0  0  0  0  0
  -27.5575  -37.1784   24.8468 C   0  0  0  0  0  0
  -21.4125  -29.3020   22.3734 N   0  0  0  0  0  0
  -26.4266  -37.3784   23.9447 N   0  0  0  0  0  0
  -24.6607  -31.0832   22.0975 N   0  0  0  0  0  0
  -23.4173  -28.8221   23.3065 O   0  0  0  0  0  0
  -28.4344  -26.7734   19.9982 O   0  0  0  0  0  0
  -26.5579  -34.8915   22.4705 O   0  0  0  0  0  0
  -23.5316  -32.1422   23.7523 O   0  0  0  0  0  0
  -31.5563  -24.9742   18.1534 C   0  0  0  0  0  0
  -31.6719  -23.6086   17.8309 C   0  0  0  0  0  0
  -30.9895  -25.3479   19.3884 C   0  0  0  0  0  0
  -31.1956  -22.6579   18.7585 C   0  0  0  0  0  0
  -30.5662  -24.3216   20.2652 C   0  0  0  0  0  0
  -32.3090  -23.1905   16.5154 C   0  0  0  0  0  0
  -29.9552  -24.5792   21.6333 C   0  0  0  0  0  0
  -30.8725  -26.8330   19.7295 C   0  0  0  0  0  0
  -31.2529  -21.1568   18.5103 C   0  0  0  0  0  0
  -32.5372  -20.5089   19.0620 C   0  0  0  0  0  0
  -32.3340  -19.0543   19.5218 C   0  0  0  0  0  0
  -31.6573  -18.9513   20.9064 C   0  0  0  0  0  0
  -31.4887  -17.5038   21.4058 C   0  0  0  0  0  0
  -30.2637  -16.8247   20.7707 C   0  0  0  0  0  0
  -29.5173  -27.4546   19.3606 C   0  0  0  0  0  0
  -30.6727  -23.0151   19.9473 N   0  0  0  0  0  0
  -30.0798  -15.4211   21.1409 N   0  0  0  0  0  0
  -31.4660  -12.3402   19.1092 H   0  0  0  0  0  0
  -30.2895  -11.2536   19.7913 H   0  0  0  0  0  0
  -29.7211  -11.8095   17.3964 H   0  0  0  0  0  0
  -29.6682  -13.5062   17.7965 H   0  0  0  0  0  0
  -27.8274  -11.3095   18.8139 H   0  0  0  0  0  0
  -27.3564  -12.6421   17.7961 H   0  0  0  0  0  0
  -27.7231  -14.2503   19.5966 H   0  0  0  0  0  0
  -28.6775  -11.9365   21.3434 H   0  0  0  0  0  0
  -28.4932  -13.5758   21.8798 H   0  0  0  0  0  0
  -25.2811   -9.5623   22.4781 H   0  0  0  0  0  0
  -24.0015   -7.4592   22.7505 H   0  0  0  0  0  0
  -21.0866   -8.8786   19.8967 H   0  0  0  0  0  0
  -22.3767  -10.9667   19.6176 H   0  0  0  0  0  0
  -21.1955   -7.6157   23.9750 H   0  0  0  0  0  0
  -21.1493   -6.0537   25.9114 H   0  0  0  0  0  0
  -22.0589   -2.7630   23.2888 H   0  0  0  0  0  0
  -22.4113  -11.9861   22.4784 H   0  0  0  0  0  0
  -21.1163  -13.1254   22.2558 H   0  0  0  0  0  0
  -24.6641  -15.8368   20.5153 H   0  0  0  0  0  0
  -26.2989  -15.6320   20.1308 H   0  0  0  0  0  0
  -26.7100  -32.5554   23.1185 H   0  0  0  0  0  0
  -25.0087  -33.9764   25.0521 H   0  0  0  0  0  0
  -22.6859  -31.3010   21.4022 H   0  0  0  0  0  0
  -23.3738  -35.9628   23.3297 H   0  0  0  0  0  0
  -24.3587  -36.8896   22.2051 H   0  0  0  0  0  0
  -23.7229  -37.6501   23.6640 H   0  0  0  0  0  0
  -26.0364  -31.6178   20.5950 H   0  0  0  0  0  0
  -26.8061  -30.8983   21.9819 H   0  0  0  0  0  0
  -28.0951  -29.1847   21.1501 H   0  0  0  0  0  0
  -26.1287  -25.9663   19.0618 H   0  0  0  0  0  0
  -24.0003  -27.2462   19.0824 H   0  0  0  0  0  0
  -23.7116  -30.5751   19.3980 H   0  0  0  0  0  0
  -22.7399  -29.2155   19.8770 H   0  0  0  0  0  0
  -25.1252  -36.1947   25.0839 H   0  0  0  0  0  0
  -20.9945  -28.3230   24.1448 H   0  0  0  0  0  0
  -20.5662  -26.2270   23.3608 H   0  0  0  0  0  0
  -21.6631  -26.7447   22.1222 H   0  0  0  0  0  0
  -19.6903  -25.6306   21.1222 H   0  0  0  0  0  0
  -19.6681  -27.3220   20.6757 H   0  0  0  0  0  0
  -17.4192  -26.6683   21.4019 H   0  0  0  0  0  0
  -18.0312  -26.0068   22.9017 H   0  0  0  0  0  0
  -19.7925  -30.7258   24.2289 H   0  0  0  0  0  0
  -17.5006  -31.6271   24.5166 H   0  0  0  0  0  0
  -15.5341  -30.2990   23.7650 H   0  0  0  0  0  0
  -15.8660  -28.0826   22.7055 H   0  0  0  0  0  0
  -24.6006  -30.6903   25.7817 H   0  0  0  0  0  0
  -24.8945  -32.2733   26.4951 H   0  0  0  0  0  0
  -25.8206  -30.8781   27.0201 H   0  0  0  0  0  0
  -26.2828  -29.6719   24.1212 H   0  0  0  0  0  0
  -27.4218  -29.7271   25.4469 H   0  0  0  0  0  0
  -27.8610  -30.4319   23.9093 H   0  0  0  0  0  0
  -27.2744  -33.3555   26.2054 H   0  0  0  0  0  0
  -28.3888  -32.6788   25.0259 H   0  0  0  0  0  0
  -28.0768  -31.8351   26.5342 H   0  0  0  0  0  0
  -28.2570  -38.0100   24.7548 H   0  0  0  0  0  0
  -28.1085  -36.2640   24.6231 H   0  0  0  0  0  0
  -27.2317  -37.1365   25.8873 H   0  0  0  0  0  0
  -20.9301  -29.8718   21.6924 H   0  0  0  0  0  0
  -26.0145  -38.2847   24.1497 H   0  0  0  0  0  0
  -31.9030  -25.7292   17.4618 H   0  0  0  0  0  0
  -32.6948  -24.0500   15.9663 H   0  0  0  0  0  0
  -31.5840  -22.6838   15.8770 H   0  0  0  0  0  0
  -33.1443  -22.5121   16.6930 H   0  0  0  0  0  0
  -30.3678  -25.4598   22.1199 H   0  0  0  0  0  0
  -30.1445  -23.7356   22.2990 H   0  0  0  0  0  0
  -28.8738  -24.7014   21.5541 H   0  0  0  0  0  0
  -31.6543  -27.3755   19.1934 H   0  0  0  0  0  0
  -31.0837  -27.0086   20.7825 H   0  0  0  0  0  0
  -31.1448  -20.9333   17.4486 H   0  0  0  0  0  0
  -30.3759  -20.7056   18.9758 H   0  0  0  0  0  0
  -32.9241  -21.0906   19.9006 H   0  0  0  0  0  0
  -33.3106  -20.5600   18.2941 H   0  0  0  0  0  0
  -33.3085  -18.5674   19.5728 H   0  0  0  0  0  0
  -31.7653  -18.5070   18.7678 H   0  0  0  0  0  0
  -30.6851  -19.4439   20.8928 H   0  0  0  0  0  0
  -32.2530  -19.5113   21.6287 H   0  0  0  0  0  0
  -31.3717  -17.5057   22.4907 H   0  0  0  0  0  0
  -32.4031  -16.9435   21.2006 H   0  0  0  0  0  0
  -29.3560  -17.3630   21.0462 H   0  0  0  0  0  0
  -30.3330  -16.8894   19.6829 H   0  0  0  0  0  0
  -29.3698  -27.4104   18.2810 H   0  0  0  0  0  0
  -29.5542  -28.5138   19.6153 H   0  0  0  0  0  0
  -29.2096  -15.1802   21.5904 H   0  0  0  0  0  0
  1 25  1  0  0  0
  1 30  2  0  0  0
  1 87  1  0  0  0
  2  3  1  0  0  0
  2 25  1  0  0  0
  2 88  1  0  0  0
  2 89  1  0  0  0
  3  4  1  0  0  0
  3 90  1  0  0  0
  3 91  1  0  0  0
  4  5  1  0  0  0
  4 92  1  0  0  0
  4 93  1  0  0  0
  5  6  1  0  0  0
  5 26  1  0  0  0
  5 94  1  0  0  0
  6 25  1  0  0  0
  6 95  1  0  0  0
  6 96  1  0  0  0
  7  8  2  0  0  0
  7 26  1  0  0  0
  7 29  1  0  0  0
  8  9  1  0  0  0
  8 22  1  0  0  0
  9 10  1  0  0  0
  9 27  2  0  0  0
 10 11  2  0  0  0
 10 15  1  0  0  0
 11 12  1  0  0  0
 11 97  1  0  0  0
 12 13  2  0  0  0
 12 98  1  0  0  0
 13 14  1  0  0  0
 13 31  1  0  0  0
 14 15  2  0  0  0
 14 99  1  0  0  0
 15100  1  0  0  0
 16 17  2  0  0  0
 16 21  1  0  0  0
 16 31  1  0  0  0
 17 18  1  0  0  0
 17101  1  0  0  0
 18 19  2  0  0  0
 18102  1  0  0  0
 19 20  1  0  0  0
 19 24  1  0  0  0
 20 21  2  0  0  0
 20103  1  0  0  0
 21 23  1  0  0  0
 22 28  1  0  0  0
 22 32  2  0  0  0
 26 27  1  0  0  0
 28104  1  0  0  0
 28105  1  0  0  0
 29106  1  0  0  0
 29107  1  0  0  0
 33 34  1  0  0  0
 33 66  1  0  0  0
 33 70  2  0  0  0
 34 36  1  0  0  0
 34 59  1  0  0  0
 34108  1  0  0  0
 35 44  2  0  0  0
 35 45  1  0  0  0
 35 68  1  0  0  0
 36 56  1  0  0  0
 36109  1  0  0  0
 37 39  1  0  0  0
 37 47  1  0  0  0
 37 66  1  0  0  0
 37110  1  0  0  0
 38 43  2  0  0  0
 38 46  1  0  0  0
 38 47  1  0  0  0
 39 64  1  0  0  0
 39 67  2  0  0  0
 40 52  1  0  0  0
 40 53  2  0  0  0
 40 58  1  0  0  0
 41111  1  0  0  0
 41112  1  0  0  0
 41113  1  0  0  0
 41 48  1  0  0  0
 42 43  1  0  0  0
 42 66  1  0  0  0
 42114  1  0  0  0
 42115  1  0  0  0
 43 44  1  0  0  0
 44116  1  0  0  0
 45 46  2  0  0  0
 45117  1  0  0  0
 46118  1  0  0  0
 47119  1  0  0  0
 47120  1  0  0  0
 48 56  1  0  0  0
 48 65  1  0  0  0
 48121  1  0  0  0
 49 50  1  0  0  0
 49 53  1  0  0  0
 49 64  1  0  0  0
 49122  1  0  0  0
 50 51  1  0  0  0
 50123  1  0  0  0
 50124  1  0  0  0
 51 52  1  0  0  0
 51125  1  0  0  0
 51126  1  0  0  0
 52127  1  0  0  0
 52128  1  0  0  0
 53 54  1  0  0  0
 54 55  2  0  0  0
 54129  1  0  0  0
 55 57  1  0  0  0
 55130  1  0  0  0
 56 69  2  0  0  0
 57 58  2  0  0  0
 57131  1  0  0  0
 58132  1  0  0  0
 59 60  1  0  0  0
 59 61  1  0  0  0
 59 62  1  0  0  0
 60133  1  0  0  0
 60134  1  0  0  0
 60135  1  0  0  0
 61136  1  0  0  0
 61137  1  0  0  0
 61138  1  0  0  0
 62139  1  0  0  0
 62140  1  0  0  0
 62141  1  0  0  0
 63 65  1  0  0  0
 63142  1  0  0  0
 63143  1  0  0  0
 63144  1  0  0  0
 64145  1  0  0  0
 65146  1  0  0  0
 68 85  1  0  0  0
 71 72  2  0  0  0
 71 73  1  0  0  0
 71147  1  0  0  0
 72 74  1  0  0  0
 72 76  1  0  0  0
 73 75  2  0  0  0
 73 78  1  0  0  0
 74 79  1  0  0  0
 74 86  2  0  0  0
 75 77  1  0  0  0
 75 86  1  0  0  0
 76148  1  0  0  0
 76149  1  0  0  0
 76150  1  0  0  0
 77151  1  0  0  0
 77152  1  0  0  0
 77153  1  0  0  0
 78 85  1  0  0  0
 78154  1  0  0  0
 78155  1  0  0  0
 79 80  1  0  0  0
 79156  1  0  0  0
 79157  1  0  0  0
 80 81  1  0  0  0
 80158  1  0  0  0
 80159  1  0  0  0
 81 82  1  0  0  0
 81160  1  0  0  0
 81161  1  0  0  0
 82 83  1  0  0  0
 82162  1  0  0  0
 82163  1  0  0  0
 83 84  1  0  0  0
 83164  1  0  0  0
 83165  1  0  0  0
 84 87  1  0  0  0
 84166  1  0  0  0
 84167  1  0  0  0
 85168  1  0  0  0
 85169  1  0  0  0
 87170  1  0  0  0
M  ISO  4   1 100  68 101  85 101  87 100
M  END
> <chiral flag>
0

> <version>
0

> <s_m_source_file>
/data/baiqing/PycharmProjects/Reinvent-master-3.2/result/LINK_invent/BTK/process_docking_weight1_custom_sum_contain_oxygen_bond_distance_aromatic_linkinvent_7_9_3/rearranged_h_0038.sdf

> <i_m_source_file_index>
87

> <r_mmod_Potential_Energy-OPLS-2005>
-251.286331176758

> <r_mmod_Stretch_Energy-OPLS-2005>
32.8292388916016

> <r_mmod_Bend_Energy-OPLS-2005>
93.5661392211914

> <r_mmod_Torsional_Energy-OPLS-2005>
219.635360717773

> <r_mmod_Improper_Torsional_Energy-OPLS-2005>
5.29934692382812

> <r_mmod_Van_der_Waal_Energy-OPLS-2005>
154.778915405273

> <r_mmod_Electrostatic_Energy-OPLS-2005>
-543.825256347656

> <r_mmod_Solvation_Energy-OPLS-2005>
-221.988052368164

> <b_mmod_Minimization_Converged-OPLS-2005>
0

> <r_mmod_RMS_Derivative-OPLS-2005>
3.09475588798523

$$$$
90
                    3D
 Structure written by MMmdl.
179187  0  0  1  0            999 V2000
  -30.7921  -14.3135   20.7563 C   0  0  0  0  0  0
  -30.4079  -12.3085   19.3592 C   0  0  0  0  0  0
  -29.4658  -12.5504   18.1685 C   0  0  0  0  0  0
  -27.9950  -12.3903   18.5946 C   0  0  0  0  0  0
  -27.6590  -13.2018   19.8717 C   0  0  2  0  0  0
  -28.6954  -12.9248   20.9774 C   0  0  0  0  0  0
  -25.2568  -13.8146   20.5657 C   0  0  0  0  0  0
  -24.1812  -13.0436   20.9163 C   0  0  0  0  0  0
  -24.6346  -11.6896   20.8709 C   0  0  0  0  0  0
  -23.9009  -10.4283   21.0393 C   0  0  0  0  0  0
  -24.3582   -9.4206   21.9165 C   0  0  0  0  0  0
  -23.6271   -8.2241   22.0744 C   0  0  0  0  0  0
  -22.4252   -8.0266   21.3537 C   0  0  0  0  0  0
  -21.9875   -9.0232   20.4644 C   0  0  0  0  0  0
  -22.7188  -10.2117   20.3042 C   0  0  0  0  0  0
  -21.6845   -6.0713   22.5277 C   0  0  0  0  0  0
  -21.4022   -6.5623   23.8203 C   0  0  0  0  0  0
  -21.3660   -5.6781   24.9169 C   0  0  0  0  0  0
  -21.6042   -4.3048   24.7226 C   0  0  0  0  0  0
  -21.8820   -3.8132   23.4356 C   0  0  0  0  0  0
  -21.9197   -4.6946   22.3409 C   0  0  0  0  0  0
  -22.7841  -13.5239   21.1862 C   0  0  0  0  0  0
  -22.1659   -4.2128   21.0990 F   0  0  0  0  0  0
  -21.5628   -3.4539   25.7742 F   0  0  0  0  0  0
  -30.0368  -13.2317   20.4420 N   0  0  0  0  0  0
  -26.2996  -12.9312   20.3343 N   0  0  0  0  0  0
  -25.9265  -11.6469   20.5715 N   0  0  0  0  0  0
  -22.0482  -12.8219   22.0424 N   0  0  0  0  0  0
  -25.4336  -15.1868   20.4080 N   0  0  0  0  0  0
  -31.7981  -14.6460   20.1188 O   0  0  0  0  0  0
  -21.6636   -6.8854   21.4231 O   0  0  0  0  0  0
  -22.3527  -14.5545   20.6721 O   0  0  0  0  0  0
  -24.6113  -31.8708   23.2131 C   0  0  0  0  0  0
  -25.9020  -32.4859   23.8410 C   0  0  1  0  0  0
  -27.2422  -27.4845   20.0886 C   0  0  0  0  0  0
  -25.5924  -33.8648   24.2349 N   0  0  0  0  0  0
  -23.3972  -30.4923   21.5564 C   0  0  2  0  0  0
  -24.8441  -28.9673   20.1094 C   0  0  0  0  0  0
  -22.7412  -29.4665   22.5069 C   0  0  0  0  0  0
  -18.0263  -28.1366   22.8500 C   0  0  0  0  0  0
  -24.1505  -36.7304   23.2635 C   0  0  0  0  0  0
  -25.9131  -30.8643   21.3437 C   0  0  0  0  0  0
  -25.9968  -29.4981   20.6985 C   0  0  0  0  0  0
  -27.1992  -28.7656   20.6848 C   0  0  0  0  0  0
  -26.0821  -26.9639   19.4837 C   0  0  0  0  0  0
  -24.8795  -27.7012   19.4946 C   0  0  0  0  0  0
  -23.5976  -29.8208   20.1705 C   0  0  0  0  0  0
  -25.4132  -36.3136   24.0339 C   0  0  1  0  0  0
  -20.5866  -28.3627   23.1379 C   0  0  2  0  0  0
  -20.6769  -26.9382   22.5453 C   0  0  0  0  0  0
  -19.5743  -26.6388   21.5254 C   0  0  0  0  0  0
  -18.1899  -26.7913   22.1627 C   0  0  0  0  0  0
  -19.1520  -28.8804   23.2929 C   0  0  0  0  0  0
  -18.9448  -30.1404   23.8930 C   0  0  0  0  0  0
  -17.6457  -30.6568   24.0546 C   0  0  0  0  0  0
  -25.9075  -34.9495   23.5158 C   0  0  0  0  0  0
  -16.5342  -29.9057   23.6321 C   0  0  0  0  0  0
  -16.7255  -28.6484   23.0334 C   0  0  0  0  0  0
  -26.4447  -31.6616   25.0711 C   0  0  0  0  0  0
  -25.3698  -31.3681   26.1460 C   0  0  0  0  0  0
  -27.0252  -30.3107   24.5967 C   0  0  0  0  0  0
  -27.6111  -32.4285   25.7396 C   0  0  0  0  0  0
  -27.5605  -37.1766   24.8459 C   0  0  0  0  0  0
  -21.4165  -29.2986   22.3797 N   0  0  0  0  0  0
  -26.4307  -37.3824   23.9433 N   0  0  0  0  0  0
  -24.6615  -31.0850   22.1004 N   0  0  0  0  0  0
  -23.4187  -28.8253   23.3153 O   0  0  0  0  0  0
  -28.3940  -26.7381   20.0745 O   0  0  0  0  0  0
  -26.5613  -34.8926   22.4705 O   0  0  0  0  0  0
  -23.5322  -32.1411   23.7583 O   0  0  0  0  0  0
  -31.0315  -23.8706   22.0070 C   0  0  0  0  0  0
  -29.9733  -23.8076   19.8390 C   0  0  0  0  0  0
  -29.9473  -24.2119   21.1831 C   0  0  0  0  0  0
  -32.1205  -23.1737   21.4591 C   0  0  0  0  0  0
  -32.0750  -22.8317   20.0843 C   0  0  0  0  0  0
  -34.5596  -24.2348   18.8406 C   0  0  0  0  0  0
  -34.9895  -22.1083   17.5494 C   0  0  0  0  0  0
  -28.8225  -25.0539   21.7520 C   0  0  0  0  0  0
  -33.3124  -22.8765   22.3632 C   0  0  0  0  0  0
  -33.2170  -22.1048   19.3742 C   0  0  0  0  0  0
  -33.5174  -21.4010   22.7761 C   0  0  0  0  0  0
  -32.3803  -20.3949   22.4742 C   0  0  0  0  0  0
  -32.8516  -18.9451   22.6771 C   0  0  0  0  0  0
  -31.7529  -17.8725   22.5353 C   0  0  0  0  0  0
  -32.3465  -16.4560   22.6595 C   0  0  0  0  0  0
  -31.3449  -15.3296   22.9820 C   0  0  0  0  0  0
  -28.9725  -26.5307   21.3630 C   0  0  0  0  0  0
  -33.9298  -22.9445   18.2872 C   0  0  0  0  0  0
  -31.0063  -23.1196   19.3079 N   0  0  0  0  0  0
  -30.4449  -14.8913   21.9132 N   0  0  0  0  0  0
  -31.4463  -12.4290   19.0435 H   0  0  0  0  0  0
  -30.3238  -11.2764   19.7032 H   0  0  0  0  0  0
  -29.6946  -11.8615   17.3546 H   0  0  0  0  0  0
  -29.6248  -13.5557   17.7739 H   0  0  0  0  0  0
  -27.8069  -11.3302   18.7690 H   0  0  0  0  0  0
  -27.3338  -12.6859   17.7794 H   0  0  0  0  0  0
  -27.7204  -14.2591   19.6139 H   0  0  0  0  0  0
  -28.6607  -11.8732   21.2661 H   0  0  0  0  0  0
  -28.4303  -13.4779   21.8778 H   0  0  0  0  0  0
  -25.2721   -9.5697   22.4744 H   0  0  0  0  0  0
  -23.9980   -7.4636   22.7464 H   0  0  0  0  0  0
  -21.0801   -8.8733   19.8963 H   0  0  0  0  0  0
  -22.3616  -10.9650   19.6164 H   0  0  0  0  0  0
  -21.2011   -7.6129   23.9698 H   0  0  0  0  0  0
  -21.1485   -6.0518   25.9064 H   0  0  0  0  0  0
  -22.0601   -2.7597   23.2864 H   0  0  0  0  0  0
  -22.4077  -11.9863   22.4794 H   0  0  0  0  0  0
  -21.1117  -13.1276   22.2659 H   0  0  0  0  0  0
  -24.6776  -15.8542   20.5144 H   0  0  0  0  0  0
  -26.3006  -15.6156   20.1079 H   0  0  0  0  0  0
  -26.7097  -32.5626   23.1190 H   0  0  0  0  0  0
  -25.0098  -33.9820   25.0515 H   0  0  0  0  0  0
  -22.6871  -31.3110   21.4200 H   0  0  0  0  0  0
  -23.3810  -35.9586   23.3290 H   0  0  0  0  0  0
  -24.3607  -36.8942   22.2049 H   0  0  0  0  0  0
  -23.7211  -37.6482   23.6661 H   0  0  0  0  0  0
  -25.9937  -31.6297   20.5681 H   0  0  0  0  0  0
  -26.8124  -30.9409   21.9418 H   0  0  0  0  0  0
  -28.0914  -29.1863   21.1242 H   0  0  0  0  0  0
  -26.1156  -25.9905   19.0147 H   0  0  0  0  0  0
  -23.9934  -27.2993   19.0225 H   0  0  0  0  0  0
  -23.6754  -30.5919   19.4039 H   0  0  0  0  0  0
  -22.7270  -29.2248   19.8978 H   0  0  0  0  0  0
  -25.1288  -36.2001   25.0824 H   0  0  0  0  0  0
  -20.9920  -28.3170   24.1515 H   0  0  0  0  0  0
  -20.5748  -26.2213   23.3627 H   0  0  0  0  0  0
  -21.6629  -26.7468   22.1195 H   0  0  0  0  0  0
  -19.6936  -25.6333   21.1218 H   0  0  0  0  0  0
  -19.6700  -27.3243   20.6836 H   0  0  0  0  0  0
  -17.4210  -26.6728   21.3972 H   0  0  0  0  0  0
  -18.0212  -26.0027   22.8991 H   0  0  0  0  0  0
  -19.7922  -30.7208   24.2347 H   0  0  0  0  0  0
  -17.4989  -31.6254   24.5124 H   0  0  0  0  0  0
  -15.5321  -30.2936   23.7643 H   0  0  0  0  0  0
  -15.8680  -28.0805   22.7018 H   0  0  0  0  0  0
  -24.5969  -30.6939   25.7776 H   0  0  0  0  0  0
  -24.8728  -32.2768   26.4860 H   0  0  0  0  0  0
  -25.8008  -30.8904   27.0270 H   0  0  0  0  0  0
  -26.2727  -29.6857   24.1150 H   0  0  0  0  0  0
  -27.4258  -29.7366   25.4332 H   0  0  0  0  0  0
  -27.8440  -30.4537   23.8915 H   0  0  0  0  0  0
  -27.2925  -33.3674   26.1924 H   0  0  0  0  0  0
  -28.3879  -32.6689   25.0131 H   0  0  0  0  0  0
  -28.0799  -31.8404   26.5286 H   0  0  0  0  0  0
  -28.2599  -38.0087   24.7595 H   0  0  0  0  0  0
  -28.1100  -36.2620   24.6168 H   0  0  0  0  0  0
  -27.2306  -37.1311   25.8850 H   0  0  0  0  0  0
  -20.9352  -29.8665   21.6973 H   0  0  0  0  0  0
  -26.0207  -38.2892   24.1487 H   0  0  0  0  0  0
  -31.0398  -24.1775   23.0419 H   0  0  0  0  0  0
  -29.1591  -24.0519   19.1703 H   0  0  0  0  0  0
  -35.0028  -24.8301   18.0406 H   0  0  0  0  0  0
  -35.3462  -24.0156   19.5629 H   0  0  0  0  0  0
  -33.8175  -24.8650   19.3340 H   0  0  0  0  0  0
  -35.4399  -22.6757   16.7321 H   0  0  0  0  0  0
  -34.5548  -21.2038   17.1205 H   0  0  0  0  0  0
  -35.7925  -21.8018   18.2208 H   0  0  0  0  0  0
  -28.8437  -24.9667   22.8407 H   0  0  0  0  0  0
  -27.8530  -24.6667   21.4357 H   0  0  0  0  0  0
  -33.2107  -23.4751   23.2696 H   0  0  0  0  0  0
  -34.2151  -23.2631   21.8865 H   0  0  0  0  0  0
  -32.8107  -21.1949   18.9282 H   0  0  0  0  0  0
  -33.9582  -21.7614   20.0935 H   0  0  0  0  0  0
  -33.7368  -21.3742   23.8451 H   0  0  0  0  0  0
  -34.4356  -21.0573   22.3011 H   0  0  0  0  0  0
  -32.0268  -20.4914   21.4494 H   0  0  0  0  0  0
  -31.5263  -20.6148   23.1148 H   0  0  0  0  0  0
  -33.3020  -18.8622   23.6677 H   0  0  0  0  0  0
  -33.6502  -18.7380   21.9612 H   0  0  0  0  0  0
  -31.2427  -17.9709   21.5770 H   0  0  0  0  0  0
  -30.9990  -18.0296   23.3086 H   0  0  0  0  0  0
  -33.0687  -16.4648   23.4773 H   0  0  0  0  0  0
  -32.9311  -16.2176   21.7717 H   0  0  0  0  0  0
  -30.7347  -15.6145   23.8412 H   0  0  0  0  0  0
  -31.9035  -14.4515   23.3074 H   0  0  0  0  0  0
  -30.0229  -26.8271   21.3523 H   0  0  0  0  0  0
  -28.5050  -27.1354   22.1400 H   0  0  0  0  0  0
  -33.1764  -23.2325   17.5523 H   0  0  0  0  0  0
  -29.5400  -14.5845   22.2422 H   0  0  0  0  0  0
  1 25  1  0  0  0
  1 30  2  0  0  0
  1 90  1  0  0  0
  2  3  1  0  0  0
  2 25  1  0  0  0
  2 91  1  0  0  0
  2 92  1  0  0  0
  3  4  1  0  0  0
  3 93  1  0  0  0
  3 94  1  0  0  0
  4  5  1  0  0  0
  4 95  1  0  0  0
  4 96  1  0  0  0
  5  6  1  0  0  0
  5 26  1  0  0  0
  5 97  1  0  0  0
  6 25  1  0  0  0
  6 98  1  0  0  0
  6 99  1  0  0  0
  7  8  2  0  0  0
  7 26  1  0  0  0
  7 29  1  0  0  0
  8  9  1  0  0  0
  8 22  1  0  0  0
  9 10  1  0  0  0
  9 27  2  0  0  0
 10 11  2  0  0  0
 10 15  1  0  0  0
 11 12  1  0  0  0
 11100  1  0  0  0
 12 13  2  0  0  0
 12101  1  0  0  0
 13 14  1  0  0  0
 13 31  1  0  0  0
 14 15  2  0  0  0
 14102  1  0  0  0
 15103  1  0  0  0
 16 17  2  0  0  0
 16 21  1  0  0  0
 16 31  1  0  0  0
 17 18  1  0  0  0
 17104  1  0  0  0
 18 19  2  0  0  0
 18105  1  0  0  0
 19 20  1  0  0  0
 19 24  1  0  0  0
 20 21  2  0  0  0
 20106  1  0  0  0
 21 23  1  0  0  0
 22 28  1  0  0  0
 22 32  2  0  0  0
 26 27  1  0  0  0
 28107  1  0  0  0
 28108  1  0  0  0
 29109  1  0  0  0
 29110  1  0  0  0
 33 34  1  0  0  0
 33 66  1  0  0  0
 33 70  2  0  0  0
 34 36  1  0  0  0
 34 59  1  0  0  0
 34111  1  0  0  0
 35 44  2  0  0  0
 35 45  1  0  0  0
 35 68  1  0  0  0
 36 56  1  0  0  0
 36112  1  0  0  0
 37 39  1  0  0  0
 37 47  1  0  0  0
 37 66  1  0  0  0
 37113  1  0  0  0
 38 43  2  0  0  0
 38 46  1  0  0  0
 38 47  1  0  0  0
 39 64  1  0  0  0
 39 67  2  0  0  0
 40 52  1  0  0  0
 40 53  2  0  0  0
 40 58  1  0  0  0
 41114  1  0  0  0
 41115  1  0  0  0
 41116  1  0  0  0
 41 48  1  0  0  0
 42 43  1  0  0  0
 42 66  1  0  0  0
 42117  1  0  0  0
 42118  1  0  0  0
 43 44  1  0  0  0
 44119  1  0  0  0
 45 46  2  0  0  0
 45120  1  0  0  0
 46121  1  0  0  0
 47122  1  0  0  0
 47123  1  0  0  0
 48 56  1  0  0  0
 48 65  1  0  0  0
 48124  1  0  0  0
 49 50  1  0  0  0
 49 53  1  0  0  0
 49 64  1  0  0  0
 49125  1  0  0  0
 50 51  1  0  0  0
 50126  1  0  0  0
 50127  1  0  0  0
 51 52  1  0  0  0
 51128  1  0  0  0
 51129  1  0  0  0
 52130  1  0  0  0
 52131  1  0  0  0
 53 54  1  0  0  0
 54 55  2  0  0  0
 54132  1  0  0  0
 55 57  1  0  0  0
 55133  1  0  0  0
 56 69  2  0  0  0
 57 58  2  0  0  0
 57134  1  0  0  0
 58135  1  0  0  0
 59 60  1  0  0  0
 59 61  1  0  0  0
 59 62  1  0  0  0
 60136  1  0  0  0
 60137  1  0  0  0
 60138  1  0  0  0
 61139  1  0  0  0
 61140  1  0  0  0
 61141  1  0  0  0
 62142  1  0  0  0
 62143  1  0  0  0
 62144  1  0  0  0
 63 65  1  0  0  0
 63145  1  0  0  0
 63146  1  0  0  0
 63147  1  0  0  0
 64148  1  0  0  0
 65149  1  0  0  0
 68 87  1  0  0  0
 71 73  2  0  0  0
 71 74  1  0  0  0
 71150  1  0  0  0
 72 73  1  0  0  0
 72 89  2  0  0  0
 72151  1  0  0  0
 73 78  1  0  0  0
 74 75  2  0  0  0
 74 79  1  0  0  0
 75 80  1  0  0  0
 75 89  1  0  0  0
 76152  1  0  0  0
 76153  1  0  0  0
 76154  1  0  0  0
 76 88  1  0  0  0
 77 88  1  0  0  0
 77155  1  0  0  0
 77156  1  0  0  0
 77157  1  0  0  0
 78 87  1  0  0  0
 78158  1  0  0  0
 78159  1  0  0  0
 79 81  1  0  0  0
 79160  1  0  0  0
 79161  1  0  0  0
 80 88  1  0  0  0
 80162  1  0  0  0
 80163  1  0  0  0
 81 82  1  0  0  0
 81164  1  0  0  0
 81165  1  0  0  0
 82 83  1  0  0  0
 82166  1  0  0  0
 82167  1  0  0  0
 83 84  1  0  0  0
 83168  1  0  0  0
 83169  1  0  0  0
 84 85  1  0  0  0
 84170  1  0  0  0
 84171  1  0  0  0
 85 86  1  0  0  0
 85172  1  0  0  0
 85173  1  0  0  0
 86 90  1  0  0  0
 86174  1  0  0  0
 86175  1  0  0  0
 87176  1  0  0  0
 87177  1  0  0  0
 88178  1  0  0  0
 90179  1  0  0  0
M  ISO  4   1 100  68 101  87 101  90 100
M  END
> <chiral flag>
0

> <version>
0

> <s_m_source_file>
/data/baiqing/PycharmProjects/Reinvent-master-3.2/result/LINK_invent/BTK/process_docking_weight1_custom_sum_contain_oxygen_bond_distance_aromatic_linkinvent_7_9_3/rearranged_h_0038.sdf

> <i_m_source_file_index>
88

> <r_mmod_Potential_Energy-OPLS-2005>
-161.393844604492

> <r_mmod_Stretch_Energy-OPLS-2005>
32.4946174621582

> <r_mmod_Bend_Energy-OPLS-2005>
106.433860778809

> <r_mmod_Torsional_Energy-OPLS-2005>
240.994201660156

> <r_mmod_Improper_Torsional_Energy-OPLS-2005>
5.27507019042969

> <r_mmod_Van_der_Waal_Energy-OPLS-2005>
156.525177001953

> <r_mmod_Electrostatic_Energy-OPLS-2005>
-495.290649414062

> <r_mmod_Solvation_Energy-OPLS-2005>
-216.420959472656

> <b_mmod_Minimization_Converged-OPLS-2005>
0

> <r_mmod_RMS_Derivative-OPLS-2005>
4.22512865066528

$$$$
91
                    3D
 Structure written by MMmdl.
164172  0  0  1  0            999 V2000
  -30.6872  -14.5043   20.5319 C   0  0  0  0  0  0
  -30.4256  -12.3161   19.4417 C   0  0  0  0  0  0
  -29.5019  -12.4870   18.2209 C   0  0  0  0  0  0
  -28.0213  -12.3568   18.6290 C   0  0  0  0  0  0
  -27.6591  -13.2107   19.8767 C   0  0  2  0  0  0
  -28.7035  -13.0293   21.0014 C   0  0  0  0  0  0
  -25.2561  -13.8162   20.5668 C   0  0  0  0  0  0
  -24.1832  -13.0414   20.9182 C   0  0  0  0  0  0
  -24.6402  -11.6894   20.8714 C   0  0  0  0  0  0
  -23.9063  -10.4288   21.0358 C   0  0  0  0  0  0
  -24.3612   -9.4207   21.9142 C   0  0  0  0  0  0
  -23.6290   -8.2248   22.0709 C   0  0  0  0  0  0
  -22.4269   -8.0277   21.3508 C   0  0  0  0  0  0
  -21.9908   -9.0258   20.4605 C   0  0  0  0  0  0
  -22.7238  -10.2140   20.3021 C   0  0  0  0  0  0
  -21.6885   -6.0763   22.5282 C   0  0  0  0  0  0
  -21.4015   -6.5638   23.8225 C   0  0  0  0  0  0
  -21.3657   -5.6774   24.9170 C   0  0  0  0  0  0
  -21.6065   -4.3041   24.7196 C   0  0  0  0  0  0
  -21.8828   -3.8155   23.4307 C   0  0  0  0  0  0
  -21.9180   -4.6977   22.3375 C   0  0  0  0  0  0
  -22.7836  -13.5182   21.1828 C   0  0  0  0  0  0
  -22.1627   -4.2153   21.0951 F   0  0  0  0  0  0
  -21.5624   -3.4527   25.7723 F   0  0  0  0  0  0
  -30.0280  -13.3208   20.4404 N   0  0  0  0  0  0
  -26.3012  -12.9354   20.3392 N   0  0  0  0  0  0
  -25.9354  -11.6507   20.5816 N   0  0  0  0  0  0
  -22.0474  -12.8208   22.0397 N   0  0  0  0  0  0
  -25.4207  -15.1918   20.4067 N   0  0  0  0  0  0
  -31.8497  -14.6432   20.1409 O   0  0  0  0  0  0
  -21.6613   -6.8896   21.4255 O   0  0  0  0  0  0
  -22.3517  -14.5501   20.6663 O   0  0  0  0  0  0
  -24.6077  -31.8731   23.2125 C   0  0  0  0  0  0
  -25.9003  -32.4859   23.8405 C   0  0  1  0  0  0
  -27.2428  -27.4913   20.1310 C   0  0  0  0  0  0
  -25.5865  -33.8652   24.2343 N   0  0  0  0  0  0
  -23.3957  -30.4949   21.5480 C   0  0  2  0  0  0
  -24.8476  -28.9673   20.1167 C   0  0  0  0  0  0
  -22.7394  -29.4666   22.4973 C   0  0  0  0  0  0
  -18.0259  -28.1398   22.8495 C   0  0  0  0  0  0
  -24.1485  -36.7321   23.2644 C   0  0  0  0  0  0
  -25.9140  -30.8656   21.3515 C   0  0  0  0  0  0
  -25.9986  -29.4998   20.7105 C   0  0  0  0  0  0
  -27.2007  -28.7722   20.7163 C   0  0  0  0  0  0
  -26.0804  -26.9504   19.5477 C   0  0  0  0  0  0
  -24.8797  -27.6870   19.5300 C   0  0  0  0  0  0
  -23.6077  -29.8281   20.1603 C   0  0  0  0  0  0
  -25.4108  -36.3133   24.0341 C   0  0  1  0  0  0
  -20.5853  -28.3669   23.1337 C   0  0  2  0  0  0
  -20.6738  -26.9404   22.5427 C   0  0  0  0  0  0
  -19.5713  -26.6399   21.5219 C   0  0  0  0  0  0
  -18.1902  -26.7938   22.1640 C   0  0  0  0  0  0
  -19.1519  -28.8841   23.2916 C   0  0  0  0  0  0
  -18.9442  -30.1448   23.8933 C   0  0  0  0  0  0
  -17.6452  -30.6591   24.0581 C   0  0  0  0  0  0
  -25.9026  -34.9495   23.5144 C   0  0  0  0  0  0
  -16.5338  -29.9114   23.6318 C   0  0  0  0  0  0
  -16.7255  -28.6530   23.0326 C   0  0  0  0  0  0
  -26.4445  -31.6624   25.0708 C   0  0  0  0  0  0
  -25.3718  -31.3725   26.1464 C   0  0  0  0  0  0
  -27.0277  -30.3088   24.6022 C   0  0  0  0  0  0
  -27.6047  -32.4321   25.7450 C   0  0  0  0  0  0
  -27.5579  -37.1815   24.8470 C   0  0  0  0  0  0
  -21.4121  -29.3050   22.3752 N   0  0  0  0  0  0
  -26.4307  -37.3800   23.9397 N   0  0  0  0  0  0
  -24.6581  -31.0902   22.0977 N   0  0  0  0  0  0
  -23.4198  -28.8205   23.2984 O   0  0  0  0  0  0
  -28.3826  -26.7368   20.1439 O   0  0  0  0  0  0
  -26.5603  -34.8940   22.4713 O   0  0  0  0  0  0
  -23.5297  -32.1434   23.7557 O   0  0  0  0  0  0
  -28.6722  -25.4511   17.5174 C   0  0  0  0  0  0
  -30.0122  -23.8326   18.6990 C   0  0  0  0  0  0
  -29.7274  -25.1796   18.4090 C   0  0  0  0  0  0
  -27.9143  -24.3863   17.0066 C   0  0  0  0  0  0
  -29.2268  -22.8172   18.1198 C   0  0  0  0  0  0
  -26.7437  -24.6852   16.0890 C   0  0  0  0  0  0
  -30.4917  -26.2970   19.1117 C   0  0  0  0  0  0
  -29.6424  -21.3595   18.2942 C   0  0  0  0  0  0
  -28.9221  -20.4888   19.3645 C   0  0  0  0  0  0
  -29.7089  -19.1498   19.4559 C   0  0  0  0  0  0
  -29.2746  -18.0527   20.4654 C   0  0  0  0  0  0
  -30.3911  -16.9665   20.5591 C   0  0  0  0  0  0
  -29.5641  -27.3830   19.6846 C   0  0  0  0  0  0
  -28.1804  -23.0883   17.2985 N   0  0  0  0  0  0
  -29.9393  -15.5878   20.8382 N   0  0  0  0  0  0
  -31.4652  -12.4212   19.1351 H   0  0  0  0  0  0
  -30.3379  -11.3117   19.8614 H   0  0  0  0  0  0
  -29.7385  -11.7416   17.4628 H   0  0  0  0  0  0
  -29.6808  -13.4578   17.7598 H   0  0  0  0  0  0
  -27.8309  -11.3012   18.8275 H   0  0  0  0  0  0
  -27.3789  -12.6236   17.7926 H   0  0  0  0  0  0
  -27.6869  -14.2535   19.5688 H   0  0  0  0  0  0
  -28.6884  -12.0079   21.3809 H   0  0  0  0  0  0
  -28.4729  -13.6668   21.8560 H   0  0  0  0  0  0
  -25.2736   -9.5690   22.4721 H   0  0  0  0  0  0
  -23.9995   -7.4656   22.7436 H   0  0  0  0  0  0
  -21.0841   -8.8808   19.8904 H   0  0  0  0  0  0
  -22.3688  -10.9705   19.6141 H   0  0  0  0  0  0
  -21.1992   -7.6152   23.9736 H   0  0  0  0  0  0
  -21.1464   -6.0476   25.9088 H   0  0  0  0  0  0
  -22.0603   -2.7618   23.2799 H   0  0  0  0  0  0
  -22.4080  -11.9893   22.4870 H   0  0  0  0  0  0
  -21.1094  -13.1305   22.2519 H   0  0  0  0  0  0
  -24.6580  -15.8416   20.5551 H   0  0  0  0  0  0
  -26.2672  -15.6567   20.0994 H   0  0  0  0  0  0
  -26.7098  -32.5612   23.1210 H   0  0  0  0  0  0
  -24.9974  -33.9816   25.0458 H   0  0  0  0  0  0
  -22.6810  -31.3082   21.4090 H   0  0  0  0  0  0
  -23.3731  -35.9675   23.3369 H   0  0  0  0  0  0
  -24.3567  -36.8862   22.2043 H   0  0  0  0  0  0
  -23.7264  -37.6558   23.6609 H   0  0  0  0  0  0
  -26.0064  -31.6262   20.5751 H   0  0  0  0  0  0
  -26.8100  -30.9352   21.9557 H   0  0  0  0  0  0
  -28.0848  -29.1825   21.1844 H   0  0  0  0  0  0
  -26.1119  -25.9625   19.1097 H   0  0  0  0  0  0
  -23.9949  -27.2646   19.0763 H   0  0  0  0  0  0
  -23.7272  -30.6074   19.4064 H   0  0  0  0  0  0
  -22.7332  -29.2519   19.8545 H   0  0  0  0  0  0
  -25.1296  -36.2003   25.0837 H   0  0  0  0  0  0
  -20.9945  -28.3217   24.1451 H   0  0  0  0  0  0
  -20.5621  -26.2274   23.3611 H   0  0  0  0  0  0
  -21.6609  -26.7424   22.1228 H   0  0  0  0  0  0
  -19.6870  -25.6315   21.1227 H   0  0  0  0  0  0
  -19.6658  -27.3230   20.6765 H   0  0  0  0  0  0
  -17.4162  -26.6681   21.4050 H   0  0  0  0  0  0
  -18.0309  -26.0084   22.9043 H   0  0  0  0  0  0
  -19.7921  -30.7250   24.2322 H   0  0  0  0  0  0
  -17.5007  -31.6271   24.5193 H   0  0  0  0  0  0
  -15.5346  -30.3035   23.7607 H   0  0  0  0  0  0
  -15.8649  -28.0876   22.7007 H   0  0  0  0  0  0
  -24.5854  -30.7129   25.7769 H   0  0  0  0  0  0
  -24.8958  -32.2904   26.4937 H   0  0  0  0  0  0
  -25.8059  -30.8839   27.0201 H   0  0  0  0  0  0
  -26.2812  -29.6844   24.1107 H   0  0  0  0  0  0
  -27.4132  -29.7308   25.4430 H   0  0  0  0  0  0
  -27.8590  -30.4437   23.9098 H   0  0  0  0  0  0
  -27.2696  -33.3607   26.2076 H   0  0  0  0  0  0
  -28.3825  -32.6909   25.0253 H   0  0  0  0  0  0
  -28.0759  -31.8419   26.5316 H   0  0  0  0  0  0
  -28.2636  -38.0072   24.7490 H   0  0  0  0  0  0
  -28.1039  -36.2613   24.6347 H   0  0  0  0  0  0
  -27.2294  -37.1522   25.8872 H   0  0  0  0  0  0
  -20.9260  -29.8845   21.7057 H   0  0  0  0  0  0
  -26.0207  -38.2887   24.1376 H   0  0  0  0  0  0
  -28.3988  -26.4714   17.2783 H   0  0  0  0  0  0
  -30.8293  -23.5835   19.3590 H   0  0  0  0  0  0
  -26.9497  -25.5806   15.4966 H   0  0  0  0  0  0
  -25.8426  -24.8784   16.6748 H   0  0  0  0  0  0
  -26.5518  -23.8692   15.3934 H   0  0  0  0  0  0
  -31.2212  -26.7411   18.4326 H   0  0  0  0  0  0
  -31.0618  -25.8669   19.9360 H   0  0  0  0  0  0
  -30.7111  -21.3638   18.5223 H   0  0  0  0  0  0
  -29.5713  -20.8740   17.3207 H   0  0  0  0  0  0
  -27.8776  -20.3212   19.0879 H   0  0  0  0  0  0
  -28.9045  -20.9964   20.3322 H   0  0  0  0  0  0
  -30.7587  -19.3915   19.6533 H   0  0  0  0  0  0
  -29.6926  -18.7027   18.4576 H   0  0  0  0  0  0
  -28.3128  -17.6342   20.1557 H   0  0  0  0  0  0
  -29.1132  -18.4904   21.4531 H   0  0  0  0  0  0
  -31.1331  -17.2616   21.3095 H   0  0  0  0  0  0
  -30.9317  -16.9523   19.6068 H   0  0  0  0  0  0
  -29.3189  -28.1080   18.9060 H   0  0  0  0  0  0
  -30.0519  -27.9267   20.4955 H   0  0  0  0  0  0
  -28.9778  -15.4407   21.1085 H   0  0  0  0  0  0
  1 25  1  0  0  0
  1 30  2  0  0  0
  1 85  1  0  0  0
  2  3  1  0  0  0
  2 25  1  0  0  0
  2 86  1  0  0  0
  2 87  1  0  0  0
  3  4  1  0  0  0
  3 88  1  0  0  0
  3 89  1  0  0  0
  4  5  1  0  0  0
  4 90  1  0  0  0
  4 91  1  0  0  0
  5  6  1  0  0  0
  5 26  1  0  0  0
  5 92  1  0  0  0
  6 25  1  0  0  0
  6 93  1  0  0  0
  6 94  1  0  0  0
  7  8  2  0  0  0
  7 26  1  0  0  0
  7 29  1  0  0  0
  8  9  1  0  0  0
  8 22  1  0  0  0
  9 10  1  0  0  0
  9 27  2  0  0  0
 10 11  2  0  0  0
 10 15  1  0  0  0
 11 12  1  0  0  0
 11 95  1  0  0  0
 12 13  2  0  0  0
 12 96  1  0  0  0
 13 14  1  0  0  0
 13 31  1  0  0  0
 14 15  2  0  0  0
 14 97  1  0  0  0
 15 98  1  0  0  0
 16 17  2  0  0  0
 16 21  1  0  0  0
 16 31  1  0  0  0
 17 18  1  0  0  0
 17 99  1  0  0  0
 18 19  2  0  0  0
 18100  1  0  0  0
 19 20  1  0  0  0
 19 24  1  0  0  0
 20 21  2  0  0  0
 20101  1  0  0  0
 21 23  1  0  0  0
 22 28  1  0  0  0
 22 32  2  0  0  0
 26 27  1  0  0  0
 28102  1  0  0  0
 28103  1  0  0  0
 29104  1  0  0  0
 29105  1  0  0  0
 33 34  1  0  0  0
 33 66  1  0  0  0
 33 70  2  0  0  0
 34 36  1  0  0  0
 34 59  1  0  0  0
 34106  1  0  0  0
 35 44  2  0  0  0
 35 45  1  0  0  0
 35 68  1  0  0  0
 36 56  1  0  0  0
 36107  1  0  0  0
 37 39  1  0  0  0
 37 47  1  0  0  0
 37 66  1  0  0  0
 37108  1  0  0  0
 38 43  2  0  0  0
 38 46  1  0  0  0
 38 47  1  0  0  0
 39 64  1  0  0  0
 39 67  2  0  0  0
 40 52  1  0  0  0
 40 53  2  0  0  0
 40 58  1  0  0  0
 41109  1  0  0  0
 41110  1  0  0  0
 41111  1  0  0  0
 41 48  1  0  0  0
 42 43  1  0  0  0
 42 66  1  0  0  0
 42112  1  0  0  0
 42113  1  0  0  0
 43 44  1  0  0  0
 44114  1  0  0  0
 45 46  2  0  0  0
 45115  1  0  0  0
 46116  1  0  0  0
 47117  1  0  0  0
 47118  1  0  0  0
 48 56  1  0  0  0
 48 65  1  0  0  0
 48119  1  0  0  0
 49 50  1  0  0  0
 49 53  1  0  0  0
 49 64  1  0  0  0
 49120  1  0  0  0
 50 51  1  0  0  0
 50121  1  0  0  0
 50122  1  0  0  0
 51 52  1  0  0  0
 51123  1  0  0  0
 51124  1  0  0  0
 52125  1  0  0  0
 52126  1  0  0  0
 53 54  1  0  0  0
 54 55  2  0  0  0
 54127  1  0  0  0
 55 57  1  0  0  0
 55128  1  0  0  0
 56 69  2  0  0  0
 57 58  2  0  0  0
 57129  1  0  0  0
 58130  1  0  0  0
 59 60  1  0  0  0
 59 61  1  0  0  0
 59 62  1  0  0  0
 60131  1  0  0  0
 60132  1  0  0  0
 60133  1  0  0  0
 61134  1  0  0  0
 61135  1  0  0  0
 61136  1  0  0  0
 62137  1  0  0  0
 62138  1  0  0  0
 62139  1  0  0  0
 63 65  1  0  0  0
 63140  1  0  0  0
 63141  1  0  0  0
 63142  1  0  0  0
 64143  1  0  0  0
 65144  1  0  0  0
 68 83  1  0  0  0
 71 73  2  0  0  0
 71 74  1  0  0  0
 71145  1  0  0  0
 72 73  1  0  0  0
 72 75  2  0  0  0
 72146  1  0  0  0
 73 77  1  0  0  0
 74 76  1  0  0  0
 74 84  2  0  0  0
 75 78  1  0  0  0
 75 84  1  0  0  0
 76147  1  0  0  0
 76148  1  0  0  0
 76149  1  0  0  0
 77 83  1  0  0  0
 77150  1  0  0  0
 77151  1  0  0  0
 78 79  1  0  0  0
 78152  1  0  0  0
 78153  1  0  0  0
 79 80  1  0  0  0
 79154  1  0  0  0
 79155  1  0  0  0
 80 81  1  0  0  0
 80156  1  0  0  0
 80157  1  0  0  0
 81 82  1  0  0  0
 81158  1  0  0  0
 81159  1  0  0  0
 82 85  1  0  0  0
 82160  1  0  0  0
 82161  1  0  0  0
 83162  1  0  0  0
 83163  1  0  0  0
 85164  1  0  0  0
M  ISO  4   1 100  68 101  83 101  85 100
M  END
> <chiral flag>
0

> <version>
0

> <s_m_source_file>
/data/baiqing/PycharmProjects/Reinvent-master-3.2/result/LINK_invent/BTK/process_docking_weight1_custom_sum_contain_oxygen_bond_distance_aromatic_linkinvent_7_9_3/rearranged_h_0038.sdf

> <i_m_source_file_index>
89

> <r_mmod_Potential_Energy-OPLS-2005>
-180.428283691406

> <r_mmod_Stretch_Energy-OPLS-2005>
35.810546875

> <r_mmod_Bend_Energy-OPLS-2005>
103.886695861816

> <r_mmod_Torsional_Energy-OPLS-2005>
218.271484375

> <r_mmod_Improper_Torsional_Energy-OPLS-2005>
6.56940507888794

> <r_mmod_Van_der_Waal_Energy-OPLS-2005>
156.337539672852

> <r_mmod_Electrostatic_Energy-OPLS-2005>
-494.025939941406

> <r_mmod_Solvation_Energy-OPLS-2005>
-223.222045898438

> <b_mmod_Minimization_Converged-OPLS-2005>
0

> <r_mmod_RMS_Derivative-OPLS-2005>
5.81289291381836

$$$$
92
                    3D
 Structure written by MMmdl.
175183  0  0  1  0            999 V2000
  -30.1849  -14.8468   20.7020 C   0  0  0  0  0  0
  -30.4372  -12.5876   19.5223 C   0  0  0  0  0  0
  -29.5176  -12.5673   18.2704 C   0  0  0  0  0  0
  -28.0371  -12.3247   18.6421 C   0  0  0  0  0  0
  -27.6064  -13.1778   19.8605 C   0  0  2  0  0  0
  -28.5969  -12.9805   21.0182 C   0  0  0  0  0  0
  -25.2306  -13.7971   20.5506 C   0  0  0  0  0  0
  -24.1630  -13.0301   20.9183 C   0  0  0  0  0  0
  -24.6196  -11.6768   20.8769 C   0  0  0  0  0  0
  -23.8917  -10.4190   21.0457 C   0  0  0  0  0  0
  -24.3540   -9.4111   21.9205 C   0  0  0  0  0  0
  -23.6239   -8.2141   22.0748 C   0  0  0  0  0  0
  -22.4220   -8.0209   21.3534 C   0  0  0  0  0  0
  -21.9827   -9.0159   20.4628 C   0  0  0  0  0  0
  -22.7126  -10.2045   20.3057 C   0  0  0  0  0  0
  -21.6811   -6.0696   22.5281 C   0  0  0  0  0  0
  -21.3983   -6.5613   23.8210 C   0  0  0  0  0  0
  -21.3665   -5.6770   24.9172 C   0  0  0  0  0  0
  -21.6054   -4.3038   24.7225 C   0  0  0  0  0  0
  -21.8825   -3.8126   23.4348 C   0  0  0  0  0  0
  -21.9172   -4.6933   22.3399 C   0  0  0  0  0  0
  -22.7705  -13.5156   21.1901 C   0  0  0  0  0  0
  -22.1646   -4.2120   21.0976 F   0  0  0  0  0  0
  -21.5648   -3.4532   25.7748 F   0  0  0  0  0  0
  -29.8569  -13.5192   20.5320 N   0  0  0  0  0  0
  -26.2595  -12.9061   20.3059 N   0  0  0  0  0  0
  -25.9049  -11.6271   20.5628 N   0  0  0  0  0  0
  -22.0364  -12.8168   22.0482 N   0  0  0  0  0  0
  -25.4059  -15.1640   20.3815 N   0  0  0  0  0  0
  -31.3272  -15.1987   20.3398 O   0  0  0  0  0  0
  -21.6591   -6.8821   21.4236 O   0  0  0  0  0  0
  -22.3413  -14.5477   20.6758 O   0  0  0  0  0  0
  -24.6659  -31.9440   23.2136 C   0  0  0  0  0  0
  -25.9532  -32.5114   23.8598 C   0  0  1  0  0  0
  -26.8305  -27.3884   20.0673 C   0  0  0  0  0  0
  -25.6374  -33.8853   24.2588 N   0  0  0  0  0  0
  -23.4758  -30.6093   21.5531 C   0  0  2  0  0  0
  -24.8725  -29.2227   19.9069 C   0  0  0  0  0  0
  -23.0275  -29.5698   22.5784 C   0  0  0  0  0  0
  -17.9673  -27.9229   22.6991 C   0  0  0  0  0  0
  -24.1514  -36.7374   23.2605 C   0  0  0  0  0  0
  -25.9974  -30.8617   21.4109 C   0  0  0  0  0  0
  -25.9937  -29.5380   20.6791 C   0  0  0  0  0  0
  -27.0595  -28.6196   20.7220 C   0  0  0  0  0  0
  -26.0981  -27.3731   18.9070 C   0  0  0  0  0  0
  -24.9931  -28.2344   18.9092 C   0  0  0  0  0  0
  -23.6288  -30.0453   20.1114 C   0  0  0  0  0  0
  -25.4134  -36.3231   24.0345 C   0  0  1  0  0  0
  -21.3036  -28.4570   23.7258 C   0  0  2  0  0  0
  -22.1697  -26.3962   22.7630 C   0  0  0  0  0  0
  -20.4037  -25.2434   21.1830 C   0  0  0  0  0  0
  -18.1301  -26.2083   21.3461 C   0  0  0  0  0  0
  -19.2425  -28.8300   23.5246 C   0  0  0  0  0  0
  -18.8882  -30.0874   24.0435 C   0  0  0  0  0  0
  -17.5676  -30.5532   24.0445 C   0  0  0  0  0  0
  -25.9142  -34.9631   23.5153 C   0  0  0  0  0  0
  -16.5137  -29.7771   23.5280 C   0  0  0  0  0  0
  -16.7014  -28.5278   22.8815 C   0  0  0  0  0  0
  -26.4588  -31.6664   25.0905 C   0  0  0  0  0  0
  -25.3687  -31.3803   26.1493 C   0  0  0  0  0  0
  -27.0350  -30.3053   24.6347 C   0  0  0  0  0  0
  -27.6145  -32.4252   25.7818 C   0  0  0  0  0  0
  -27.5600  -37.1898   24.8464 C   0  0  0  0  0  0
  -21.7728  -29.5730   22.9267 N   0  0  0  0  0  0
  -26.4306  -37.3924   23.9424 N   0  0  0  0  0  0
  -24.7267  -31.1941   22.0798 N   0  0  0  0  0  0
  -23.8209  -28.8418   23.1681 O   0  0  0  0  0  0
  -26.1179  -26.5234   20.8410 O   0  0  0  0  0  0
  -26.5525  -34.9030   22.4601 O   0  0  0  0  0  0
  -23.5823  -32.2154   23.7557 O   0  0  0  0  0  0
  -20.0449  -26.4775   23.6092 C   0  0  0  0  0  0
  -20.0399  -27.4718   21.5484 C   0  0  0  0  0  0
  -20.2911  -25.1148   23.6306 C   0  0  0  0  0  0
  -21.3271  -27.6488   20.8353 C   0  0  0  0  0  0
  -19.9789  -26.8336   25.2692 C   0  0  0  0  0  0
  -19.1136  -28.4547   20.3671 C   0  0  0  0  0  0
  -20.4798  -23.6342   24.2388 C   0  0  0  0  0  0
  -22.8056  -26.7793   20.2813 C   0  0  0  0  0  0
  -22.0423  -22.9400   24.0338 C   0  0  0  0  0  0
  -22.5985  -21.4998   23.3332 C   0  0  0  0  0  0
  -24.2351  -21.0538   23.1600 C   0  0  0  0  0  0
  -24.8750  -19.5888   22.5771 C   0  0  0  0  0  0
  -26.5061  -19.1757   22.3127 C   0  0  0  0  0  0
  -27.0988  -17.6576   21.8308 C   0  0  0  0  0  0
  -28.6914  -17.1776   21.4524 C   0  0  0  0  0  0
  -24.4959  -26.2059   20.7347 C   0  0  0  0  0  0
  -19.4855  -26.0627   23.0984 N   0  0  0  0  0  0
  -20.4385  -27.4933   21.9299 N   0  0  0  0  0  0
  -29.1023  -15.6745   21.1675 N   0  0  0  0  0  0
  -31.4460  -12.8887   19.2403 H   0  0  0  0  0  0
  -30.5367  -11.5885   19.9468 H   0  0  0  0  0  0
  -29.8585  -11.8174   17.5546 H   0  0  0  0  0  0
  -29.5983  -13.5293   17.7620 H   0  0  0  0  0  0
  -27.9053  -11.2648   18.8675 H   0  0  0  0  0  0
  -27.3944  -12.5300   17.7857 H   0  0  0  0  0  0
  -27.6238  -14.2148   19.5226 H   0  0  0  0  0  0
  -28.6857  -11.9227   21.2704 H   0  0  0  0  0  0
  -28.2587  -13.4582   21.9395 H   0  0  0  0  0  0
  -25.2694   -9.5583   22.4766 H   0  0  0  0  0  0
  -23.9951   -7.4507   22.7444 H   0  0  0  0  0  0
  -21.0761   -8.8637   19.8932 H   0  0  0  0  0  0
  -22.3580  -10.9578   19.6158 H   0  0  0  0  0  0
  -21.1959   -7.6122   23.9700 H   0  0  0  0  0  0
  -21.1501   -6.0504   25.9074 H   0  0  0  0  0  0
  -22.0611   -2.7595   23.2839 H   0  0  0  0  0  0
  -22.4022  -11.9835   22.4849 H   0  0  0  0  0  0
  -21.1000  -13.1217   22.2764 H   0  0  0  0  0  0
  -24.6342  -15.8143   20.4758 H   0  0  0  0  0  0
  -26.2357  -15.5848   19.9845 H   0  0  0  0  0  0
  -26.7747  -32.5722   23.1493 H   0  0  0  0  0  0
  -25.0675  -34.0008   25.0843 H   0  0  0  0  0  0
  -22.7178  -31.3934   21.5044 H   0  0  0  0  0  0
  -23.3794  -35.9681   23.3258 H   0  0  0  0  0  0
  -24.3631  -36.8990   22.2018 H   0  0  0  0  0  0
  -23.7221  -37.6578   23.6581 H   0  0  0  0  0  0
  -26.2228  -31.6537   20.6949 H   0  0  0  0  0  0
  -26.8452  -30.8094   22.0802 H   0  0  0  0  0  0
  -27.8575  -28.7412   21.4401 H   0  0  0  0  0  0
  -26.0853  -26.5099   18.2567 H   0  0  0  0  0  0
  -24.2435  -28.1288   18.1409 H   0  0  0  0  0  0
  -23.6830  -30.8859   19.4198 H   0  0  0  0  0  0
  -22.7388  -29.5097   19.8005 H   0  0  0  0  0  0
  -25.1268  -36.2122   25.0839 H   0  0  0  0  0  0
  -21.6637  -28.6345   24.7403 H   0  0  0  0  0  0
  -22.5116  -25.7636   23.5848 H   0  0  0  0  0  0
  -23.1743  -26.6425   22.5382 H   0  0  0  0  0  0
  -20.3802  -24.1622   21.3372 H   0  0  0  0  0  0
  -20.5955  -25.2656   20.1137 H   0  0  0  0  0  0
  -17.7023  -26.3994   20.3598 H   0  0  0  0  0  0
  -17.4550  -25.4411   21.7329 H   0  0  0  0  0  0
  -19.6574  -30.7021   24.4926 H   0  0  0  0  0  0
  -17.3479  -31.5153   24.4868 H   0  0  0  0  0  0
  -15.5128  -30.1756   23.5864 H   0  0  0  0  0  0
  -15.8377  -28.0497   22.4412 H   0  0  0  0  0  0
  -24.5861  -30.7241   25.7683 H   0  0  0  0  0  0
  -24.8901  -32.2968   26.4938 H   0  0  0  0  0  0
  -25.7880  -30.8890   27.0282 H   0  0  0  0  0  0
  -26.2942  -29.6973   24.1153 H   0  0  0  0  0  0
  -27.3753  -29.7177   25.4885 H   0  0  0  0  0  0
  -27.8977  -30.4280   23.9800 H   0  0  0  0  0  0
  -27.2790  -33.3550   26.2428 H   0  0  0  0  0  0
  -28.4035  -32.6812   25.0732 H   0  0  0  0  0  0
  -28.0691  -31.8307   26.5758 H   0  0  0  0  0  0
  -28.2598  -38.0218   24.7558 H   0  0  0  0  0  0
  -28.1130  -36.2761   24.6220 H   0  0  0  0  0  0
  -27.2333  -37.1461   25.8873 H   0  0  0  0  0  0
  -21.0922  -30.1834   22.4987 H   0  0  0  0  0  0
  -26.0197  -38.2999   24.1459 H   0  0  0  0  0  0
  -19.2958  -26.1336   25.7558 H   0  0  0  0  0  0
  -19.6322  -27.8009   25.6211 H   0  0  0  0  0  0
  -20.9535  -26.6529   25.7265 H   0  0  0  0  0  0
  -19.4604  -29.4871   20.4116 H   0  0  0  0  0  0
  -18.0287  -28.5285   20.4037 H   0  0  0  0  0  0
  -19.3407  -28.0994   19.3621 H   0  0  0  0  0  0
  -19.7309  -22.9826   23.7869 H   0  0  0  0  0  0
  -20.2412  -23.6774   25.3025 H   0  0  0  0  0  0
  -22.8457  -27.1818   19.2823 H   0  0  0  0  0  0
  -22.4629  -25.8016   19.9868 H   0  0  0  0  0  0
  -22.4364  -22.9026   25.0504 H   0  0  0  0  0  0
  -22.6669  -23.6950   23.5664 H   0  0  0  0  0  0
  -22.1575  -21.4615   22.3361 H   0  0  0  0  0  0
  -22.1120  -20.6887   23.8761 H   0  0  0  0  0  0
  -24.6824  -21.2000   24.1450 H   0  0  0  0  0  0
  -24.6779  -21.8382   22.5463 H   0  0  0  0  0  0
  -24.3667  -19.3959   21.6322 H   0  0  0  0  0  0
  -24.4927  -18.8241   23.2517 H   0  0  0  0  0  0
  -27.0357  -19.4305   23.2312 H   0  0  0  0  0  0
  -26.8863  -19.8917   21.5822 H   0  0  0  0  0  0
  -26.5152  -17.4334   20.9399 H   0  0  0  0  0  0
  -26.7444  -16.9558   22.5880 H   0  0  0  0  0  0
  -29.3454  -17.5143   22.2590 H   0  0  0  0  0  0
  -29.0065  -17.7508   20.5772 H   0  0  0  0  0  0
  -24.5912  -25.4997   19.9108 H   0  0  0  0  0  0
  -24.4011  -25.4708   21.5329 H   0  0  0  0  0  0
  -28.3202  -15.0670   21.3627 H   0  0  0  0  0  0
  1 25  1  0  0  0
  1 30  2  0  0  0
  1 89  1  0  0  0
  2  3  1  0  0  0
  2 25  1  0  0  0
  2 90  1  0  0  0
  2 91  1  0  0  0
  3  4  1  0  0  0
  3 92  1  0  0  0
  3 93  1  0  0  0
  4  5  1  0  0  0
  4 94  1  0  0  0
  4 95  1  0  0  0
  5  6  1  0  0  0
  5 26  1  0  0  0
  5 96  1  0  0  0
  6 25  1  0  0  0
  6 97  1  0  0  0
  6 98  1  0  0  0
  7  8  2  0  0  0
  7 26  1  0  0  0
  7 29  1  0  0  0
  8  9  1  0  0  0
  8 22  1  0  0  0
  9 10  1  0  0  0
  9 27  2  0  0  0
 10 11  2  0  0  0
 10 15  1  0  0  0
 11 12  1  0  0  0
 11 99  1  0  0  0
 12 13  2  0  0  0
 12100  1  0  0  0
 13 14  1  0  0  0
 13 31  1  0  0  0
 14 15  2  0  0  0
 14101  1  0  0  0
 15102  1  0  0  0
 16 17  2  0  0  0
 16 21  1  0  0  0
 16 31  1  0  0  0
 17 18  1  0  0  0
 17103  1  0  0  0
 18 19  2  0  0  0
 18104  1  0  0  0
 19 20  1  0  0  0
 19 24  1  0  0  0
 20 21  2  0  0  0
 20105  1  0  0  0
 21 23  1  0  0  0
 22 28  1  0  0  0
 22 32  2  0  0  0
 26 27  1  0  0  0
 28106  1  0  0  0
 28107  1  0  0  0
 29108  1  0  0  0
 29109  1  0  0  0
 33 34  1  0  0  0
 33 66  1  0  0  0
 33 70  2  0  0  0
 34 36  1  0  0  0
 34 59  1  0  0  0
 34110  1  0  0  0
 35 44  2  0  0  0
 35 45  1  0  0  0
 35 68  1  0  0  0
 36 56  1  0  0  0
 36111  1  0  0  0
 37 39  1  0  0  0
 37 47  1  0  0  0
 37 66  1  0  0  0
 37112  1  0  0  0
 38 43  2  0  0  0
 38 46  1  0  0  0
 38 47  1  0  0  0
 39 64  1  0  0  0
 39 67  2  0  0  0
 40 52  1  0  0  0
 40 53  2  0  0  0
 40 58  1  0  0  0
 41113  1  0  0  0
 41114  1  0  0  0
 41115  1  0  0  0
 41 48  1  0  0  0
 42 43  1  0  0  0
 42 66  1  0  0  0
 42116  1  0  0  0
 42117  1  0  0  0
 43 44  1  0  0  0
 44118  1  0  0  0
 45 46  2  0  0  0
 45119  1  0  0  0
 46120  1  0  0  0
 47121  1  0  0  0
 47122  1  0  0  0
 48 56  1  0  0  0
 48 65  1  0  0  0
 48123  1  0  0  0
 49 50  1  0  0  0
 49 53  1  0  0  0
 49 64  1  0  0  0
 49124  1  0  0  0
 50 51  1  0  0  0
 50125  1  0  0  0
 50126  1  0  0  0
 51 52  1  0  0  0
 51127  1  0  0  0
 51128  1  0  0  0
 52129  1  0  0  0
 52130  1  0  0  0
 53 54  1  0  0  0
 54 55  2  0  0  0
 54131  1  0  0  0
 55 57  1  0  0  0
 55132  1  0  0  0
 56 69  2  0  0  0
 57 58  2  0  0  0
 57133  1  0  0  0
 58134  1  0  0  0
 59 60  1  0  0  0
 59 61  1  0  0  0
 59 62  1  0  0  0
 60135  1  0  0  0
 60136  1  0  0  0
 60137  1  0  0  0
 61138  1  0  0  0
 61139  1  0  0  0
 61140  1  0  0  0
 62141  1  0  0  0
 62142  1  0  0  0
 62143  1  0  0  0
 63 65  1  0  0  0
 63144  1  0  0  0
 63145  1  0  0  0
 63146  1  0  0  0
 64147  1  0  0  0
 65148  1  0  0  0
 68 86  1  0  0  0
 71 73  2  0  0  0
 71 75  1  0  0  0
 71 88  1  0  0  0
 72 74  1  0  0  0
 72 76  1  0  0  0
 72 87  2  0  0  0
 73 77  1  0  0  0
 73 87  1  0  0  0
 74 78  1  0  0  0
 74 88  2  0  0  0
 75149  1  0  0  0
 75150  1  0  0  0
 75151  1  0  0  0
 76152  1  0  0  0
 76153  1  0  0  0
 76154  1  0  0  0
 77 79  1  0  0  0
 77155  1  0  0  0
 77156  1  0  0  0
 78 86  1  0  0  0
 78157  1  0  0  0
 78158  1  0  0  0
 79 80  1  0  0  0
 79159  1  0  0  0
 79160  1  0  0  0
 80 81  1  0  0  0
 80161  1  0  0  0
 80162  1  0  0  0
 81 82  1  0  0  0
 81163  1  0  0  0
 81164  1  0  0  0
 82 83  1  0  0  0
 82165  1  0  0  0
 82166  1  0  0  0
 83 84  1  0  0  0
 83167  1  0  0  0
 83168  1  0  0  0
 84 85  1  0  0  0
 84169  1  0  0  0
 84170  1  0  0  0
 85 89  1  0  0  0
 85171  1  0  0  0
 85172  1  0  0  0
 86173  1  0  0  0
 86174  1  0  0  0
 89175  1  0  0  0
M  ISO  4   1 100  68 101  86 101  89 100
M  END
> <chiral flag>
0

> <version>
0

> <s_m_source_file>
/data/baiqing/PycharmProjects/Reinvent-master-3.2/result/LINK_invent/BTK/process_docking_weight1_custom_sum_contain_oxygen_bond_distance_aromatic_linkinvent_7_9_3/rearranged_h_0038.sdf

> <i_m_source_file_index>
90

> <r_mmod_Potential_Energy-OPLS-2005>
16171.6865234375

> <r_mmod_Stretch_Energy-OPLS-2005>
7737.810546875

> <r_mmod_Bend_Energy-OPLS-2005>
2918.97534179688

> <r_mmod_Torsional_Energy-OPLS-2005>
612.21240234375

> <r_mmod_Improper_Torsional_Energy-OPLS-2005>
76.1048278808594

> <r_mmod_Van_der_Waal_Energy-OPLS-2005>
3607.05517578125

> <r_mmod_Electrostatic_Energy-OPLS-2005>
-325.749786376953

> <r_mmod_Solvation_Energy-OPLS-2005>
-203.809020996094

> <b_mmod_Minimization_Converged-OPLS-2005>
0

> <r_mmod_RMS_Derivative-OPLS-2005>
5.90171432495117

$$$$
93
                    3D
 Structure written by MMmdl.
150158  0  0  1  0            999 V2000
  -30.4190  -15.2454   20.3845 C   0  0  0  0  0  0
  -30.4467  -12.7823   19.5403 C   0  0  0  0  0  0
  -29.5442  -12.5835   18.2945 C   0  0  0  0  0  0
  -28.0883  -12.3097   18.7105 C   0  0  0  0  0  0
  -27.6187  -13.2741   19.8281 C   0  0  2  0  0  0
  -28.6488  -13.4208   20.9681 C   0  0  0  0  0  0
  -25.2421  -13.8249   20.5732 C   0  0  0  0  0  0
  -24.1763  -13.0442   20.9234 C   0  0  0  0  0  0
  -24.6409  -11.6935   20.8737 C   0  0  0  0  0  0
  -23.9097  -10.4295   21.0394 C   0  0  0  0  0  0
  -24.3642   -9.4211   21.9176 C   0  0  0  0  0  0
  -23.6308   -8.2251   22.0754 C   0  0  0  0  0  0
  -22.4288   -8.0287   21.3546 C   0  0  0  0  0  0
  -21.9928   -9.0260   20.4647 C   0  0  0  0  0  0
  -22.7263  -10.2134   20.3049 C   0  0  0  0  0  0
  -21.6860   -6.0737   22.5278 C   0  0  0  0  0  0
  -21.4018   -6.5638   23.8211 C   0  0  0  0  0  0
  -21.3663   -5.6791   24.9172 C   0  0  0  0  0  0
  -21.6046   -4.3053   24.7223 C   0  0  0  0  0  0
  -21.8820   -3.8145   23.4343 C   0  0  0  0  0  0
  -21.9196   -4.6964   22.3399 C   0  0  0  0  0  0
  -22.7779  -13.5194   21.1890 C   0  0  0  0  0  0
  -22.1662   -4.2148   21.0978 F   0  0  0  0  0  0
  -21.5632   -3.4537   25.7736 F   0  0  0  0  0  0
  -29.8982  -13.9180   20.3700 N   0  0  0  0  0  0
  -26.2849  -12.9520   20.3208 N   0  0  0  0  0  0
  -25.9349  -11.6624   20.5696 N   0  0  0  0  0  0
  -22.0439  -12.8175   22.0447 N   0  0  0  0  0  0
  -25.4075  -15.1986   20.4198 N   0  0  0  0  0  0
  -31.6161  -15.2652   20.0562 O   0  0  0  0  0  0
  -21.6650   -6.8883   21.4241 O   0  0  0  0  0  0
  -22.3449  -14.5490   20.6729 O   0  0  0  0  0  0
  -24.6608  -31.8244   23.1711 C   0  0  0  0  0  0
  -25.9297  -32.4592   23.8171 C   0  0  1  0  0  0
  -27.2242  -26.9450   20.1817 C   0  0  0  0  0  0
  -25.5971  -33.8408   24.2078 N   0  0  0  0  0  0
  -23.4753  -30.4348   21.5197 C   0  0  2  0  0  0
  -24.9302  -28.8237   20.1100 C   0  0  0  0  0  0
  -22.7658  -29.4438   22.4790 C   0  0  0  0  0  0
  -18.0321  -28.1404   22.8469 C   0  0  0  0  0  0
  -24.1494  -36.7209   23.2646 C   0  0  0  0  0  0
  -26.0425  -30.6358   21.3997 C   0  0  0  0  0  0
  -26.1113  -29.2271   20.7444 C   0  0  0  0  0  0
  -27.2511  -28.3073   20.7577 C   0  0  0  0  0  0
  -26.0173  -26.6911   19.4926 C   0  0  0  0  0  0
  -24.9077  -27.5761   19.4642 C   0  0  0  0  0  0
  -23.7142  -29.7486   20.1459 C   0  0  0  0  0  0
  -25.4135  -36.2972   24.0299 C   0  0  1  0  0  0
  -20.5944  -28.3747   23.1194 C   0  0  2  0  0  0
  -20.6797  -26.9431   22.5405 C   0  0  0  0  0  0
  -19.5771  -26.6375   21.5216 C   0  0  0  0  0  0
  -18.1953  -26.7937   22.1625 C   0  0  0  0  0  0
  -19.1581  -28.8898   23.2818 C   0  0  0  0  0  0
  -18.9490  -30.1489   23.8850 C   0  0  0  0  0  0
  -17.6483  -30.6596   24.0553 C   0  0  0  0  0  0
  -25.9098  -34.9353   23.5011 C   0  0  0  0  0  0
  -16.5374  -29.9081   23.6344 C   0  0  0  0  0  0
  -16.7302  -28.6501   23.0363 C   0  0  0  0  0  0
  -26.4557  -31.6535   25.0696 C   0  0  0  0  0  0
  -25.3688  -31.3782   26.1357 C   0  0  0  0  0  0
  -27.0453  -30.2902   24.6425 C   0  0  0  0  0  0
  -27.6050  -32.4344   25.7498 C   0  0  0  0  0  0
  -27.5572  -37.1761   24.8467 C   0  0  0  0  0  0
  -21.4329  -29.3036   22.3541 N   0  0  0  0  0  0
  -26.4283  -37.3705   23.9405 N   0  0  0  0  0  0
  -24.7472  -30.9919   22.0839 N   0  0  0  0  0  0
  -23.4213  -28.8014   23.3033 O   0  0  0  0  0  0
  -28.2357  -25.8572   20.2900 O   0  0  0  0  0  0
  -26.5712  -34.8886   22.4609 O   0  0  0  0  0  0
  -23.5682  -32.1208   23.6812 O   0  0  0  0  0  0
  -29.7544  -18.5663   18.7510 C   0  0  0  0  0  0
  -29.2048  -19.7519   20.7433 C   0  0  0  0  0  0
  -29.5569  -18.3815   20.1366 C   0  0  0  0  0  0
  -29.6309  -19.8340   18.1133 C   0  0  0  0  0  0
  -29.0608  -21.1086   20.0364 C   0  0  0  0  0  0
  -29.8667  -19.9282   16.6196 C   0  0  0  0  0  0
  -29.6195  -16.7603   20.7882 C   0  0  0  0  0  0
  -28.9068  -22.7601   20.5846 C   0  0  0  0  0  0
  -28.0889  -24.2441   19.9764 C   0  0  0  0  0  0
  -29.3211  -21.0218   18.7120 N   0  0  0  0  0  0
  -31.4706  -12.9750   19.2177 H   0  0  0  0  0  0
  -30.4979  -11.8649   20.1290 H   0  0  0  0  0  0
  -29.9196  -11.7645   17.6798 H   0  0  0  0  0  0
  -29.5843  -13.4796   17.6732 H   0  0  0  0  0  0
  -28.0354  -11.2806   19.0679 H   0  0  0  0  0  0
  -27.4255  -12.3687   17.8464 H   0  0  0  0  0  0
  -27.5443  -14.2491   19.3455 H   0  0  0  0  0  0
  -28.7998  -12.4764   21.4929 H   0  0  0  0  0  0
  -28.2894  -14.1327   21.7126 H   0  0  0  0  0  0
  -25.2788   -9.5686   22.4749 H   0  0  0  0  0  0
  -24.0016   -7.4643   22.7474 H   0  0  0  0  0  0
  -21.0859   -8.8780   19.8949 H   0  0  0  0  0  0
  -22.3723  -10.9672   19.6155 H   0  0  0  0  0  0
  -21.2009   -7.6147   23.9712 H   0  0  0  0  0  0
  -21.1485   -6.0523   25.9076 H   0  0  0  0  0  0
  -22.0596   -2.7606   23.2846 H   0  0  0  0  0  0
  -22.4077  -11.9852   22.4846 H   0  0  0  0  0  0
  -21.1048  -13.1181   22.2642 H   0  0  0  0  0  0
  -24.6402  -15.8513   20.5382 H   0  0  0  0  0  0
  -26.2558  -15.6418   20.0914 H   0  0  0  0  0  0
  -26.7367  -32.5135   23.0887 H   0  0  0  0  0  0
  -25.0065  -33.9489   25.0192 H   0  0  0  0  0  0
  -22.7876  -31.2656   21.3492 H   0  0  0  0  0  0
  -23.3768  -35.9527   23.3280 H   0  0  0  0  0  0
  -24.3569  -36.8884   22.2067 H   0  0  0  0  0  0
  -23.7240  -37.6384   23.6721 H   0  0  0  0  0  0
  -26.2211  -31.3781   20.6204 H   0  0  0  0  0  0
  -26.9030  -30.6925   22.0544 H   0  0  0  0  0  0
  -28.1426  -28.6115   21.2875 H   0  0  0  0  0  0
  -25.8968  -25.7382   18.9979 H   0  0  0  0  0  0
  -24.0108  -27.2626   18.9478 H   0  0  0  0  0  0
  -23.8650  -30.5164   19.3861 H   0  0  0  0  0  0
  -22.8250  -29.1993   19.8316 H   0  0  0  0  0  0
  -25.1333  -36.1770   25.0790 H   0  0  0  0  0  0
  -21.0032  -28.3353   24.1317 H   0  0  0  0  0  0
  -20.5681  -26.2364   23.3642 H   0  0  0  0  0  0
  -21.6658  -26.7408   22.1207 H   0  0  0  0  0  0
  -19.6927  -25.6274   21.1274 H   0  0  0  0  0  0
  -19.6706  -27.3162   20.6727 H   0  0  0  0  0  0
  -17.4220  -26.6682   21.4029 H   0  0  0  0  0  0
  -18.0346  -26.0090   22.9032 H   0  0  0  0  0  0
  -19.7965  -30.7321   24.2194 H   0  0  0  0  0  0
  -17.5033  -31.6271   24.5163 H   0  0  0  0  0  0
  -15.5371  -30.2965   23.7693 H   0  0  0  0  0  0
  -15.8704  -28.0803   22.7104 H   0  0  0  0  0  0
  -24.5880  -30.7124   25.7662 H   0  0  0  0  0  0
  -24.8868  -32.2985   26.4667 H   0  0  0  0  0  0
  -25.7921  -30.9019   27.0210 H   0  0  0  0  0  0
  -26.3118  -29.6577   24.1415 H   0  0  0  0  0  0
  -27.3970  -29.7267   25.5076 H   0  0  0  0  0  0
  -27.9064  -30.4082   23.9845 H   0  0  0  0  0  0
  -27.2621  -33.3689   26.1949 H   0  0  0  0  0  0
  -28.3927  -32.6834   25.0375 H   0  0  0  0  0  0
  -28.0648  -31.8556   26.5519 H   0  0  0  0  0  0
  -28.2571  -38.0073   24.7513 H   0  0  0  0  0  0
  -28.1086  -36.2599   24.6297 H   0  0  0  0  0  0
  -27.2286  -37.1406   25.8868 H   0  0  0  0  0  0
  -20.9583  -29.8716   21.6660 H   0  0  0  0  0  0
  -26.0132  -38.2764   24.1411 H   0  0  0  0  0  0
  -29.9965  -17.7024   18.1461 H   0  0  0  0  0  0
  -29.0448  -19.7663   21.8134 H   0  0  0  0  0  0
  -29.5830  -19.0017   16.1203 H   0  0  0  0  0  0
  -30.9210  -20.1149   16.4163 H   0  0  0  0  0  0
  -29.2845  -20.7360   16.1751 H   0  0  0  0  0  0
  -28.5693  -16.4782   20.8494 H   0  0  0  0  0  0
  -29.9049  -16.9156   21.8278 H   0  0  0  0  0  0
  -29.9494  -23.0627   20.6799 H   0  0  0  0  0  0
  -28.5768  -22.6595   21.6181 H   0  0  0  0  0  0
  -27.0255  -24.0333   20.0847 H   0  0  0  0  0  0
  -28.2548  -24.2097   18.8995 H   0  0  0  0  0  0
  1 25  1  0  0  0
  1 30  2  0  0  0
  1 77  1  0  0  0
  2  3  1  0  0  0
  2 25  1  0  0  0
  2 81  1  0  0  0
  2 82  1  0  0  0
  3  4  1  0  0  0
  3 83  1  0  0  0
  3 84  1  0  0  0
  4  5  1  0  0  0
  4 85  1  0  0  0
  4 86  1  0  0  0
  5  6  1  0  0  0
  5 26  1  0  0  0
  5 87  1  0  0  0
  6 25  1  0  0  0
  6 88  1  0  0  0
  6 89  1  0  0  0
  7  8  2  0  0  0
  7 26  1  0  0  0
  7 29  1  0  0  0
  8  9  1  0  0  0
  8 22  1  0  0  0
  9 10  1  0  0  0
  9 27  2  0  0  0
 10 11  2  0  0  0
 10 15  1  0  0  0
 11 12  1  0  0  0
 11 90  1  0  0  0
 12 13  2  0  0  0
 12 91  1  0  0  0
 13 14  1  0  0  0
 13 31  1  0  0  0
 14 15  2  0  0  0
 14 92  1  0  0  0
 15 93  1  0  0  0
 16 17  2  0  0  0
 16 21  1  0  0  0
 16 31  1  0  0  0
 17 18  1  0  0  0
 17 94  1  0  0  0
 18 19  2  0  0  0
 18 95  1  0  0  0
 19 20  1  0  0  0
 19 24  1  0  0  0
 20 21  2  0  0  0
 20 96  1  0  0  0
 21 23  1  0  0  0
 22 28  1  0  0  0
 22 32  2  0  0  0
 26 27  1  0  0  0
 28 97  1  0  0  0
 28 98  1  0  0  0
 29 99  1  0  0  0
 29100  1  0  0  0
 33 34  1  0  0  0
 33 66  1  0  0  0
 33 70  2  0  0  0
 34 36  1  0  0  0
 34 59  1  0  0  0
 34101  1  0  0  0
 35 44  2  0  0  0
 35 45  1  0  0  0
 35 68  1  0  0  0
 36 56  1  0  0  0
 36102  1  0  0  0
 37 39  1  0  0  0
 37 47  1  0  0  0
 37 66  1  0  0  0
 37103  1  0  0  0
 38 43  2  0  0  0
 38 46  1  0  0  0
 38 47  1  0  0  0
 39 64  1  0  0  0
 39 67  2  0  0  0
 40 52  1  0  0  0
 40 53  2  0  0  0
 40 58  1  0  0  0
 41104  1  0  0  0
 41105  1  0  0  0
 41106  1  0  0  0
 41 48  1  0  0  0
 42 43  1  0  0  0
 42 66  1  0  0  0
 42107  1  0  0  0
 42108  1  0  0  0
 43 44  1  0  0  0
 44109  1  0  0  0
 45 46  2  0  0  0
 45110  1  0  0  0
 46111  1  0  0  0
 47112  1  0  0  0
 47113  1  0  0  0
 48 56  1  0  0  0
 48 65  1  0  0  0
 48114  1  0  0  0
 49 50  1  0  0  0
 49 53  1  0  0  0
 49 64  1  0  0  0
 49115  1  0  0  0
 50 51  1  0  0  0
 50116  1  0  0  0
 50117  1  0  0  0
 51 52  1  0  0  0
 51118  1  0  0  0
 51119  1  0  0  0
 52120  1  0  0  0
 52121  1  0  0  0
 53 54  1  0  0  0
 54 55  2  0  0  0
 54122  1  0  0  0
 55 57  1  0  0  0
 55123  1  0  0  0
 56 69  2  0  0  0
 57 58  2  0  0  0
 57124  1  0  0  0
 58125  1  0  0  0
 59 60  1  0  0  0
 59 61  1  0  0  0
 59 62  1  0  0  0
 60126  1  0  0  0
 60127  1  0  0  0
 60128  1  0  0  0
 61129  1  0  0  0
 61130  1  0  0  0
 61131  1  0  0  0
 62132  1  0  0  0
 62133  1  0  0  0
 62134  1  0  0  0
 63 65  1  0  0  0
 63135  1  0  0  0
 63136  1  0  0  0
 63137  1  0  0  0
 64138  1  0  0  0
 65139  1  0  0  0
 68 79  1  0  0  0
 71 73  2  0  0  0
 71 74  1  0  0  0
 71140  1  0  0  0
 72 73  1  0  0  0
 72 75  2  0  0  0
 72141  1  0  0  0
 73 77  1  0  0  0
 74 76  1  0  0  0
 74 80  2  0  0  0
 75 78  1  0  0  0
 75 80  1  0  0  0
 76142  1  0  0  0
 76143  1  0  0  0
 76144  1  0  0  0
 77145  1  0  0  0
 77146  1  0  0  0
 78 79  1  0  0  0
 78147  1  0  0  0
 78148  1  0  0  0
 79149  1  0  0  0
 79150  1  0  0  0
M  ISO  4   1 100  68 101  77 100  79 101
M  END
> <chiral flag>
0

> <version>
0

> <s_m_source_file>
/data/baiqing/PycharmProjects/Reinvent-master-3.2/result/LINK_invent/BTK/process_docking_weight1_custom_sum_contain_oxygen_bond_distance_aromatic_linkinvent_7_9_3/rearranged_h_0038.sdf

> <i_m_source_file_index>
91

> <r_mmod_Potential_Energy-OPLS-2005>
1111.11315917969

> <r_mmod_Stretch_Energy-OPLS-2005>
570.945068359375

> <r_mmod_Bend_Energy-OPLS-2005>
422.183807373047

> <r_mmod_Torsional_Energy-OPLS-2005>
176.753433227539

> <r_mmod_Improper_Torsional_Energy-OPLS-2005>
2.93377065658569

> <r_mmod_Van_der_Waal_Energy-OPLS-2005>
125.665092468262

> <r_mmod_Electrostatic_Energy-OPLS-2005>
-400.040710449219

> <r_mmod_Solvation_Energy-OPLS-2005>
-219.490310668945

> <b_mmod_Minimization_Converged-OPLS-2005>
0

> <r_mmod_RMS_Derivative-OPLS-2005>
0.553775072097778

$$$$
94
                    3D
 Structure written by MMmdl.
162170  0  0  1  0            999 V2000
  -30.7329  -14.4090   20.6618 C   0  0  0  0  0  0
  -30.4109  -12.2975   19.4194 C   0  0  0  0  0  0
  -29.4928  -12.5338   18.2066 C   0  0  0  0  0  0
  -28.0125  -12.3816   18.6106 C   0  0  0  0  0  0
  -27.6570  -13.2095   19.8747 C   0  0  2  0  0  0
  -28.6878  -12.9584   20.9960 C   0  0  0  0  0  0
  -25.2514  -13.8127   20.5557 C   0  0  0  0  0  0
  -24.1788  -13.0399   20.9046 C   0  0  0  0  0  0
  -24.6368  -11.6872   20.8626 C   0  0  0  0  0  0
  -23.9064  -10.4246   21.0377 C   0  0  0  0  0  0
  -24.3607   -9.4168   21.9181 C   0  0  0  0  0  0
  -23.6266   -8.2219   22.0776 C   0  0  0  0  0  0
  -22.4261   -8.0246   21.3539 C   0  0  0  0  0  0
  -21.9868   -9.0234   20.4658 C   0  0  0  0  0  0
  -22.7227  -10.2098   20.3057 C   0  0  0  0  0  0
  -21.6845   -6.0716   22.5285 C   0  0  0  0  0  0
  -21.4034   -6.5644   23.8208 C   0  0  0  0  0  0
  -21.3640   -5.6811   24.9181 C   0  0  0  0  0  0
  -21.6038   -4.3065   24.7252 C   0  0  0  0  0  0
  -21.8805   -3.8141   23.4373 C   0  0  0  0  0  0
  -21.9172   -4.6944   22.3416 C   0  0  0  0  0  0
  -22.7802  -13.5194   21.1756 C   0  0  0  0  0  0
  -22.1619   -4.2103   21.0997 F   0  0  0  0  0  0
  -21.5587   -3.4560   25.7765 F   0  0  0  0  0  0
  -30.0327  -13.2595   20.4656 N   0  0  0  0  0  0
  -26.2961  -12.9320   20.3265 N   0  0  0  0  0  0
  -25.9294  -11.6474   20.5662 N   0  0  0  0  0  0
  -22.0487  -12.8241   22.0364 N   0  0  0  0  0  0
  -25.4237  -15.1875   20.4042 N   0  0  0  0  0  0
  -31.7849  -14.6691   20.0686 O   0  0  0  0  0  0
  -21.6630   -6.8850   21.4242 O   0  0  0  0  0  0
  -22.3469  -14.5493   20.6597 O   0  0  0  0  0  0
  -24.6125  -31.8708   23.2134 C   0  0  0  0  0  0
  -25.9040  -32.4842   23.8411 C   0  0  1  0  0  0
  -27.2357  -27.4500   20.0805 C   0  0  0  0  0  0
  -25.5902  -33.8633   24.2324 N   0  0  0  0  0  0
  -23.3989  -30.4972   21.5551 C   0  0  2  0  0  0
  -24.8414  -28.9609   20.1172 C   0  0  0  0  0  0
  -22.7433  -29.4690   22.5036 C   0  0  0  0  0  0
  -18.0272  -28.1432   22.8454 C   0  0  0  0  0  0
  -24.1496  -36.7321   23.2635 C   0  0  0  0  0  0
  -25.9275  -30.8344   21.3702 C   0  0  0  0  0  0
  -26.0001  -29.4713   20.7133 C   0  0  0  0  0  0
  -27.1957  -28.7207   20.6966 C   0  0  0  0  0  0
  -26.0540  -26.9519   19.4801 C   0  0  0  0  0  0
  -24.8594  -27.6946   19.5098 C   0  0  0  0  0  0
  -23.6082  -29.8347   20.1670 C   0  0  0  0  0  0
  -25.4117  -36.3114   24.0335 C   0  0  1  0  0  0
  -20.5859  -28.3722   23.1324 C   0  0  2  0  0  0
  -20.6813  -26.9502   22.5377 C   0  0  0  0  0  0
  -19.5793  -26.6439   21.5200 C   0  0  0  0  0  0
  -18.1954  -26.8000   22.1545 C   0  0  0  0  0  0
  -19.1509  -28.8885   23.2887 C   0  0  0  0  0  0
  -18.9406  -30.1479   23.8895 C   0  0  0  0  0  0
  -17.6401  -30.6610   24.0561 C   0  0  0  0  0  0
  -25.9040  -34.9486   23.5122 C   0  0  0  0  0  0
  -16.5306  -29.9110   23.6310 C   0  0  0  0  0  0
  -16.7252  -28.6544   23.0323 C   0  0  0  0  0  0
  -26.4466  -31.6618   25.0735 C   0  0  0  0  0  0
  -25.3760  -31.3684   26.1500 C   0  0  0  0  0  0
  -27.0271  -30.3057   24.6134 C   0  0  0  0  0  0
  -27.6059  -32.4315   25.7487 C   0  0  0  0  0  0
  -27.5597  -37.1818   24.8480 C   0  0  0  0  0  0
  -21.4160  -29.3064   22.3770 N   0  0  0  0  0  0
  -26.4311  -37.3790   23.9413 N   0  0  0  0  0  0
  -24.6638  -31.0850   22.1016 N   0  0  0  0  0  0
  -23.4212  -28.8222   23.3060 O   0  0  0  0  0  0
  -28.4252  -26.7514   20.1228 O   0  0  0  0  0  0
  -26.5611  -34.8924   22.4692 O   0  0  0  0  0  0
  -23.5331  -32.1454   23.7558 O   0  0  0  0  0  0
  -28.4552  -24.2551   19.9659 C   0  0  0  0  0  0
  -27.4288  -23.7801   20.8468 C   0  0  0  0  0  0
  -29.2730  -23.1544   19.8160 C   0  0  0  0  0  0
  -26.2437  -24.4670   21.4632 C   0  0  0  0  0  0
  -30.5664  -23.0053   19.0730 C   0  0  0  0  0  0
  -28.6314  -25.6108   19.2864 C   0  0  0  0  0  0
  -29.4129  -18.6996   22.2862 C   0  0  0  0  0  0
  -29.4430  -20.2307   22.0119 C   0  0  0  0  0  0
  -30.3290  -17.8195   21.3983 C   0  0  0  0  0  0
  -29.0496  -20.6782   20.5863 C   0  0  0  0  0  0
  -30.8098  -16.4995   22.0761 C   0  0  0  0  0  0
  -27.5688  -22.4978   21.1268 N   0  0  0  0  0  0
  -28.6908  -22.0973   20.5022 N   0  0  0  0  0  0
  -30.2048  -15.2583   21.5598 N   0  0  0  0  0  0
  -30.2815  -11.2804   19.7920 H   0  0  0  0  0  0
  -31.4605  -12.3767   19.1323 H   0  0  0  0  0  0
  -29.7412  -11.8422   17.4012 H   0  0  0  0  0  0
  -29.6679  -13.5376   17.8140 H   0  0  0  0  0  0
  -27.8247  -11.3248   18.7957 H   0  0  0  0  0  0
  -27.3678  -12.6574   17.7768 H   0  0  0  0  0  0
  -27.7077  -14.2623   19.6014 H   0  0  0  0  0  0
  -28.4296  -13.5185   21.8954 H   0  0  0  0  0  0
  -28.6440  -11.9093   21.2946 H   0  0  0  0  0  0
  -25.2751   -9.5605   22.4768 H   0  0  0  0  0  0
  -23.9906   -7.4626   22.7560 H   0  0  0  0  0  0
  -21.0735   -8.8813   19.9026 H   0  0  0  0  0  0
  -22.3692  -10.9635   19.6155 H   0  0  0  0  0  0
  -21.2092   -7.6153   23.9702 H   0  0  0  0  0  0
  -21.1445   -6.0542   25.9067 H   0  0  0  0  0  0
  -22.0600   -2.7592   23.2907 H   0  0  0  0  0  0
  -22.4081  -11.9904   22.4759 H   0  0  0  0  0  0
  -21.1132  -13.1316   22.2648 H   0  0  0  0  0  0
  -24.6697  -15.8454   20.5721 H   0  0  0  0  0  0
  -26.2940  -15.6340   20.1507 H   0  0  0  0  0  0
  -26.7083  -32.5556   23.1141 H   0  0  0  0  0  0
  -25.0008  -33.9785   25.0443 H   0  0  0  0  0  0
  -22.6857  -31.3124   21.4218 H   0  0  0  0  0  0
  -23.3752  -35.9660   23.3326 H   0  0  0  0  0  0
  -24.3586  -36.8922   22.2043 H   0  0  0  0  0  0
  -23.7256  -37.6535   23.6636 H   0  0  0  0  0  0
  -26.0613  -31.6056   20.6106 H   0  0  0  0  0  0
  -26.8065  -30.8718   22.0018 H   0  0  0  0  0  0
  -28.0932  -29.1193   21.1500 H   0  0  0  0  0  0
  -26.0209  -25.9802   19.0108 H   0  0  0  0  0  0
  -23.9630  -27.2806   19.0664 H   0  0  0  0  0  0
  -23.7380  -30.6160   19.4172 H   0  0  0  0  0  0
  -22.7265  -29.2694   19.8565 H   0  0  0  0  0  0
  -25.1288  -36.1966   25.0824 H   0  0  0  0  0  0
  -20.9891  -28.3257   24.1475 H   0  0  0  0  0  0
  -20.5809  -26.2312   23.3520 H   0  0  0  0  0  0
  -21.6691  -26.7625   22.1109 H   0  0  0  0  0  0
  -19.7024  -25.6365   21.1201 H   0  0  0  0  0  0
  -19.6727  -27.3240   20.6733 H   0  0  0  0  0  0
  -17.4276  -26.6798   21.3899 H   0  0  0  0  0  0
  -18.0315  -26.0114   22.8887 H   0  0  0  0  0  0
  -19.7853  -30.7301   24.2318 H   0  0  0  0  0  0
  -17.4914  -31.6291   24.5154 H   0  0  0  0  0  0
  -15.5293  -30.2995   23.7630 H   0  0  0  0  0  0
  -15.8661  -28.0889   22.7007 H   0  0  0  0  0  0
  -24.5914  -30.7068   25.7816 H   0  0  0  0  0  0
  -24.8970  -32.2805   26.5058 H   0  0  0  0  0  0
  -25.8139  -30.8750   27.0195 H   0  0  0  0  0  0
  -26.2774  -29.6857   24.1197 H   0  0  0  0  0  0
  -27.4022  -29.7275   25.4600 H   0  0  0  0  0  0
  -27.8652  -30.4376   23.9290 H   0  0  0  0  0  0
  -27.2694  -33.3575   26.2175 H   0  0  0  0  0  0
  -28.3804  -32.6960   25.0268 H   0  0  0  0  0  0
  -28.0821  -31.8382   26.5316 H   0  0  0  0  0  0
  -28.2611  -38.0112   24.7491 H   0  0  0  0  0  0
  -28.1084  -36.2643   24.6316 H   0  0  0  0  0  0
  -27.2336  -37.1485   25.8890 H   0  0  0  0  0  0
  -20.9360  -29.8727   21.6922 H   0  0  0  0  0  0
  -26.0217  -38.2883   24.1361 H   0  0  0  0  0  0
  -25.4116  -24.5257   20.7610 H   0  0  0  0  0  0
  -26.4888  -25.4695   21.8033 H   0  0  0  0  0  0
  -25.8810  -23.9255   22.3407 H   0  0  0  0  0  0
  -31.4094  -23.1122   19.7564 H   0  0  0  0  0  0
  -30.6801  -23.7609   18.2958 H   0  0  0  0  0  0
  -30.6435  -22.0348   18.5856 H   0  0  0  0  0  0
  -28.0572  -25.6794   18.3623 H   0  0  0  0  0  0
  -29.6628  -25.7174   18.9483 H   0  0  0  0  0  0
  -28.3834  -18.3406   22.2270 H   0  0  0  0  0  0
  -29.7017  -18.5709   23.3304 H   0  0  0  0  0  0
  -30.4248  -20.6398   22.2554 H   0  0  0  0  0  0
  -28.7615  -20.7022   22.7230 H   0  0  0  0  0  0
  -29.8430  -17.6233   20.4412 H   0  0  0  0  0  0
  -31.2197  -18.3987   21.1511 H   0  0  0  0  0  0
  -28.1848  -20.1126   20.2408 H   0  0  0  0  0  0
  -29.8541  -20.4468   19.8945 H   0  0  0  0  0  0
  -31.8967  -16.4345   21.9890 H   0  0  0  0  0  0
  -30.6295  -16.5343   23.1515 H   0  0  0  0  0  0
  -29.3639  -14.9296   22.0119 H   0  0  0  0  0  0
  1 25  1  0  0  0
  1 30  2  0  0  0
  1 84  1  0  0  0
  2  3  1  0  0  0
  2 25  1  0  0  0
  2 85  1  0  0  0
  2 86  1  0  0  0
  3  4  1  0  0  0
  3 87  1  0  0  0
  3 88  1  0  0  0
  4  5  1  0  0  0
  4 89  1  0  0  0
  4 90  1  0  0  0
  5  6  1  0  0  0
  5 26  1  0  0  0
  5 91  1  0  0  0
  6 25  1  0  0  0
  6 92  1  0  0  0
  6 93  1  0  0  0
  7  8  2  0  0  0
  7 26  1  0  0  0
  7 29  1  0  0  0
  8  9  1  0  0  0
  8 22  1  0  0  0
  9 10  1  0  0  0
  9 27  2  0  0  0
 10 11  2  0  0  0
 10 15  1  0  0  0
 11 12  1  0  0  0
 11 94  1  0  0  0
 12 13  2  0  0  0
 12 95  1  0  0  0
 13 14  1  0  0  0
 13 31  1  0  0  0
 14 15  2  0  0  0
 14 96  1  0  0  0
 15 97  1  0  0  0
 16 17  2  0  0  0
 16 21  1  0  0  0
 16 31  1  0  0  0
 17 18  1  0  0  0
 17 98  1  0  0  0
 18 19  2  0  0  0
 18 99  1  0  0  0
 19 20  1  0  0  0
 19 24  1  0  0  0
 20 21  2  0  0  0
 20100  1  0  0  0
 21 23  1  0  0  0
 22 28  1  0  0  0
 22 32  2  0  0  0
 26 27  1  0  0  0
 28101  1  0  0  0
 28102  1  0  0  0
 29103  1  0  0  0
 29104  1  0  0  0
 33 34  1  0  0  0
 33 66  1  0  0  0
 33 70  2  0  0  0
 34 36  1  0  0  0
 34 59  1  0  0  0
 34105  1  0  0  0
 35 44  2  0  0  0
 35 45  1  0  0  0
 35 68  1  0  0  0
 36 56  1  0  0  0
 36106  1  0  0  0
 37 39  1  0  0  0
 37 47  1  0  0  0
 37 66  1  0  0  0
 37107  1  0  0  0
 38 43  2  0  0  0
 38 46  1  0  0  0
 38 47  1  0  0  0
 39 64  1  0  0  0
 39 67  2  0  0  0
 40 52  1  0  0  0
 40 53  2  0  0  0
 40 58  1  0  0  0
 41108  1  0  0  0
 41109  1  0  0  0
 41110  1  0  0  0
 41 48  1  0  0  0
 42 43  1  0  0  0
 42 66  1  0  0  0
 42111  1  0  0  0
 42112  1  0  0  0
 43 44  1  0  0  0
 44113  1  0  0  0
 45 46  2  0  0  0
 45114  1  0  0  0
 46115  1  0  0  0
 47116  1  0  0  0
 47117  1  0  0  0
 48 56  1  0  0  0
 48 65  1  0  0  0
 48118  1  0  0  0
 49 50  1  0  0  0
 49 53  1  0  0  0
 49 64  1  0  0  0
 49119  1  0  0  0
 50 51  1  0  0  0
 50120  1  0  0  0
 50121  1  0  0  0
 51 52  1  0  0  0
 51122  1  0  0  0
 51123  1  0  0  0
 52124  1  0  0  0
 52125  1  0  0  0
 53 54  1  0  0  0
 54 55  2  0  0  0
 54126  1  0  0  0
 55 57  1  0  0  0
 55127  1  0  0  0
 56 69  2  0  0  0
 57 58  2  0  0  0
 57128  1  0  0  0
 58129  1  0  0  0
 59 60  1  0  0  0
 59 61  1  0  0  0
 59 62  1  0  0  0
 60130  1  0  0  0
 60131  1  0  0  0
 60132  1  0  0  0
 61133  1  0  0  0
 61134  1  0  0  0
 61135  1  0  0  0
 62136  1  0  0  0
 62137  1  0  0  0
 62138  1  0  0  0
 63 65  1  0  0  0
 63139  1  0  0  0
 63140  1  0  0  0
 63141  1  0  0  0
 64142  1  0  0  0
 65143  1  0  0  0
 68 76  1  0  0  0
 71 72  1  0  0  0
 71 73  2  0  0  0
 71 76  1  0  0  0
 72 74  1  0  0  0
 72 82  2  0  0  0
 73 75  1  0  0  0
 73 83  1  0  0  0
 74144  1  0  0  0
 74145  1  0  0  0
 74146  1  0  0  0
 75147  1  0  0  0
 75148  1  0  0  0
 75149  1  0  0  0
 76150  1  0  0  0
 76151  1  0  0  0
 77 78  1  0  0  0
 77 79  1  0  0  0
 77152  1  0  0  0
 77153  1  0  0  0
 78 80  1  0  0  0
 78154  1  0  0  0
 78155  1  0  0  0
 79 81  1  0  0  0
 79156  1  0  0  0
 79157  1  0  0  0
 80 83  1  0  0  0
 80158  1  0  0  0
 80159  1  0  0  0
 81 84  1  0  0  0
 81160  1  0  0  0
 81161  1  0  0  0
 82 83  1  0  0  0
 84162  1  0  0  0
M  ISO  4   1 100  68 101  76 101  84 100
M  END
> <chiral flag>
0

> <version>
0

> <s_m_source_file>
/data/baiqing/PycharmProjects/Reinvent-master-3.2/result/LINK_invent/BTK/process_docking_weight1_custom_sum_contain_oxygen_bond_distance_aromatic_linkinvent_7_9_3/rearranged_h_0038.sdf

> <i_m_source_file_index>
92

> <r_mmod_Potential_Energy-OPLS-2005>
-96.4375457763672

> <r_mmod_Stretch_Energy-OPLS-2005>
35.9118309020996

> <r_mmod_Bend_Energy-OPLS-2005>
111.728927612305

> <r_mmod_Torsional_Energy-OPLS-2005>
228.551055908203

> <r_mmod_Improper_Torsional_Energy-OPLS-2005>
2.01098871231079

> <r_mmod_Van_der_Waal_Energy-OPLS-2005>
130.361282348633

> <r_mmod_Electrostatic_Energy-OPLS-2005>
-400.733276367188

> <r_mmod_Solvation_Energy-OPLS-2005>
-213.917022705078

> <b_mmod_Minimization_Converged-OPLS-2005>
0

> <r_mmod_RMS_Derivative-OPLS-2005>
5.553795337677

$$$$
