0
                    3D
 Structure written by MMmdl.
154163  0  0  1  0            999 V2000
  -30.5262  -15.0754   20.4070 C   0  0  0  0  0  0
  -30.4316  -12.6778   19.5125 C   0  0  0  0  0  0
  -29.5231  -12.5444   18.2681 C   0  0  0  0  0  0
  -28.0639  -12.3059   18.6933 C   0  0  0  0  0  0
  -27.6192  -13.2636   19.8295 C   0  0  2  0  0  0
  -28.6575  -13.3724   20.9652 C   0  0  0  0  0  0
  -25.2432  -13.8252   20.5734 C   0  0  0  0  0  0
  -24.1763  -13.0456   20.9227 C   0  0  0  0  0  0
  -24.6395  -11.6942   20.8754 C   0  0  0  0  0  0
  -23.9086  -10.4304   21.0407 C   0  0  0  0  0  0
  -24.3631   -9.4219   21.9187 C   0  0  0  0  0  0
  -23.6307   -8.2252   22.0757 C   0  0  0  0  0  0
  -22.4289   -8.0285   21.3547 C   0  0  0  0  0  0
  -21.9922   -9.0263   20.4651 C   0  0  0  0  0  0
  -22.7251  -10.2142   20.3063 C   0  0  0  0  0  0
  -21.6857   -6.0741   22.5281 C   0  0  0  0  0  0
  -21.4017   -6.5644   23.8215 C   0  0  0  0  0  0
  -21.3658   -5.6794   24.9176 C   0  0  0  0  0  0
  -21.6045   -4.3059   24.7223 C   0  0  0  0  0  0
  -21.8818   -3.8150   23.4344 C   0  0  0  0  0  0
  -21.9196   -4.6969   22.3401 C   0  0  0  0  0  0
  -22.7782  -13.5215   21.1876 C   0  0  0  0  0  0
  -22.1664   -4.2158   21.0977 F   0  0  0  0  0  0
  -21.5625   -3.4538   25.7733 F   0  0  0  0  0  0
  -29.9124  -13.8124   20.3443 N   0  0  0  0  0  0
  -26.2850  -12.9503   20.3246 N   0  0  0  0  0  0
  -25.9331  -11.6616   20.5743 N   0  0  0  0  0  0
  -22.0437  -12.8210   22.0436 N   0  0  0  0  0  0
  -25.4116  -15.1986   20.4179 N   0  0  0  0  0  0
  -31.7406  -15.0689   20.1682 O   0  0  0  0  0  0
  -21.6648   -6.8884   21.4244 O   0  0  0  0  0  0
  -22.3466  -14.5518   20.6714 O   0  0  0  0  0  0
  -24.6528  -31.8358   23.1813 C   0  0  0  0  0  0
  -25.9257  -32.4654   23.8233 C   0  0  1  0  0  0
  -27.2095  -27.0393   20.1632 C   0  0  0  0  0  0
  -25.5968  -33.8463   24.2145 N   0  0  0  0  0  0
  -23.4604  -30.4532   21.5298 C   0  0  2  0  0  0
  -24.9099  -28.8651   20.1105 C   0  0  0  0  0  0
  -22.7612  -29.4508   22.4833 C   0  0  0  0  0  0
  -18.0315  -28.1399   22.8478 C   0  0  0  0  0  0
  -24.1492  -36.7236   23.2641 C   0  0  0  0  0  0
  -26.0237  -30.6777   21.3952 C   0  0  0  0  0  0
  -26.0921  -29.2800   20.7366 C   0  0  0  0  0  0
  -27.2414  -28.3862   20.7421 C   0  0  0  0  0  0
  -25.9995  -26.7547   19.4902 C   0  0  0  0  0  0
  -24.8823  -27.6194   19.4688 C   0  0  0  0  0  0
  -23.6918  -29.7798   20.1511 C   0  0  0  0  0  0
  -25.4129  -36.3005   24.0304 C   0  0  1  0  0  0
  -20.5935  -28.3745   23.1228 C   0  0  2  0  0  0
  -20.6807  -26.9441   22.5403 C   0  0  0  0  0  0
  -19.5777  -26.6391   21.5216 C   0  0  0  0  0  0
  -18.1962  -26.7931   22.1636 C   0  0  0  0  0  0
  -19.1572  -28.8892   23.2842 C   0  0  0  0  0  0
  -18.9481  -30.1486   23.8867 C   0  0  0  0  0  0
  -17.6471  -30.6592   24.0563 C   0  0  0  0  0  0
  -25.9088  -34.9385   23.5036 C   0  0  0  0  0  0
  -16.5368  -29.9079   23.6342 C   0  0  0  0  0  0
  -16.7297  -28.6500   23.0356 C   0  0  0  0  0  0
  -26.4542  -31.6548   25.0710 C   0  0  0  0  0  0
  -25.3697  -31.3765   26.1387 C   0  0  0  0  0  0
  -27.0415  -30.2928   24.6356 C   0  0  0  0  0  0
  -27.6058  -32.4327   25.7503 C   0  0  0  0  0  0
  -27.5572  -37.1777   24.8464 C   0  0  0  0  0  0
  -21.4292  -29.3073   22.3603 N   0  0  0  0  0  0
  -26.4285  -37.3729   23.9404 N   0  0  0  0  0  0
  -24.7326  -31.0125   22.0895 N   0  0  0  0  0  0
  -23.4222  -28.8037   23.2997 O   0  0  0  0  0  0
  -28.2204  -25.9785   20.2402 O   0  0  0  0  0  0
  -26.5687  -34.8897   22.4625 O   0  0  0  0  0  0
  -23.5624  -32.1278   23.6975 O   0  0  0  0  0  0
  -26.2272  -19.2641   19.1427 C   0  0  0  0  0  0
  -27.9075  -21.3156   20.0341 C   0  0  0  0  0  0
  -28.3091  -19.8049   20.0263 C   0  0  0  0  0  0
  -26.5262  -21.4312   19.6712 C   0  0  0  0  0  0
  -29.2770  -17.3450   21.3308 C   0  0  0  0  0  0
  -30.1088  -17.5597   19.4512 C   0  0  0  0  0  0
  -29.4873  -18.6780   20.4283 C   0  0  0  0  0  0
  -28.6127  -22.8471   20.3263 C   0  0  0  0  0  0
  -27.8533  -24.4299   20.0954 C   0  0  0  0  0  0
  -27.4213  -18.9160   19.5412 N   0  0  0  0  0  0
  -25.7328  -20.4694   19.2237 N   0  0  0  0  0  0
  -29.7997  -16.3335   20.3129 N   0  0  0  0  0  0
  -25.7627  -22.5752   19.7514 N   0  0  0  0  0  0
  -31.4625  -12.8400   19.1948 H   0  0  0  0  0  0
  -30.4421  -11.7503   20.0869 H   0  0  0  0  0  0
  -29.8677  -11.7305   17.6286 H   0  0  0  0  0  0
  -29.5869  -13.4552   17.6708 H   0  0  0  0  0  0
  -27.9887  -11.2731   19.0358 H   0  0  0  0  0  0
  -27.3956  -12.3932   17.8355 H   0  0  0  0  0  0
  -27.5574  -14.2484   19.3641 H   0  0  0  0  0  0
  -28.7769  -12.4252   21.4928 H   0  0  0  0  0  0
  -28.3327  -14.1068   21.7040 H   0  0  0  0  0  0
  -25.2770   -9.5699   22.4772 H   0  0  0  0  0  0
  -24.0013   -7.4645   22.7481 H   0  0  0  0  0  0
  -21.0851   -8.8782   19.8961 H   0  0  0  0  0  0
  -22.3700  -10.9683   19.6182 H   0  0  0  0  0  0
  -21.2012   -7.6152   23.9717 H   0  0  0  0  0  0
  -21.1479   -6.0526   25.9077 H   0  0  0  0  0  0
  -22.0596   -2.7613   23.2841 H   0  0  0  0  0  0
  -22.4059  -11.9885   22.4841 H   0  0  0  0  0  0
  -21.1054  -13.1244   22.2638 H   0  0  0  0  0  0
  -24.6461  -15.8513   20.5413 H   0  0  0  0  0  0
  -26.2730  -15.6412   20.1223 H   0  0  0  0  0  0
  -26.7318  -32.5230   23.0948 H   0  0  0  0  0  0
  -25.0079  -33.9562   25.0269 H   0  0  0  0  0  0
  -22.7681  -31.2826   21.3711 H   0  0  0  0  0  0
  -23.3762  -35.9559   23.3282 H   0  0  0  0  0  0
  -24.3574  -36.8898   22.2060 H   0  0  0  0  0  0
  -23.7245  -37.6419   23.6701 H   0  0  0  0  0  0
  -26.1920  -31.4255   20.6191 H   0  0  0  0  0  0
  -26.8897  -30.7319   22.0434 H   0  0  0  0  0  0
  -28.1366  -28.6996   21.2605 H   0  0  0  0  0  0
  -25.8720  -25.8054   18.9931 H   0  0  0  0  0  0
  -23.9824  -27.2982   18.9624 H   0  0  0  0  0  0
  -23.8397  -30.5543   19.3983 H   0  0  0  0  0  0
  -22.8033  -29.2306   19.8331 H   0  0  0  0  0  0
  -25.1321  -36.1817   25.0796 H   0  0  0  0  0  0
  -21.0022  -28.3336   24.1353 H   0  0  0  0  0  0
  -20.5711  -26.2359   23.3627 H   0  0  0  0  0  0
  -21.6674  -26.7443   22.1204 H   0  0  0  0  0  0
  -19.6952  -25.6296   21.1264 H   0  0  0  0  0  0
  -19.6705  -27.3195   20.6738 H   0  0  0  0  0  0
  -17.4221  -26.6640   21.4055 H   0  0  0  0  0  0
  -18.0395  -26.0091   22.9053 H   0  0  0  0  0  0
  -19.7955  -30.7312   24.2220 H   0  0  0  0  0  0
  -17.5021  -31.6266   24.5173 H   0  0  0  0  0  0
  -15.5366  -30.2962   23.7678 H   0  0  0  0  0  0
  -15.8696  -28.0806   22.7093 H   0  0  0  0  0  0
  -24.5898  -30.7091   25.7704 H   0  0  0  0  0  0
  -24.8866  -32.2956   26.4711 H   0  0  0  0  0  0
  -25.7965  -30.9008   27.0228 H   0  0  0  0  0  0
  -26.3053  -29.6642   24.1338 H   0  0  0  0  0  0
  -27.3961  -29.7242   25.4964 H   0  0  0  0  0  0
  -27.8989  -30.4133   23.9735 H   0  0  0  0  0  0
  -27.2640  -33.3657   26.1993 H   0  0  0  0  0  0
  -28.3914  -32.6842   25.0365 H   0  0  0  0  0  0
  -28.0671  -31.8512   26.5493 H   0  0  0  0  0  0
  -28.2577  -38.0085   24.7511 H   0  0  0  0  0  0
  -28.1082  -36.2615   24.6290 H   0  0  0  0  0  0
  -27.2289  -37.1418   25.8867 H   0  0  0  0  0  0
  -20.9508  -29.8831   21.6814 H   0  0  0  0  0  0
  -26.0140  -38.2790   24.1418 H   0  0  0  0  0  0
  -25.5811  -18.4833   18.7718 H   0  0  0  0  0  0
  -28.2292  -17.1833   21.5852 H   0  0  0  0  0  0
  -29.8642  -17.3781   22.2492 H   0  0  0  0  0  0
  -31.1753  -17.7167   19.2833 H   0  0  0  0  0  0
  -29.6002  -17.5338   18.4876 H   0  0  0  0  0  0
  -30.3104  -19.2514   20.8560 H   0  0  0  0  0  0
  -28.9716  -22.8147   21.3551 H   0  0  0  0  0  0
  -29.5171  -22.8568   19.7178 H   0  0  0  0  0  0
  -26.9967  -24.4123   20.7659 H   0  0  0  0  0  0
  -27.4858  -24.3796   19.0708 H   0  0  0  0  0  0
  -26.0090  -23.2189   20.4880 H   0  0  0  0  0  0
  -24.7656  -22.4258   19.6852 H   0  0  0  0  0  0
  1 25  1  0  0  0
  1 30  2  0  0  0
  1 82  1  0  0  0
  2  3  1  0  0  0
  2 25  1  0  0  0
  2 84  1  0  0  0
  2 85  1  0  0  0
  3  4  1  0  0  0
  3 86  1  0  0  0
  3 87  1  0  0  0
  4  5  1  0  0  0
  4 88  1  0  0  0
  4 89  1  0  0  0
  5  6  1  0  0  0
  5 26  1  0  0  0
  5 90  1  0  0  0
  6 25  1  0  0  0
  6 91  1  0  0  0
  6 92  1  0  0  0
  7  8  2  0  0  0
  7 26  1  0  0  0
  7 29  1  0  0  0
  8  9  1  0  0  0
  8 22  1  0  0  0
  9 10  1  0  0  0
  9 27  2  0  0  0
 10 11  2  0  0  0
 10 15  1  0  0  0
 11 12  1  0  0  0
 11 93  1  0  0  0
 12 13  2  0  0  0
 12 94  1  0  0  0
 13 14  1  0  0  0
 13 31  1  0  0  0
 14 15  2  0  0  0
 14 95  1  0  0  0
 15 96  1  0  0  0
 16 17  2  0  0  0
 16 21  1  0  0  0
 16 31  1  0  0  0
 17 18  1  0  0  0
 17 97  1  0  0  0
 18 19  2  0  0  0
 18 98  1  0  0  0
 19 20  1  0  0  0
 19 24  1  0  0  0
 20 21  2  0  0  0
 20 99  1  0  0  0
 21 23  1  0  0  0
 22 28  1  0  0  0
 22 32  2  0  0  0
 26 27  1  0  0  0
 28100  1  0  0  0
 28101  1  0  0  0
 29102  1  0  0  0
 29103  1  0  0  0
 33 34  1  0  0  0
 33 66  1  0  0  0
 33 70  2  0  0  0
 34 36  1  0  0  0
 34 59  1  0  0  0
 34104  1  0  0  0
 35 44  2  0  0  0
 35 45  1  0  0  0
 35 68  1  0  0  0
 36 56  1  0  0  0
 36105  1  0  0  0
 37 39  1  0  0  0
 37 47  1  0  0  0
 37 66  1  0  0  0
 37106  1  0  0  0
 38 43  2  0  0  0
 38 46  1  0  0  0
 38 47  1  0  0  0
 39 64  1  0  0  0
 39 67  2  0  0  0
 40 52  1  0  0  0
 40 53  2  0  0  0
 40 58  1  0  0  0
 41107  1  0  0  0
 41108  1  0  0  0
 41109  1  0  0  0
 41 48  1  0  0  0
 42 43  1  0  0  0
 42 66  1  0  0  0
 42110  1  0  0  0
 42111  1  0  0  0
 43 44  1  0  0  0
 44112  1  0  0  0
 45 46  2  0  0  0
 45113  1  0  0  0
 46114  1  0  0  0
 47115  1  0  0  0
 47116  1  0  0  0
 48 56  1  0  0  0
 48 65  1  0  0  0
 48117  1  0  0  0
 49 50  1  0  0  0
 49 53  1  0  0  0
 49 64  1  0  0  0
 49118  1  0  0  0
 50 51  1  0  0  0
 50119  1  0  0  0
 50120  1  0  0  0
 51 52  1  0  0  0
 51121  1  0  0  0
 51122  1  0  0  0
 52123  1  0  0  0
 52124  1  0  0  0
 53 54  1  0  0  0
 54 55  2  0  0  0
 54125  1  0  0  0
 55 57  1  0  0  0
 55126  1  0  0  0
 56 69  2  0  0  0
 57 58  2  0  0  0
 57127  1  0  0  0
 58128  1  0  0  0
 59 60  1  0  0  0
 59 61  1  0  0  0
 59 62  1  0  0  0
 60129  1  0  0  0
 60130  1  0  0  0
 60131  1  0  0  0
 61132  1  0  0  0
 61133  1  0  0  0
 61134  1  0  0  0
 62135  1  0  0  0
 62136  1  0  0  0
 62137  1  0  0  0
 63 65  1  0  0  0
 63138  1  0  0  0
 63139  1  0  0  0
 63140  1  0  0  0
 64141  1  0  0  0
 65142  1  0  0  0
 68 79  1  0  0  0
 71 80  2  0  0  0
 71 81  1  0  0  0
 71143  1  0  0  0
 72 73  2  0  0  0
 72 74  1  0  0  0
 72 78  1  0  0  0
 73 80  1  0  0  0
 73 77  1  0  0  0
 74 81  2  0  0  0
 74 83  1  0  0  0
 75 77  1  0  0  0
 75 82  1  0  0  0
 75144  1  0  0  0
 75145  1  0  0  0
 76 77  1  0  0  0
 76 82  1  0  0  0
 76146  1  0  0  0
 76147  1  0  0  0
 77148  1  0  0  0
 78 79  1  0  0  0
 78149  1  0  0  0
 78150  1  0  0  0
 79151  1  0  0  0
 79152  1  0  0  0
 83153  1  0  0  0
 83154  1  0  0  0
M  ISO  4   1 100  68 101  79 101  82 100
M  END
> <chiral flag>
0

> <version>
0

> <s_m_source_file>
/data/baiqing/PycharmProjects/Reinvent-master-3.2/result/LINK_invent/BTK/process_docking_weight1_custom_sum_contain_oxygen_bond_distance_aromatic_linkinvent_7_9_3/rearranged_h_0197.sdf

> <i_m_source_file_index>
1

> <r_mmod_Potential_Energy-OPLS-2005>
547.438598632812

> <r_mmod_Stretch_Energy-OPLS-2005>
407.704711914062

> <r_mmod_Bend_Energy-OPLS-2005>
463.361999511719

> <r_mmod_Torsional_Energy-OPLS-2005>
300.574432373047

> <r_mmod_Improper_Torsional_Energy-OPLS-2005>
21.4171276092529

> <r_mmod_Van_der_Waal_Energy-OPLS-2005>
152.056243896484

> <r_mmod_Electrostatic_Energy-OPLS-2005>
-868.306884765625

> <r_mmod_Solvation_Energy-OPLS-2005>
-223.440551757812

> <b_mmod_Minimization_Converged-OPLS-2005>
0

> <r_mmod_RMS_Derivative-OPLS-2005>
1.0996025800705

$$$$
1
                    3D
 Structure written by MMmdl.
169178  0  0  1  0            999 V2000
  -30.6610  -14.5112   20.5375 C   0  0  0  0  0  0
  -30.4302  -12.3179   19.4378 C   0  0  0  0  0  0
  -29.5027  -12.4895   18.2158 C   0  0  0  0  0  0
  -28.0219  -12.3503   18.6211 C   0  0  0  0  0  0
  -27.6594  -13.2012   19.8679 C   0  0  2  0  0  0
  -28.6991  -12.9992   20.9954 C   0  0  0  0  0  0
  -25.2613  -13.8148   20.5719 C   0  0  0  0  0  0
  -24.1849  -13.0437   20.9177 C   0  0  0  0  0  0
  -24.6374  -11.6899   20.8692 C   0  0  0  0  0  0
  -23.9025  -10.4281   21.0369 C   0  0  0  0  0  0
  -24.3593   -9.4206   21.9149 C   0  0  0  0  0  0
  -23.6275   -8.2246   22.0735 C   0  0  0  0  0  0
  -22.4254   -8.0274   21.3538 C   0  0  0  0  0  0
  -21.9880   -9.0246   20.4642 C   0  0  0  0  0  0
  -22.7192  -10.2130   20.3023 C   0  0  0  0  0  0
  -21.6857   -6.0721   22.5280 C   0  0  0  0  0  0
  -21.4024   -6.5619   23.8205 C   0  0  0  0  0  0
  -21.3647   -5.6779   24.9163 C   0  0  0  0  0  0
  -21.6033   -4.3051   24.7217 C   0  0  0  0  0  0
  -21.8829   -3.8141   23.4348 C   0  0  0  0  0  0
  -21.9196   -4.6944   22.3403 C   0  0  0  0  0  0
  -22.7863  -13.5243   21.1809 C   0  0  0  0  0  0
  -22.1673   -4.2137   21.0972 F   0  0  0  0  0  0
  -21.5596   -3.4532   25.7722 F   0  0  0  0  0  0
  -30.0270  -13.3086   20.4483 N   0  0  0  0  0  0
  -26.3013  -12.9303   20.3319 N   0  0  0  0  0  0
  -25.9296  -11.6461   20.5709 N   0  0  0  0  0  0
  -22.0496  -12.8246   22.0379 N   0  0  0  0  0  0
  -25.4344  -15.1886   20.4178 N   0  0  0  0  0  0
  -31.7994  -14.6928   20.0991 O   0  0  0  0  0  0
  -21.6633   -6.8866   21.4236 O   0  0  0  0  0  0
  -22.3537  -14.5541   20.6637 O   0  0  0  0  0  0
  -24.6185  -31.8618   23.2025 C   0  0  0  0  0  0
  -25.9068  -32.4757   23.8337 C   0  0  1  0  0  0
  -27.2418  -27.3764   20.1321 C   0  0  0  0  0  0
  -25.5943  -33.8560   24.2310 N   0  0  0  0  0  0
  -23.4094  -30.4821   21.5419 C   0  0  2  0  0  0
  -24.8593  -28.9346   20.1169 C   0  0  0  0  0  0
  -22.7427  -29.4624   22.4945 C   0  0  0  0  0  0
  -18.0263  -28.1389   22.8481 C   0  0  0  0  0  0
  -24.1498  -36.7249   23.2617 C   0  0  0  0  0  0
  -25.9383  -30.8168   21.3587 C   0  0  0  0  0  0
  -26.0174  -29.4406   20.7186 C   0  0  0  0  0  0
  -27.2066  -28.6700   20.7180 C   0  0  0  0  0  0
  -26.0610  -26.8932   19.5239 C   0  0  0  0  0  0
  -24.8798  -27.6644   19.5140 C   0  0  0  0  0  0
  -23.6220  -29.8058   20.1583 C   0  0  0  0  0  0
  -25.4090  -36.3051   24.0354 C   0  0  1  0  0  0
  -20.5869  -28.3676   23.1298 C   0  0  2  0  0  0
  -20.6753  -26.9407   22.5408 C   0  0  0  0  0  0
  -19.5732  -26.6425   21.5179 C   0  0  0  0  0  0
  -18.1910  -26.7933   22.1611 C   0  0  0  0  0  0
  -19.1516  -28.8841   23.2882 C   0  0  0  0  0  0
  -18.9450  -30.1446   23.8909 C   0  0  0  0  0  0
  -17.6452  -30.6605   24.0546 C   0  0  0  0  0  0
  -25.9043  -34.9431   23.5112 C   0  0  0  0  0  0
  -16.5338  -29.9097   23.6334 C   0  0  0  0  0  0
  -16.7248  -28.6506   23.0367 C   0  0  0  0  0  0
  -26.4483  -31.6513   25.0659 C   0  0  0  0  0  0
  -25.3806  -31.3863   26.1512 C   0  0  0  0  0  0
  -27.0127  -30.2851   24.6083 C   0  0  0  0  0  0
  -27.6182  -32.4118   25.7342 C   0  0  0  0  0  0
  -27.5611  -37.1712   24.8423 C   0  0  0  0  0  0
  -21.4139  -29.3048   22.3704 N   0  0  0  0  0  0
  -26.4237  -37.3771   23.9494 N   0  0  0  0  0  0
  -24.6724  -31.0714   22.0920 N   0  0  0  0  0  0
  -23.4161  -28.8156   23.2997 O   0  0  0  0  0  0
  -28.4348  -26.6625   20.1087 O   0  0  0  0  0  0
  -26.5583  -34.8897   22.4668 O   0  0  0  0  0  0
  -23.5353  -32.1379   23.7401 O   0  0  0  0  0  0
  -29.6555  -23.3369   21.2458 C   0  0  0  0  0  0
  -29.2727  -24.7018   21.3297 C   0  0  0  0  0  0
  -29.2981  -22.6047   20.0873 C   0  0  0  0  0  0
  -28.5506  -25.2761   20.2517 C   0  0  0  0  0  0
  -29.0418  -17.4932   19.6010 C   0  0  0  0  0  0
  -29.3881  -18.9300   19.1399 C   0  0  0  0  0  0
  -30.3000  -19.4207   21.4023 C   0  0  0  0  0  0
  -30.0917  -16.9766   20.5954 C   0  0  1  0  0  0
  -30.0070  -17.9242   21.8199 C   0  0  1  0  0  0
  -31.0108  -17.1376   25.3958 C   0  0  0  0  0  0
  -32.2813  -17.4679   22.6867 C   0  0  0  0  0  0
  -29.9896  -21.2634   19.7044 C   0  0  0  0  0  0
  -30.4699  -17.9673   24.2197 C   0  0  0  0  0  0
  -28.5333  -23.1972   19.1212 N   0  0  0  0  0  0
  -28.1828  -24.4989   19.1924 N   0  0  0  0  0  0
  -29.8746  -15.5445   20.9105 N   0  0  0  0  0  0
  -30.8346  -17.3876   22.9225 N   0  0  0  0  0  0
  -29.4869  -19.9409   20.2457 N   0  3  1  0  0  0
  -31.4736  -12.4289   19.1347 H   0  0  0  0  0  0
  -30.3463  -11.3108   19.8494 H   0  0  0  0  0  0
  -29.7541  -11.7543   17.4506 H   0  0  0  0  0  0
  -29.6736  -13.4670   17.7662 H   0  0  0  0  0  0
  -27.8360  -11.2951   18.8310 H   0  0  0  0  0  0
  -27.3763  -12.6132   17.7825 H   0  0  0  0  0  0
  -27.6992  -14.2438   19.5522 H   0  0  0  0  0  0
  -28.6812  -11.9692   21.3521 H   0  0  0  0  0  0
  -28.4572  -13.6140   21.8619 H   0  0  0  0  0  0
  -25.2754   -9.5692   22.4691 H   0  0  0  0  0  0
  -23.9995   -7.4638   22.7438 H   0  0  0  0  0  0
  -21.0814   -8.8757   19.8955 H   0  0  0  0  0  0
  -22.3642  -10.9655   19.6111 H   0  0  0  0  0  0
  -21.2058   -7.6124   23.9700 H   0  0  0  0  0  0
  -21.1429   -6.0506   25.9061 H   0  0  0  0  0  0
  -22.0618   -2.7609   23.2847 H   0  0  0  0  0  0
  -22.4064  -11.9894   22.4787 H   0  0  0  0  0  0
  -21.1116  -13.1270   22.2555 H   0  0  0  0  0  0
  -24.6707  -15.8446   20.5422 H   0  0  0  0  0  0
  -26.2901  -15.6304   20.1106 H   0  0  0  0  0  0
  -26.7118  -32.5466   23.1077 H   0  0  0  0  0  0
  -25.0174  -33.9694   25.0519 H   0  0  0  0  0  0
  -22.6969  -31.2972   21.3971 H   0  0  0  0  0  0
  -23.3843  -35.9477   23.3012 H   0  0  0  0  0  0
  -24.3687  -36.9142   22.2098 H   0  0  0  0  0  0
  -23.7103  -37.6316   23.6766 H   0  0  0  0  0  0
  -26.0530  -31.5770   20.5840 H   0  0  0  0  0  0
  -26.8257  -30.8758   21.9767 H   0  0  0  0  0  0
  -28.1070  -29.0652   21.1709 H   0  0  0  0  0  0
  -26.0443  -25.9212   19.0558 H   0  0  0  0  0  0
  -23.9911  -27.2685   19.0433 H   0  0  0  0  0  0
  -23.7289  -30.5746   19.3911 H   0  0  0  0  0  0
  -22.7481  -29.2208   19.8683 H   0  0  0  0  0  0
  -25.1241  -36.1857   25.0828 H   0  0  0  0  0  0
  -20.9954  -28.3252   24.1418 H   0  0  0  0  0  0
  -20.5640  -26.2267   23.3594 H   0  0  0  0  0  0
  -21.6631  -26.7466   22.1200 H   0  0  0  0  0  0
  -19.6888  -25.6341   21.1190 H   0  0  0  0  0  0
  -19.6683  -27.3255   20.6709 H   0  0  0  0  0  0
  -17.4180  -26.6671   21.4015 H   0  0  0  0  0  0
  -18.0334  -26.0105   22.9053 H   0  0  0  0  0  0
  -19.7921  -30.7221   24.2348 H   0  0  0  0  0  0
  -17.5015  -31.6287   24.5151 H   0  0  0  0  0  0
  -15.5330  -30.3000   23.7656 H   0  0  0  0  0  0
  -15.8648  -28.0806   22.7113 H   0  0  0  0  0  0
  -24.5651  -30.7579   25.7928 H   0  0  0  0  0  0
  -24.9424  -32.3170   26.5102 H   0  0  0  0  0  0
  -25.8110  -30.8815   27.0167 H   0  0  0  0  0  0
  -26.2551  -29.6676   24.1222 H   0  0  0  0  0  0
  -27.3868  -29.7065   25.4539 H   0  0  0  0  0  0
  -27.8472  -30.3982   23.9165 H   0  0  0  0  0  0
  -27.3031  -33.3671   26.1523 H   0  0  0  0  0  0
  -28.4155  -32.6149   25.0193 H   0  0  0  0  0  0
  -28.0525  -31.8369   26.5526 H   0  0  0  0  0  0
  -28.2445  -38.0176   24.7692 H   0  0  0  0  0  0
  -28.1277  -36.2724   24.5903 H   0  0  0  0  0  0
  -27.2402  -37.1005   25.8830 H   0  0  0  0  0  0
  -20.9279  -29.8776   21.6956 H   0  0  0  0  0  0
  -26.0102  -38.2812   24.1633 H   0  0  0  0  0  0
  -30.2940  -22.9029   22.0043 H   0  0  0  0  0  0
  -29.6145  -25.3173   22.1490 H   0  0  0  0  0  0
  -29.0050  -16.8374   18.7291 H   0  0  0  0  0  0
  -28.0434  -17.4642   20.0396 H   0  0  0  0  0  0
  -28.6423  -19.2577   18.4115 H   0  0  0  0  0  0
  -30.3385  -18.8850   18.6029 H   0  0  0  0  0  0
  -31.3545  -19.5103   21.1382 H   0  0  0  0  0  0
  -30.1386  -20.0818   22.2570 H   0  0  0  0  0  0
  -31.0678  -17.0902   20.1232 H   0  0  0  0  0  0
  -28.9735  -17.8799   22.1692 H   0  0  0  0  0  0
  -30.6922  -17.5671   26.3463 H   0  0  0  0  0  0
  -32.0986  -17.1055   25.4270 H   0  0  0  0  0  0
  -30.6443  -16.1119   25.3628 H   0  0  0  0  0  0
  -32.5657  -17.0596   21.7177 H   0  0  0  0  0  0
  -32.8350  -16.8866   23.4233 H   0  0  0  0  0  0
  -32.6450  -18.4939   22.7419 H   0  0  0  0  0  0
  -31.0552  -21.3613   19.9129 H   0  0  0  0  0  0
  -29.9540  -21.2262   18.6127 H   0  0  0  0  0  0
  -30.8271  -18.9961   24.2928 H   0  0  0  0  0  0
  -29.3820  -17.9992   24.3112 H   0  0  0  0  0  0
  -28.9819  -15.2972   21.3119 H   0  0  0  0  0  0
  -28.5467  -20.1091   20.5720 H   0  0  0  0  0  0
  1 25  1  0  0  0
  1 30  2  0  0  0
  1 86  1  0  0  0
  2  3  1  0  0  0
  2 25  1  0  0  0
  2 89  1  0  0  0
  2 90  1  0  0  0
  3  4  1  0  0  0
  3 91  1  0  0  0
  3 92  1  0  0  0
  4  5  1  0  0  0
  4 93  1  0  0  0
  4 94  1  0  0  0
  5  6  1  0  0  0
  5 26  1  0  0  0
  5 95  1  0  0  0
  6 25  1  0  0  0
  6 96  1  0  0  0
  6 97  1  0  0  0
  7  8  2  0  0  0
  7 26  1  0  0  0
  7 29  1  0  0  0
  8  9  1  0  0  0
  8 22  1  0  0  0
  9 10  1  0  0  0
  9 27  2  0  0  0
 10 11  2  0  0  0
 10 15  1  0  0  0
 11 12  1  0  0  0
 11 98  1  0  0  0
 12 13  2  0  0  0
 12 99  1  0  0  0
 13 14  1  0  0  0
 13 31  1  0  0  0
 14 15  2  0  0  0
 14100  1  0  0  0
 15101  1  0  0  0
 16 17  2  0  0  0
 16 21  1  0  0  0
 16 31  1  0  0  0
 17 18  1  0  0  0
 17102  1  0  0  0
 18 19  2  0  0  0
 18103  1  0  0  0
 19 20  1  0  0  0
 19 24  1  0  0  0
 20 21  2  0  0  0
 20104  1  0  0  0
 21 23  1  0  0  0
 22 28  1  0  0  0
 22 32  2  0  0  0
 26 27  1  0  0  0
 28105  1  0  0  0
 28106  1  0  0  0
 29107  1  0  0  0
 29108  1  0  0  0
 33 34  1  0  0  0
 33 66  1  0  0  0
 33 70  2  0  0  0
 34 36  1  0  0  0
 34 59  1  0  0  0
 34109  1  0  0  0
 35 44  2  0  0  0
 35 45  1  0  0  0
 35 68  1  0  0  0
 36 56  1  0  0  0
 36110  1  0  0  0
 37 39  1  0  0  0
 37 47  1  0  0  0
 37 66  1  0  0  0
 37111  1  0  0  0
 38 43  2  0  0  0
 38 46  1  0  0  0
 38 47  1  0  0  0
 39 64  1  0  0  0
 39 67  2  0  0  0
 40 52  1  0  0  0
 40 53  2  0  0  0
 40 58  1  0  0  0
 41112  1  0  0  0
 41113  1  0  0  0
 41114  1  0  0  0
 41 48  1  0  0  0
 42 43  1  0  0  0
 42 66  1  0  0  0
 42115  1  0  0  0
 42116  1  0  0  0
 43 44  1  0  0  0
 44117  1  0  0  0
 45 46  2  0  0  0
 45118  1  0  0  0
 46119  1  0  0  0
 47120  1  0  0  0
 47121  1  0  0  0
 48 56  1  0  0  0
 48 65  1  0  0  0
 48122  1  0  0  0
 49 50  1  0  0  0
 49 53  1  0  0  0
 49 64  1  0  0  0
 49123  1  0  0  0
 50 51  1  0  0  0
 50124  1  0  0  0
 50125  1  0  0  0
 51 52  1  0  0  0
 51126  1  0  0  0
 51127  1  0  0  0
 52128  1  0  0  0
 52129  1  0  0  0
 53 54  1  0  0  0
 54 55  2  0  0  0
 54130  1  0  0  0
 55 57  1  0  0  0
 55131  1  0  0  0
 56 69  2  0  0  0
 57 58  2  0  0  0
 57132  1  0  0  0
 58133  1  0  0  0
 59 60  1  0  0  0
 59 61  1  0  0  0
 59 62  1  0  0  0
 60134  1  0  0  0
 60135  1  0  0  0
 60136  1  0  0  0
 61137  1  0  0  0
 61138  1  0  0  0
 61139  1  0  0  0
 62140  1  0  0  0
 62141  1  0  0  0
 62142  1  0  0  0
 63 65  1  0  0  0
 63143  1  0  0  0
 63144  1  0  0  0
 63145  1  0  0  0
 64146  1  0  0  0
 65147  1  0  0  0
 68 74  1  0  0  0
 71 72  2  0  0  0
 71 73  1  0  0  0
 71148  1  0  0  0
 72 74  1  0  0  0
 72149  1  0  0  0
 73 82  1  0  0  0
 73 84  2  0  0  0
 74 85  2  0  0  0
 75 76  1  0  0  0
 75 78  1  0  0  0
 75150  1  0  0  0
 75151  1  0  0  0
 76 88  1  0  0  0
 76152  1  0  0  0
 76153  1  0  0  0
 77 79  1  0  0  0
 77 88  1  0  0  0
 77154  1  0  0  0
 77155  1  0  0  0
 78 79  1  0  0  0
 78 86  1  0  0  0
 78156  1  0  0  0
 79 87  1  0  0  0
 79157  1  0  0  0
 80 83  1  0  0  0
 80158  1  0  0  0
 80159  1  0  0  0
 80160  1  0  0  0
 81 87  1  0  0  0
 81161  1  0  0  0
 81162  1  0  0  0
 81163  1  0  0  0
 82164  1  0  0  0
 82165  1  0  0  0
 82 88  1  0  0  0
 83 87  1  0  0  0
 83166  1  0  0  0
 83167  1  0  0  0
 84 85  1  0  0  0
 86168  1  0  0  0
 88169  1  0  0  0
M  CHG  1  88   1
M  ISO  4   1 100  68 101  74 101  86 100
M  END
> <chiral flag>
0

> <version>
0

> <s_m_source_file>
/data/baiqing/PycharmProjects/Reinvent-master-3.2/result/LINK_invent/BTK/process_docking_weight1_custom_sum_contain_oxygen_bond_distance_aromatic_linkinvent_7_9_3/rearranged_h_0197.sdf

> <i_m_source_file_index>
2

> <r_mmod_Potential_Energy-OPLS-2005>
-92.3564376831055

> <r_mmod_Stretch_Energy-OPLS-2005>
59.2848014831543

> <r_mmod_Bend_Energy-OPLS-2005>
138.008010864258

> <r_mmod_Torsional_Energy-OPLS-2005>
288.766082763672

> <r_mmod_Improper_Torsional_Energy-OPLS-2005>
9.55533123016357

> <r_mmod_Van_der_Waal_Energy-OPLS-2005>
158.252746582031

> <r_mmod_Electrostatic_Energy-OPLS-2005>
-276.783111572266

> <r_mmod_Solvation_Energy-OPLS-2005>
-489.481506347656

> <b_mmod_Minimization_Converged-OPLS-2005>
0

> <r_mmod_RMS_Derivative-OPLS-2005>
4.88828039169312

$$$$
2
                    3D
 Structure written by MMmdl.
161171  0  0  1  0            999 V2000
  -30.6912  -14.4168   20.5460 C   0  0  0  0  0  0
  -30.4142  -12.2546   19.4158 C   0  0  0  0  0  0
  -29.4872  -12.4698   18.2024 C   0  0  0  0  0  0
  -28.0104  -12.3330   18.6237 C   0  0  0  0  0  0
  -27.6621  -13.1867   19.8744 C   0  0  2  0  0  0
  -28.6988  -12.9559   20.9949 C   0  0  0  0  0  0
  -25.2603  -13.8121   20.5663 C   0  0  0  0  0  0
  -24.1828  -13.0426   20.9172 C   0  0  0  0  0  0
  -24.6357  -11.6881   20.8751 C   0  0  0  0  0  0
  -23.9022  -10.4268   21.0440 C   0  0  0  0  0  0
  -24.3601   -9.4183   21.9205 C   0  0  0  0  0  0
  -23.6287   -8.2211   22.0746 C   0  0  0  0  0  0
  -22.4251   -8.0278   21.3553 C   0  0  0  0  0  0
  -21.9887   -9.0239   20.4635 C   0  0  0  0  0  0
  -22.7200  -10.2125   20.3066 C   0  0  0  0  0  0
  -21.6838   -6.0726   22.5283 C   0  0  0  0  0  0
  -21.3991   -6.5641   23.8213 C   0  0  0  0  0  0
  -21.3661   -5.6808   24.9187 C   0  0  0  0  0  0
  -21.6035   -4.3067   24.7233 C   0  0  0  0  0  0
  -21.8831   -3.8149   23.4358 C   0  0  0  0  0  0
  -21.9196   -4.6958   22.3411 C   0  0  0  0  0  0
  -22.7856  -13.5242   21.1899 C   0  0  0  0  0  0
  -22.1668   -4.2155   21.0987 F   0  0  0  0  0  0
  -21.5648   -3.4546   25.7743 F   0  0  0  0  0  0
  -30.0321  -13.2404   20.4335 N   0  0  0  0  0  0
  -26.3021  -12.9242   20.3367 N   0  0  0  0  0  0
  -25.9269  -11.6422   20.5759 N   0  0  0  0  0  0
  -22.0530  -12.8177   22.0445 N   0  0  0  0  0  0
  -25.4359  -15.1819   20.4019 N   0  0  0  0  0  0
  -31.8277  -14.6140   20.1084 O   0  0  0  0  0  0
  -21.6629   -6.8863   21.4237 O   0  0  0  0  0  0
  -22.3507  -14.5564   20.6801 O   0  0  0  0  0  0
  -24.6087  -31.8680   23.2104 C   0  0  0  0  0  0
  -25.9004  -32.4820   23.8381 C   0  0  1  0  0  0
  -27.2599  -27.4692   20.0777 C   0  0  0  0  0  0
  -25.5880  -33.8619   24.2295 N   0  0  0  0  0  0
  -23.3938  -30.4884   21.5497 C   0  0  2  0  0  0
  -24.8451  -28.9453   20.1245 C   0  0  0  0  0  0
  -22.7345  -29.4667   22.5032 C   0  0  0  0  0  0
  -18.0242  -28.1367   22.8506 C   0  0  0  0  0  0
  -24.1517  -36.7352   23.2628 C   0  0  0  0  0  0
  -25.9212  -30.8375   21.3632 C   0  0  0  0  0  0
  -25.9998  -29.4712   20.7167 C   0  0  0  0  0  0
  -27.2040  -28.7368   20.6950 C   0  0  0  0  0  0
  -26.0797  -26.9424   19.4983 C   0  0  0  0  0  0
  -24.8766  -27.6745   19.5215 C   0  0  0  0  0  0
  -23.6026  -29.8038   20.1705 C   0  0  0  0  0  0
  -25.4138  -36.3115   24.0311 C   0  0  1  0  0  0
  -20.5815  -28.3634   23.1343 C   0  0  2  0  0  0
  -20.6688  -26.9378   22.5411 C   0  0  0  0  0  0
  -19.5681  -26.6458   21.5167 C   0  0  0  0  0  0
  -18.1869  -26.7947   22.1612 C   0  0  0  0  0  0
  -19.1485  -28.8828   23.2924 C   0  0  0  0  0  0
  -18.9446  -30.1447   23.8912 C   0  0  0  0  0  0
  -17.6453  -30.6609   24.0554 C   0  0  0  0  0  0
  -25.9043  -34.9468   23.5101 C   0  0  0  0  0  0
  -16.5340  -29.9141   23.6291 C   0  0  0  0  0  0
  -16.7248  -28.6551   23.0330 C   0  0  0  0  0  0
  -26.4480  -31.6601   25.0708 C   0  0  0  0  0  0
  -25.3786  -31.3705   26.1497 C   0  0  0  0  0  0
  -27.0309  -30.3032   24.6077 C   0  0  0  0  0  0
  -27.6032  -32.4342   25.7474 C   0  0  0  0  0  0
  -27.5596  -37.1827   24.8447 C   0  0  0  0  0  0
  -21.4090  -29.3000   22.3752 N   0  0  0  0  0  0
  -26.4326  -37.3789   23.9385 N   0  0  0  0  0  0
  -24.6584  -31.0808   22.0987 N   0  0  0  0  0  0
  -23.4150  -28.8241   23.3083 O   0  0  0  0  0  0
  -28.4782  -26.8243   20.0580 O   0  0  0  0  0  0
  -26.5615  -34.8926   22.4672 O   0  0  0  0  0  0
  -23.5292  -32.1424   23.7534 O   0  0  0  0  0  0
  -30.8066  -19.9214   24.0500 C   0  0  0  0  0  0
  -30.5154  -18.5870   22.3068 C   0  0  0  0  0  0
  -29.7757  -20.6810   22.2383 C   0  0  0  0  0  0
  -29.9940  -24.9403   19.5527 C   0  0  0  0  0  0
  -28.1069  -24.4087   20.3466 C   0  0  0  0  0  0
  -29.9157  -16.0265   22.2499 C   0  0  0  0  0  0
  -30.0275  -16.8144   20.3545 C   0  0  0  0  0  0
  -30.6838  -17.2132   21.6767 C   0  0  0  0  0  0
  -29.3077  -23.5909   19.8408 C   0  0  2  0  0  0
  -28.5824  -25.5502   19.4372 C   0  0  1  0  0  0
  -29.0244  -21.7877   21.5202 C   0  0  0  0  0  0
  -30.9932  -18.7125   23.5347 N   0  0  0  0  0  0
  -30.2189  -20.9572   23.4596 N   0  0  0  0  0  0
  -29.9109  -19.5297   21.5890 N   0  0  0  0  0  0
  -29.9033  -15.4509   20.9002 N   0  0  0  0  0  0
  -29.9581  -22.7143   20.8518 N   0  3  0  0  0  0
  -31.4623  -12.3344   19.1212 H   0  0  0  0  0  0
  -30.2926  -11.2452   19.8153 H   0  0  0  0  0  0
  -29.7132  -11.7452   17.4192 H   0  0  0  0  0  0
  -29.6578  -13.4552   17.7663 H   0  0  0  0  0  0
  -27.8376  -11.2780   18.8443 H   0  0  0  0  0  0
  -27.3497  -12.5862   17.7951 H   0  0  0  0  0  0
  -27.7134  -14.2316   19.5689 H   0  0  0  0  0  0
  -28.6553  -11.9267   21.3568 H   0  0  0  0  0  0
  -28.4679  -13.5794   21.8611 H   0  0  0  0  0  0
  -25.2749   -9.5670   22.4767 H   0  0  0  0  0  0
  -24.0018   -7.4579   22.7438 H   0  0  0  0  0  0
  -21.0828   -8.8732   19.8918 H   0  0  0  0  0  0
  -22.3657  -10.9672   19.6178 H   0  0  0  0  0  0
  -21.1950   -7.6147   23.9716 H   0  0  0  0  0  0
  -21.1482   -6.0539   25.9098 H   0  0  0  0  0  0
  -22.0606   -2.7603   23.2861 H   0  0  0  0  0  0
  -22.4172  -11.9795   22.4747 H   0  0  0  0  0  0
  -21.1178  -13.1192   22.2799 H   0  0  0  0  0  0
  -24.6738  -15.8461   20.4822 H   0  0  0  0  0  0
  -26.2972  -15.6041   20.0789 H   0  0  0  0  0  0
  -26.7088  -32.5526   23.1158 H   0  0  0  0  0  0
  -25.0088  -33.9819   25.0468 H   0  0  0  0  0  0
  -22.6794  -31.3047   21.4043 H   0  0  0  0  0  0
  -23.3745  -35.9714   23.3306 H   0  0  0  0  0  0
  -24.3631  -36.8969   22.2041 H   0  0  0  0  0  0
  -23.7308  -37.6572   23.6660 H   0  0  0  0  0  0
  -26.0332  -31.6002   20.5918 H   0  0  0  0  0  0
  -26.8073  -30.8872   21.9848 H   0  0  0  0  0  0
  -28.0979  -29.1446   21.1471 H   0  0  0  0  0  0
  -26.0720  -25.9759   19.0165 H   0  0  0  0  0  0
  -23.9870  -27.2566   19.0725 H   0  0  0  0  0  0
  -23.7045  -30.5634   19.3953 H   0  0  0  0  0  0
  -22.7289  -29.2119   19.8865 H   0  0  0  0  0  0
  -25.1327  -36.1980   25.0800 H   0  0  0  0  0  0
  -20.9935  -28.3196   24.1459 H   0  0  0  0  0  0
  -20.5486  -26.2247   23.3568 H   0  0  0  0  0  0
  -21.6561  -26.7382   22.1231 H   0  0  0  0  0  0
  -19.6827  -25.6437   21.1063 H   0  0  0  0  0  0
  -19.6595  -27.3363   20.6789 H   0  0  0  0  0  0
  -17.4120  -26.6706   21.4053 H   0  0  0  0  0  0
  -18.0312  -26.0075   22.9000 H   0  0  0  0  0  0
  -19.7918  -30.7287   24.2253 H   0  0  0  0  0  0
  -17.5049  -31.6310   24.5095 H   0  0  0  0  0  0
  -15.5359  -30.3113   23.7552 H   0  0  0  0  0  0
  -15.8640  -28.0928   22.6965 H   0  0  0  0  0  0
  -24.5932  -30.7078   25.7877 H   0  0  0  0  0  0
  -24.9037  -32.2860   26.4999 H   0  0  0  0  0  0
  -25.8197  -30.8846   27.0203 H   0  0  0  0  0  0
  -26.2845  -29.6812   24.1133 H   0  0  0  0  0  0
  -27.4077  -29.7263   25.4531 H   0  0  0  0  0  0
  -27.8695  -30.4372   23.9251 H   0  0  0  0  0  0
  -27.2608  -33.3602   26.2120 H   0  0  0  0  0  0
  -28.3818  -32.6966   25.0295 H   0  0  0  0  0  0
  -28.0745  -31.8431   26.5339 H   0  0  0  0  0  0
  -28.2585  -38.0136   24.7482 H   0  0  0  0  0  0
  -28.1122  -36.2659   24.6304 H   0  0  0  0  0  0
  -27.2330  -37.1526   25.8852 H   0  0  0  0  0  0
  -20.9291  -29.8586   21.6837 H   0  0  0  0  0  0
  -26.0212  -38.2885   24.1307 H   0  0  0  0  0  0
  -31.1551  -20.0690   25.0619 H   0  0  0  0  0  0
  -30.5861  -24.9752   18.6367 H   0  0  0  0  0  0
  -30.5593  -25.3365   20.3969 H   0  0  0  0  0  0
  -28.1667  -24.6781   21.4041 H   0  0  0  0  0  0
  -27.1267  -24.0021   20.0928 H   0  0  0  0  0  0
  -30.4820  -15.4688   22.9979 H   0  0  0  0  0  0
  -28.9268  -16.2964   22.6241 H   0  0  0  0  0  0
  -29.0635  -17.2979   20.1749 H   0  0  0  0  0  0
  -30.6802  -16.9278   19.4871 H   0  0  0  0  0  0
  -31.7538  -16.9965   21.6321 H   0  0  0  0  0  0
  -29.0641  -23.0501   18.9222 H   0  0  0  0  0  0
  -28.2082  -25.4996   18.4100 H   0  0  0  0  0  0
  -28.4083  -22.3333   22.2368 H   0  0  0  0  0  0
  -28.3449  -21.3434   20.7931 H   0  0  0  0  0  0
  -30.4394  -23.2338   21.5687 H   0  0  0  0  0  0
  -30.6529  -22.1349   20.4059 H   0  0  0  0  0  0
  1 25  1  0  0  0
  1 30  2  0  0  0
  1 85  1  0  0  0
  2  3  1  0  0  0
  2 25  1  0  0  0
  2 87  1  0  0  0
  2 88  1  0  0  0
  3  4  1  0  0  0
  3 89  1  0  0  0
  3 90  1  0  0  0
  4  5  1  0  0  0
  4 91  1  0  0  0
  4 92  1  0  0  0
  5  6  1  0  0  0
  5 26  1  0  0  0
  5 93  1  0  0  0
  6 25  1  0  0  0
  6 94  1  0  0  0
  6 95  1  0  0  0
  7  8  2  0  0  0
  7 26  1  0  0  0
  7 29  1  0  0  0
  8  9  1  0  0  0
  8 22  1  0  0  0
  9 10  1  0  0  0
  9 27  2  0  0  0
 10 11  2  0  0  0
 10 15  1  0  0  0
 11 12  1  0  0  0
 11 96  1  0  0  0
 12 13  2  0  0  0
 12 97  1  0  0  0
 13 14  1  0  0  0
 13 31  1  0  0  0
 14 15  2  0  0  0
 14 98  1  0  0  0
 15 99  1  0  0  0
 16 17  2  0  0  0
 16 21  1  0  0  0
 16 31  1  0  0  0
 17 18  1  0  0  0
 17100  1  0  0  0
 18 19  2  0  0  0
 18101  1  0  0  0
 19 20  1  0  0  0
 19 24  1  0  0  0
 20 21  2  0  0  0
 20102  1  0  0  0
 21 23  1  0  0  0
 22 28  1  0  0  0
 22 32  2  0  0  0
 26 27  1  0  0  0
 28103  1  0  0  0
 28104  1  0  0  0
 29105  1  0  0  0
 29106  1  0  0  0
 33 34  1  0  0  0
 33 66  1  0  0  0
 33 70  2  0  0  0
 34 36  1  0  0  0
 34 59  1  0  0  0
 34107  1  0  0  0
 35 44  2  0  0  0
 35 45  1  0  0  0
 35 68  1  0  0  0
 36 56  1  0  0  0
 36108  1  0  0  0
 37 39  1  0  0  0
 37 47  1  0  0  0
 37 66  1  0  0  0
 37109  1  0  0  0
 38 43  2  0  0  0
 38 46  1  0  0  0
 38 47  1  0  0  0
 39 64  1  0  0  0
 39 67  2  0  0  0
 40 52  1  0  0  0
 40 53  2  0  0  0
 40 58  1  0  0  0
 41110  1  0  0  0
 41111  1  0  0  0
 41112  1  0  0  0
 41 48  1  0  0  0
 42 43  1  0  0  0
 42 66  1  0  0  0
 42113  1  0  0  0
 42114  1  0  0  0
 43 44  1  0  0  0
 44115  1  0  0  0
 45 46  2  0  0  0
 45116  1  0  0  0
 46117  1  0  0  0
 47118  1  0  0  0
 47119  1  0  0  0
 48 56  1  0  0  0
 48 65  1  0  0  0
 48120  1  0  0  0
 49 50  1  0  0  0
 49 53  1  0  0  0
 49 64  1  0  0  0
 49121  1  0  0  0
 50 51  1  0  0  0
 50122  1  0  0  0
 50123  1  0  0  0
 51 52  1  0  0  0
 51124  1  0  0  0
 51125  1  0  0  0
 52126  1  0  0  0
 52127  1  0  0  0
 53 54  1  0  0  0
 54 55  2  0  0  0
 54128  1  0  0  0
 55 57  1  0  0  0
 55129  1  0  0  0
 56 69  2  0  0  0
 57 58  2  0  0  0
 57130  1  0  0  0
 58131  1  0  0  0
 59 60  1  0  0  0
 59 61  1  0  0  0
 59 62  1  0  0  0
 60132  1  0  0  0
 60133  1  0  0  0
 60134  1  0  0  0
 61135  1  0  0  0
 61136  1  0  0  0
 61137  1  0  0  0
 62138  1  0  0  0
 62139  1  0  0  0
 62140  1  0  0  0
 63 65  1  0  0  0
 63141  1  0  0  0
 63142  1  0  0  0
 63143  1  0  0  0
 64144  1  0  0  0
 65145  1  0  0  0
 68 80  1  0  0  0
 71 82  2  0  0  0
 71 83  1  0  0  0
 71146  1  0  0  0
 72 82  1  0  0  0
 72 84  2  0  0  0
 72 78  1  0  0  0
 73 81  1  0  0  0
 73 83  2  0  0  0
 73 84  1  0  0  0
 74 79  1  0  0  0
 74 80  1  0  0  0
 74147  1  0  0  0
 74148  1  0  0  0
 75 79  1  0  0  0
 75 80  1  0  0  0
 75149  1  0  0  0
 75150  1  0  0  0
 76 78  1  0  0  0
 76 85  1  0  0  0
 76151  1  0  0  0
 76152  1  0  0  0
 77 78  1  0  0  0
 77 85  1  0  0  0
 77153  1  0  0  0
 77154  1  0  0  0
 78155  1  0  0  0
 79 86  1  0  0  0
 79156  1  0  0  0
 80157  1  0  0  0
 81 86  1  0  0  0
 81158  1  0  0  0
 81159  1  0  0  0
 86160  1  0  0  0
 86161  1  0  0  0
M  CHG  1  86   1
M  ISO  4   1 100  68 101  80 101  85 100
M  END
> <chiral flag>
0

> <version>
0

> <s_m_source_file>
/data/baiqing/PycharmProjects/Reinvent-master-3.2/result/LINK_invent/BTK/process_docking_weight1_custom_sum_contain_oxygen_bond_distance_aromatic_linkinvent_7_9_3/rearranged_h_0197.sdf

> <i_m_source_file_index>
3

> <r_mmod_Potential_Energy-OPLS-2005>
-880.583435058594

> <r_mmod_Stretch_Energy-OPLS-2005>
32.4037132263184

> <r_mmod_Bend_Energy-OPLS-2005>
121.719245910645

> <r_mmod_Torsional_Energy-OPLS-2005>
275.55517578125

> <r_mmod_Improper_Torsional_Energy-OPLS-2005>
14.1266746520996

> <r_mmod_Van_der_Waal_Energy-OPLS-2005>
180.886734008789

> <r_mmod_Electrostatic_Energy-OPLS-2005>
-1031.06420898438

> <r_mmod_Solvation_Energy-OPLS-2005>
-486.189300537109

> <b_mmod_Minimization_Converged-OPLS-2005>
0

> <r_mmod_RMS_Derivative-OPLS-2005>
5.03252077102661

$$$$
3
                    3D
 Structure written by MMmdl.
174185  0  0  1  0            999 V2000
  -30.6520  -14.6149   20.4926 C   0  0  0  0  0  0
  -30.4240  -12.3777   19.4478 C   0  0  0  0  0  0
  -29.4989  -12.5029   18.2191 C   0  0  0  0  0  0
  -28.0205  -12.3533   18.6311 C   0  0  0  0  0  0
  -27.6469  -13.2201   19.8643 C   0  0  2  0  0  0
  -28.6952  -13.0926   20.9915 C   0  0  0  0  0  0
  -25.2533  -13.8169   20.5694 C   0  0  0  0  0  0
  -24.1802  -13.0431   20.9190 C   0  0  0  0  0  0
  -24.6382  -11.6904   20.8761 C   0  0  0  0  0  0
  -23.9054  -10.4292   21.0410 C   0  0  0  0  0  0
  -24.3615   -9.4212   21.9186 C   0  0  0  0  0  0
  -23.6302   -8.2243   22.0750 C   0  0  0  0  0  0
  -22.4283   -8.0280   21.3549 C   0  0  0  0  0  0
  -21.9908   -9.0249   20.4641 C   0  0  0  0  0  0
  -22.7230  -10.2132   20.3055 C   0  0  0  0  0  0
  -21.6842   -6.0735   22.5279 C   0  0  0  0  0  0
  -21.4000   -6.5637   23.8210 C   0  0  0  0  0  0
  -21.3675   -5.6795   24.9180 C   0  0  0  0  0  0
  -21.6059   -4.3064   24.7226 C   0  0  0  0  0  0
  -21.8826   -3.8143   23.4345 C   0  0  0  0  0  0
  -21.9184   -4.6960   22.3405 C   0  0  0  0  0  0
  -22.7824  -13.5223   21.1856 C   0  0  0  0  0  0
  -22.1650   -4.2142   21.0983 F   0  0  0  0  0  0
  -21.5650   -3.4551   25.7740 F   0  0  0  0  0  0
  -30.0046  -13.4125   20.4117 N   0  0  0  0  0  0
  -26.2966  -12.9353   20.3365 N   0  0  0  0  0  0
  -25.9319  -11.6512   20.5802 N   0  0  0  0  0  0
  -22.0470  -12.8220   22.0417 N   0  0  0  0  0  0
  -25.4262  -15.1885   20.4116 N   0  0  0  0  0  0
  -31.8356  -14.7292   20.1615 O   0  0  0  0  0  0
  -21.6648   -6.8875   21.4239 O   0  0  0  0  0  0
  -22.3520  -14.5539   20.6713 O   0  0  0  0  0  0
  -24.6226  -31.8602   23.2013 C   0  0  0  0  0  0
  -25.9087  -32.4775   23.8343 C   0  0  1  0  0  0
  -27.2361  -27.3456   20.1064 C   0  0  0  0  0  0
  -25.5911  -33.8577   24.2279 N   0  0  0  0  0  0
  -23.4153  -30.4810   21.5423 C   0  0  2  0  0  0
  -24.8626  -28.9309   20.1096 C   0  0  0  0  0  0
  -22.7459  -29.4626   22.4941 C   0  0  0  0  0  0
  -18.0281  -28.1380   22.8488 C   0  0  0  0  0  0
  -24.1489  -36.7301   23.2639 C   0  0  0  0  0  0
  -25.9511  -30.7973   21.3665 C   0  0  0  0  0  0
  -26.0255  -29.4242   20.7120 C   0  0  0  0  0  0
  -27.2108  -28.6407   20.7029 C   0  0  0  0  0  0
  -26.0487  -26.8844   19.4963 C   0  0  0  0  0  0
  -24.8743  -27.6658   19.4956 C   0  0  0  0  0  0
  -23.6281  -29.8080   20.1588 C   0  0  0  0  0  0
  -25.4112  -36.3086   24.0333 C   0  0  1  0  0  0
  -20.5879  -28.3681   23.1290 C   0  0  2  0  0  0
  -20.6770  -26.9409   22.5412 C   0  0  0  0  0  0
  -19.5750  -26.6383   21.5210 C   0  0  0  0  0  0
  -18.1928  -26.7923   22.1618 C   0  0  0  0  0  0
  -19.1531  -28.8847   23.2885 C   0  0  0  0  0  0
  -18.9457  -30.1448   23.8903 C   0  0  0  0  0  0
  -17.6457  -30.6582   24.0562 C   0  0  0  0  0  0
  -25.9046  -34.9452   23.5107 C   0  0  0  0  0  0
  -16.5351  -29.9084   23.6325 C   0  0  0  0  0  0
  -16.7269  -28.6497   23.0349 C   0  0  0  0  0  0
  -26.4484  -31.6579   25.0707 C   0  0  0  0  0  0
  -25.3728  -31.3712   26.1446 C   0  0  0  0  0  0
  -27.0316  -30.3004   24.6141 C   0  0  0  0  0  0
  -27.6056  -32.4300   25.7471 C   0  0  0  0  0  0
  -27.5581  -37.1806   24.8464 C   0  0  0  0  0  0
  -21.4177  -29.3039   22.3690 N   0  0  0  0  0  0
  -26.4292  -37.3780   23.9405 N   0  0  0  0  0  0
  -24.6816  -31.0634   22.0940 N   0  0  0  0  0  0
  -23.4199  -28.8177   23.3017 O   0  0  0  0  0  0
  -28.3991  -26.5763   20.1628 O   0  0  0  0  0  0
  -26.5619  -34.8919   22.4678 O   0  0  0  0  0  0
  -23.5401  -32.1389   23.7361 O   0  0  0  0  0  0
  -30.9028  -21.1959   18.6730 C   0  0  0  0  0  0
  -28.9882  -21.3005   20.5470 C   0  0  0  0  0  0
  -29.4909  -22.5149   19.9458 C   0  0  0  0  0  0
  -29.5874  -20.0563   20.1379 C   0  0  0  0  0  0
  -28.2983  -21.7201   22.9991 C   0  0  0  0  0  0
  -26.6120  -22.1116   21.1398 C   0  0  0  0  0  0
  -29.9965  -25.0831   19.6108 C   0  0  0  0  0  0
  -28.6920  -17.8045   19.6867 C   0  0  0  0  0  0
  -30.2670  -18.1341   21.5309 C   0  0  0  0  0  0
  -29.5853  -16.5452   19.4283 C   0  0  0  0  0  0
  -29.9968  -16.6136   21.8348 C   0  0  0  0  0  0
  -27.1232  -21.6518   23.9969 C   0  0  0  0  0  0
  -25.4846  -22.0204   22.1851 C   0  0  0  0  0  0
  -27.8516  -21.3023   21.5819 C   0  0  0  0  0  0
  -29.2314  -24.0127   20.3619 C   0  0  1  0  0  0
  -28.4968  -25.2085   19.6258 C   0  0  1  0  0  0
  -30.4469  -22.3953   19.0022 N   0  0  0  0  0  0
  -30.5380  -20.0398   19.1993 N   0  0  0  0  0  0
  -29.2607  -18.7599   20.6520 N   0  0  0  0  0  0
  -29.8738  -15.7388   20.6405 N   0  0  0  0  0  0
  -25.9641  -22.4402   23.5211 N   0  3  0  0  0  0
  -31.4669  -12.4878   19.1450 H   0  0  0  0  0  0
  -30.3423  -11.3866   19.8955 H   0  0  0  0  0  0
  -29.7582  -11.7495   17.4741 H   0  0  0  0  0  0
  -29.6508  -13.4699   17.7389 H   0  0  0  0  0  0
  -27.8447  -11.3002   18.8545 H   0  0  0  0  0  0
  -27.3663  -12.5956   17.7928 H   0  0  0  0  0  0
  -27.6545  -14.2544   19.5244 H   0  0  0  0  0  0
  -28.7016  -12.0842   21.4070 H   0  0  0  0  0  0
  -28.4572  -13.7627   21.8190 H   0  0  0  0  0  0
  -25.2757   -9.5694   22.4768 H   0  0  0  0  0  0
  -24.0016   -7.4634   22.7471 H   0  0  0  0  0  0
  -21.0837   -8.8767   19.8949 H   0  0  0  0  0  0
  -22.3682  -10.9682   19.6173 H   0  0  0  0  0  0
  -21.1974   -7.6140   23.9712 H   0  0  0  0  0  0
  -21.1499   -6.0523   25.9089 H   0  0  0  0  0  0
  -22.0586   -2.7601   23.2841 H   0  0  0  0  0  0
  -22.4061  -11.9866   22.4807 H   0  0  0  0  0  0
  -21.1088  -13.1240   22.2625 H   0  0  0  0  0  0
  -24.6659  -15.8471   20.5357 H   0  0  0  0  0  0
  -26.2933  -15.6286   20.1330 H   0  0  0  0  0  0
  -26.7157  -32.5451   23.1096 H   0  0  0  0  0  0
  -25.0057  -33.9724   25.0422 H   0  0  0  0  0  0
  -22.7078  -31.2999   21.3969 H   0  0  0  0  0  0
  -23.3744  -35.9641   23.3301 H   0  0  0  0  0  0
  -24.3585  -36.8920   22.2054 H   0  0  0  0  0  0
  -23.7244  -37.6506   23.6658 H   0  0  0  0  0  0
  -26.0766  -31.5592   20.5961 H   0  0  0  0  0  0
  -26.8350  -30.8500   21.9913 H   0  0  0  0  0  0
  -28.1069  -29.0174   21.1757 H   0  0  0  0  0  0
  -26.0047  -25.9121   19.0287 H   0  0  0  0  0  0
  -23.9802  -27.2813   19.0244 H   0  0  0  0  0  0
  -23.7421  -30.5803   19.3968 H   0  0  0  0  0  0
  -22.7498  -29.2318   19.8615 H   0  0  0  0  0  0
  -25.1293  -36.1941   25.0827 H   0  0  0  0  0  0
  -20.9970  -28.3249   24.1409 H   0  0  0  0  0  0
  -20.5657  -26.2297   23.3610 H   0  0  0  0  0  0
  -21.6639  -26.7439   22.1206 H   0  0  0  0  0  0
  -19.6911  -25.6294   21.1236 H   0  0  0  0  0  0
  -19.6682  -27.3194   20.6738 H   0  0  0  0  0  0
  -17.4201  -26.6673   21.4018 H   0  0  0  0  0  0
  -18.0329  -26.0062   22.9010 H   0  0  0  0  0  0
  -19.7934  -30.7260   24.2276 H   0  0  0  0  0  0
  -17.5012  -31.6264   24.5162 H   0  0  0  0  0  0
  -15.5347  -30.2988   23.7643 H   0  0  0  0  0  0
  -15.8668  -28.0818   22.7064 H   0  0  0  0  0  0
  -24.5892  -30.7076   25.7772 H   0  0  0  0  0  0
  -24.8936  -32.2879   26.4892 H   0  0  0  0  0  0
  -25.8060  -30.8867   27.0206 H   0  0  0  0  0  0
  -26.2876  -29.6754   24.1188 H   0  0  0  0  0  0
  -27.4045  -29.7258   25.4629 H   0  0  0  0  0  0
  -27.8732  -30.4291   23.9332 H   0  0  0  0  0  0
  -27.2689  -33.3607   26.2048 H   0  0  0  0  0  0
  -28.3871  -32.6841   25.0297 H   0  0  0  0  0  0
  -28.0720  -31.8418   26.5386 H   0  0  0  0  0  0
  -28.2597  -38.0104   24.7509 H   0  0  0  0  0  0
  -28.1079  -36.2636   24.6288 H   0  0  0  0  0  0
  -27.2306  -37.1453   25.8870 H   0  0  0  0  0  0
  -20.9352  -29.8763   21.6901 H   0  0  0  0  0  0
  -26.0175  -38.2859   24.1391 H   0  0  0  0  0  0
  -31.6737  -21.1623   17.9184 H   0  0  0  0  0  0
  -29.0991  -21.0659   23.3457 H   0  0  0  0  0  0
  -28.7086  -22.7267   23.0061 H   0  0  0  0  0  0
  -26.8530  -23.1607   20.9858 H   0  0  0  0  0  0
  -26.2440  -21.7376   20.1827 H   0  0  0  0  0  0
  -30.4177  -24.8864   18.6285 H   0  0  0  0  0  0
  -30.5989  -25.7479   20.2267 H   0  0  0  0  0  0
  -27.7198  -17.4867   20.0645 H   0  0  0  0  0  0
  -28.4873  -18.3052   18.7395 H   0  0  0  0  0  0
  -31.2575  -18.2406   21.0834 H   0  0  0  0  0  0
  -30.3013  -18.6874   22.4704 H   0  0  0  0  0  0
  -30.5256  -16.8598   18.9708 H   0  0  0  0  0  0
  -29.0963  -15.9088   18.6905 H   0  0  0  0  0  0
  -29.0716  -16.5192   22.4054 H   0  0  0  0  0  0
  -30.7840  -16.2407   22.4942 H   0  0  0  0  0  0
  -27.4369  -22.0248   24.9731 H   0  0  0  0  0  0
  -26.8161  -20.6145   24.1431 H   0  0  0  0  0  0
  -25.1058  -20.9984   22.2406 H   0  0  0  0  0  0
  -24.6449  -22.6496   21.8873 H   0  0  0  0  0  0
  -27.4998  -20.2733   21.6676 H   0  0  0  0  0  0
  -29.2771  -24.0870   21.4423 H   0  0  0  0  0  0
  -28.0130  -25.0507   18.6645 H   0  0  0  0  0  0
  -26.2080  -23.4175   23.4994 H   0  0  0  0  0  0
  -25.2092  -22.3391   24.1812 H   0  0  0  0  0  0
  1 25  1  0  0  0
  1 30  2  0  0  0
  1 90  1  0  0  0
  2  3  1  0  0  0
  2 25  1  0  0  0
  2 92  1  0  0  0
  2 93  1  0  0  0
  3  4  1  0  0  0
  3 94  1  0  0  0
  3 95  1  0  0  0
  4  5  1  0  0  0
  4 96  1  0  0  0
  4 97  1  0  0  0
  5  6  1  0  0  0
  5 26  1  0  0  0
  5 98  1  0  0  0
  6 25  1  0  0  0
  6 99  1  0  0  0
  6100  1  0  0  0
  7  8  2  0  0  0
  7 26  1  0  0  0
  7 29  1  0  0  0
  8  9  1  0  0  0
  8 22  1  0  0  0
  9 10  1  0  0  0
  9 27  2  0  0  0
 10 11  2  0  0  0
 10 15  1  0  0  0
 11 12  1  0  0  0
 11101  1  0  0  0
 12 13  2  0  0  0
 12102  1  0  0  0
 13 14  1  0  0  0
 13 31  1  0  0  0
 14 15  2  0  0  0
 14103  1  0  0  0
 15104  1  0  0  0
 16 17  2  0  0  0
 16 21  1  0  0  0
 16 31  1  0  0  0
 17 18  1  0  0  0
 17105  1  0  0  0
 18 19  2  0  0  0
 18106  1  0  0  0
 19 20  1  0  0  0
 19 24  1  0  0  0
 20 21  2  0  0  0
 20107  1  0  0  0
 21 23  1  0  0  0
 22 28  1  0  0  0
 22 32  2  0  0  0
 26 27  1  0  0  0
 28108  1  0  0  0
 28109  1  0  0  0
 29110  1  0  0  0
 29111  1  0  0  0
 33 34  1  0  0  0
 33 66  1  0  0  0
 33 70  2  0  0  0
 34 36  1  0  0  0
 34 59  1  0  0  0
 34112  1  0  0  0
 35 44  2  0  0  0
 35 45  1  0  0  0
 35 68  1  0  0  0
 36 56  1  0  0  0
 36113  1  0  0  0
 37 39  1  0  0  0
 37 47  1  0  0  0
 37 66  1  0  0  0
 37114  1  0  0  0
 38 43  2  0  0  0
 38 46  1  0  0  0
 38 47  1  0  0  0
 39 64  1  0  0  0
 39 67  2  0  0  0
 40 52  1  0  0  0
 40 53  2  0  0  0
 40 58  1  0  0  0
 41115  1  0  0  0
 41116  1  0  0  0
 41117  1  0  0  0
 41 48  1  0  0  0
 42 43  1  0  0  0
 42 66  1  0  0  0
 42118  1  0  0  0
 42119  1  0  0  0
 43 44  1  0  0  0
 44120  1  0  0  0
 45 46  2  0  0  0
 45121  1  0  0  0
 46122  1  0  0  0
 47123  1  0  0  0
 47124  1  0  0  0
 48 56  1  0  0  0
 48 65  1  0  0  0
 48125  1  0  0  0
 49 50  1  0  0  0
 49 53  1  0  0  0
 49 64  1  0  0  0
 49126  1  0  0  0
 50 51  1  0  0  0
 50127  1  0  0  0
 50128  1  0  0  0
 51 52  1  0  0  0
 51129  1  0  0  0
 51130  1  0  0  0
 52131  1  0  0  0
 52132  1  0  0  0
 53 54  1  0  0  0
 54 55  2  0  0  0
 54133  1  0  0  0
 55 57  1  0  0  0
 55134  1  0  0  0
 56 69  2  0  0  0
 57 58  2  0  0  0
 57135  1  0  0  0
 58136  1  0  0  0
 59 60  1  0  0  0
 59 61  1  0  0  0
 59 62  1  0  0  0
 60137  1  0  0  0
 60138  1  0  0  0
 60139  1  0  0  0
 61140  1  0  0  0
 61141  1  0  0  0
 61142  1  0  0  0
 62143  1  0  0  0
 62144  1  0  0  0
 62145  1  0  0  0
 63 65  1  0  0  0
 63146  1  0  0  0
 63147  1  0  0  0
 63148  1  0  0  0
 64149  1  0  0  0
 65150  1  0  0  0
 68 86  1  0  0  0
 71 87  2  0  0  0
 71 88  1  0  0  0
 71151  1  0  0  0
 72 73  2  0  0  0
 72 74  1  0  0  0
 72 84  1  0  0  0
 73 87  1  0  0  0
 73 85  1  0  0  0
 74 88  2  0  0  0
 74 89  1  0  0  0
 75 82  1  0  0  0
 75 84  1  0  0  0
 75152  1  0  0  0
 75153  1  0  0  0
 76 83  1  0  0  0
 76 84  1  0  0  0
 76154  1  0  0  0
 76155  1  0  0  0
 77 85  1  0  0  0
 77 86  1  0  0  0
 77156  1  0  0  0
 77157  1  0  0  0
 78 80  1  0  0  0
 78 89  1  0  0  0
 78158  1  0  0  0
 78159  1  0  0  0
 79 81  1  0  0  0
 79 89  1  0  0  0
 79160  1  0  0  0
 79161  1  0  0  0
 80 90  1  0  0  0
 80162  1  0  0  0
 80163  1  0  0  0
 81 90  1  0  0  0
 81164  1  0  0  0
 81165  1  0  0  0
 82 91  1  0  0  0
 82166  1  0  0  0
 82167  1  0  0  0
 83 91  1  0  0  0
 83168  1  0  0  0
 83169  1  0  0  0
 84170  1  0  0  0
 85 86  1  0  0  0
 85171  1  0  0  0
 86172  1  0  0  0
 91173  1  0  0  0
 91174  1  0  0  0
M  CHG  1  91   1
M  ISO  4   1 100  68 101  86 101  90 100
M  END
> <chiral flag>
0

> <version>
0

> <s_m_source_file>
/data/baiqing/PycharmProjects/Reinvent-master-3.2/result/LINK_invent/BTK/process_docking_weight1_custom_sum_contain_oxygen_bond_distance_aromatic_linkinvent_7_9_3/rearranged_h_0197.sdf

> <i_m_source_file_index>
4

> <r_mmod_Potential_Energy-OPLS-2005>
-230.050430297852

> <r_mmod_Stretch_Energy-OPLS-2005>
80.1880645751953

> <r_mmod_Bend_Energy-OPLS-2005>
172.934677124023

> <r_mmod_Torsional_Energy-OPLS-2005>
437.799957275391

> <r_mmod_Improper_Torsional_Energy-OPLS-2005>
15.6875486373901

> <r_mmod_Van_der_Waal_Energy-OPLS-2005>
165.060073852539

> <r_mmod_Electrostatic_Energy-OPLS-2005>
-655.363952636719

> <r_mmod_Solvation_Energy-OPLS-2005>
-485.684478759766

> <b_mmod_Minimization_Converged-OPLS-2005>
0

> <r_mmod_RMS_Derivative-OPLS-2005>
1.97899580001831

$$$$
4
                    3D
 Structure written by MMmdl.
162171  0  0  1  0            999 V2000
  -30.6673  -14.5815   20.5280 C   0  0  0  0  0  0
  -30.4306  -12.3654   19.4408 C   0  0  0  0  0  0
  -29.5005  -12.5025   18.2167 C   0  0  0  0  0  0
  -28.0238  -12.3493   18.6320 C   0  0  0  0  0  0
  -27.6547  -13.2159   19.8654 C   0  0  2  0  0  0
  -28.7009  -13.0610   20.9925 C   0  0  0  0  0  0
  -25.2565  -13.8171   20.5689 C   0  0  0  0  0  0
  -24.1831  -13.0437   20.9197 C   0  0  0  0  0  0
  -24.6396  -11.6909   20.8743 C   0  0  0  0  0  0
  -23.9061  -10.4294   21.0406 C   0  0  0  0  0  0
  -24.3612   -9.4205   21.9180 C   0  0  0  0  0  0
  -23.6288   -8.2240   22.0748 C   0  0  0  0  0  0
  -22.4272   -8.0280   21.3540 C   0  0  0  0  0  0
  -21.9907   -9.0256   20.4643 C   0  0  0  0  0  0
  -22.7236  -10.2136   20.3051 C   0  0  0  0  0  0
  -21.6856   -6.0732   22.5276 C   0  0  0  0  0  0
  -21.4015   -6.5632   23.8214 C   0  0  0  0  0  0
  -21.3660   -5.6781   24.9171 C   0  0  0  0  0  0
  -21.6045   -4.3043   24.7219 C   0  0  0  0  0  0
  -21.8822   -3.8140   23.4340 C   0  0  0  0  0  0
  -21.9195   -4.6960   22.3397 C   0  0  0  0  0  0
  -22.7858  -13.5233   21.1852 C   0  0  0  0  0  0
  -22.1662   -4.2147   21.0975 F   0  0  0  0  0  0
  -21.5630   -3.4523   25.7728 F   0  0  0  0  0  0
  -30.0192  -13.3827   20.4252 N   0  0  0  0  0  0
  -26.2997  -12.9358   20.3339 N   0  0  0  0  0  0
  -25.9325  -11.6509   20.5772 N   0  0  0  0  0  0
  -22.0486  -12.8234   22.0410 N   0  0  0  0  0  0
  -25.4260  -15.1894   20.4083 N   0  0  0  0  0  0
  -31.8242  -14.7336   20.1310 O   0  0  0  0  0  0
  -21.6633   -6.8878   21.4244 O   0  0  0  0  0  0
  -22.3547  -14.5541   20.6700 O   0  0  0  0  0  0
  -24.6230  -31.8629   23.2072 C   0  0  0  0  0  0
  -25.9102  -32.4792   23.8381 C   0  0  1  0  0  0
  -27.2215  -27.3546   20.1134 C   0  0  0  0  0  0
  -25.5945  -33.8588   24.2318 N   0  0  0  0  0  0
  -23.4140  -30.4886   21.5487 C   0  0  2  0  0  0
  -24.8595  -28.9505   20.1126 C   0  0  0  0  0  0
  -22.7457  -29.4640   22.4956 C   0  0  0  0  0  0
  -18.0277  -28.1380   22.8490 C   0  0  0  0  0  0
  -24.1491  -36.7288   23.2639 C   0  0  0  0  0  0
  -25.9524  -30.8046   21.3739 C   0  0  0  0  0  0
  -26.0267  -29.4351   20.7174 C   0  0  0  0  0  0
  -27.2119  -28.6475   20.7107 C   0  0  0  0  0  0
  -26.0386  -26.9243   19.4692 C   0  0  0  0  0  0
  -24.8656  -27.6986   19.4804 C   0  0  0  0  0  0
  -23.6264  -29.8260   20.1628 C   0  0  0  0  0  0
  -25.4113  -36.3083   24.0338 C   0  0  1  0  0  0
  -20.5878  -28.3678   23.1293 C   0  0  2  0  0  0
  -20.6768  -26.9406   22.5408 C   0  0  0  0  0  0
  -19.5747  -26.6383   21.5207 C   0  0  0  0  0  0
  -18.1926  -26.7930   22.1614 C   0  0  0  0  0  0
  -19.1530  -28.8845   23.2889 C   0  0  0  0  0  0
  -18.9455  -30.1451   23.8894 C   0  0  0  0  0  0
  -17.6457  -30.6585   24.0558 C   0  0  0  0  0  0
  -25.9049  -34.9453   23.5122 C   0  0  0  0  0  0
  -16.5346  -29.9079   23.6331 C   0  0  0  0  0  0
  -16.7266  -28.6496   23.0355 C   0  0  0  0  0  0
  -26.4504  -31.6585   25.0732 C   0  0  0  0  0  0
  -25.3763  -31.3704   26.1476 C   0  0  0  0  0  0
  -27.0336  -30.3012   24.6160 C   0  0  0  0  0  0
  -27.6083  -32.4306   25.7486 C   0  0  0  0  0  0
  -27.5583  -37.1795   24.8465 C   0  0  0  0  0  0
  -21.4174  -29.3037   22.3693 N   0  0  0  0  0  0
  -26.4289  -37.3778   23.9417 N   0  0  0  0  0  0
  -24.6818  -31.0678   22.1005 N   0  0  0  0  0  0
  -23.4205  -28.8180   23.3018 O   0  0  0  0  0  0
  -28.3454  -26.5264   20.1415 O   0  0  0  0  0  0
  -26.5593  -34.8915   22.4672 O   0  0  0  0  0  0
  -23.5407  -32.1409   23.7429 O   0  0  0  0  0  0
  -30.0948  -17.6386   22.4902 C   0  0  0  0  0  0
  -28.9377  -21.8884   21.3887 C   0  0  0  0  0  0
  -29.8597  -19.1625   22.3251 C   0  0  0  0  0  0
  -29.6054  -18.1520   20.2117 C   0  0  0  0  0  0
  -30.3372  -17.0796   21.0817 C   0  0  2  0  0  0
  -28.9156  -20.6140   20.4850 C   0  0  1  0  0  0
  -29.4589  -21.6152   19.4180 C   0  0  1  0  0  0
  -28.9991  -21.5463   17.9673 C   0  0  0  0  0  0
  -29.1987  -24.0553   20.0824 C   0  0  0  0  0  0
  -28.1179  -25.1187   20.5061 C   0  0  0  0  0  0
  -28.7116  -22.6467   20.1550 N   0  0  0  0  0  0
  -29.9186  -15.6467   20.9277 N   0  0  0  0  0  0
  -29.8400  -19.4780   20.8744 N   0  3  1  0  0  0
  -31.4728  -12.4787   19.1373 H   0  0  0  0  0  0
  -30.3516  -11.3677   19.8751 H   0  0  0  0  0  0
  -29.7568  -11.7557   17.4636 H   0  0  0  0  0  0
  -29.6512  -13.4752   17.7458 H   0  0  0  0  0  0
  -27.8538  -11.2964   18.8584 H   0  0  0  0  0  0
  -27.3684  -12.5882   17.7940 H   0  0  0  0  0  0
  -27.6778  -14.2532   19.5313 H   0  0  0  0  0  0
  -28.7017  -12.0403   21.3774 H   0  0  0  0  0  0
  -28.4561  -13.6995   21.8429 H   0  0  0  0  0  0
  -25.2761   -9.5680   22.4750 H   0  0  0  0  0  0
  -23.9997   -7.4629   22.7466 H   0  0  0  0  0  0
  -21.0837   -8.8780   19.8952 H   0  0  0  0  0  0
  -22.3698  -10.9671   19.6154 H   0  0  0  0  0  0
  -21.2005   -7.6139   23.9718 H   0  0  0  0  0  0
  -21.1480   -6.0502   25.9076 H   0  0  0  0  0  0
  -22.0602   -2.7602   23.2830 H   0  0  0  0  0  0
  -22.4087  -11.9882   22.4788 H   0  0  0  0  0  0
  -21.1114  -13.1286   22.2622 H   0  0  0  0  0  0
  -24.6522  -15.8378   20.5062 H   0  0  0  0  0  0
  -26.2637  -15.6262   20.0466 H   0  0  0  0  0  0
  -26.7167  -32.5475   23.1130 H   0  0  0  0  0  0
  -25.0154  -33.9737   25.0505 H   0  0  0  0  0  0
  -22.7059  -31.3082   21.4089 H   0  0  0  0  0  0
  -23.3757  -35.9616   23.3290 H   0  0  0  0  0  0
  -24.3590  -36.8911   22.2055 H   0  0  0  0  0  0
  -23.7235  -37.6488   23.6657 H   0  0  0  0  0  0
  -26.0807  -31.5711   20.6079 H   0  0  0  0  0  0
  -26.8340  -30.8511   22.0017 H   0  0  0  0  0  0
  -28.1072  -29.0145   21.1926 H   0  0  0  0  0  0
  -26.0010  -25.9847   18.9392 H   0  0  0  0  0  0
  -23.9744  -27.3283   18.9917 H   0  0  0  0  0  0
  -23.7422  -30.6022   19.4055 H   0  0  0  0  0  0
  -22.7483  -29.2520   19.8626 H   0  0  0  0  0  0
  -25.1291  -36.1934   25.0830 H   0  0  0  0  0  0
  -20.9968  -28.3240   24.1415 H   0  0  0  0  0  0
  -20.5660  -26.2289   23.3602 H   0  0  0  0  0  0
  -21.6641  -26.7433   22.1209 H   0  0  0  0  0  0
  -19.6908  -25.6293   21.1240 H   0  0  0  0  0  0
  -19.6699  -27.3187   20.6733 H   0  0  0  0  0  0
  -17.4206  -26.6688   21.4004 H   0  0  0  0  0  0
  -18.0317  -26.0064   22.9000 H   0  0  0  0  0  0
  -19.7931  -30.7267   24.2266 H   0  0  0  0  0  0
  -17.5009  -31.6264   24.5159 H   0  0  0  0  0  0
  -15.5345  -30.2975   23.7662 H   0  0  0  0  0  0
  -15.8670  -28.0809   22.7073 H   0  0  0  0  0  0
  -24.5956  -30.7022   25.7819 H   0  0  0  0  0  0
  -24.8930  -32.2856   26.4904 H   0  0  0  0  0  0
  -25.8123  -30.8900   27.0246 H   0  0  0  0  0  0
  -26.2885  -29.6759   24.1226 H   0  0  0  0  0  0
  -27.4082  -29.7273   25.4646 H   0  0  0  0  0  0
  -27.8744  -30.4294   23.9339 H   0  0  0  0  0  0
  -27.2717  -33.3613   26.2061 H   0  0  0  0  0  0
  -28.3892  -32.6845   25.0307 H   0  0  0  0  0  0
  -28.0755  -31.8430   26.5400 H   0  0  0  0  0  0
  -28.2594  -38.0098   24.7516 H   0  0  0  0  0  0
  -28.1081  -36.2627   24.6278 H   0  0  0  0  0  0
  -27.2304  -37.1432   25.8868 H   0  0  0  0  0  0
  -20.9349  -29.8769   21.6913 H   0  0  0  0  0  0
  -26.0170  -38.2854   24.1420 H   0  0  0  0  0  0
  -29.2052  -17.1877   22.9331 H   0  0  0  0  0  0
  -30.9289  -17.4274   23.1605 H   0  0  0  0  0  0
  -29.9108  -22.1334   21.8218 H   0  0  0  0  0  0
  -28.1070  -22.0049   22.0861 H   0  0  0  0  0  0
  -30.6384  -19.7439   22.8191 H   0  0  0  0  0  0
  -28.9105  -19.4327   22.7894 H   0  0  0  0  0  0
  -28.5347  -17.9442   20.1887 H   0  0  0  0  0  0
  -29.9598  -18.1589   19.1805 H   0  0  0  0  0  0
  -31.4054  -17.1627   20.8707 H   0  0  0  0  0  0
  -27.8933  -20.2800   20.2894 H   0  0  0  0  0  0
  -30.5306  -21.8048   19.5302 H   0  0  0  0  0  0
  -27.9262  -21.3671   17.8924 H   0  0  0  0  0  0
  -29.5038  -20.7403   17.4341 H   0  0  0  0  0  0
  -29.2158  -22.4712   17.4326 H   0  0  0  0  0  0
  -30.1198  -24.1845   20.6524 H   0  0  0  0  0  0
  -29.4547  -24.2575   19.0419 H   0  0  0  0  0  0
  -28.0023  -25.0787   21.5898 H   0  0  0  0  0  0
  -27.1748  -24.7470   20.1140 H   0  0  0  0  0  0
  -28.9677  -15.4254   21.1818 H   0  0  0  0  0  0
  -30.7803  -19.7580   20.6391 H   0  0  0  0  0  0
  1 25  1  0  0  0
  1 30  2  0  0  0
  1 82  1  0  0  0
  2  3  1  0  0  0
  2 25  1  0  0  0
  2 84  1  0  0  0
  2 85  1  0  0  0
  3  4  1  0  0  0
  3 86  1  0  0  0
  3 87  1  0  0  0
  4  5  1  0  0  0
  4 88  1  0  0  0
  4 89  1  0  0  0
  5  6  1  0  0  0
  5 26  1  0  0  0
  5 90  1  0  0  0
  6 25  1  0  0  0
  6 91  1  0  0  0
  6 92  1  0  0  0
  7  8  2  0  0  0
  7 26  1  0  0  0
  7 29  1  0  0  0
  8  9  1  0  0  0
  8 22  1  0  0  0
  9 10  1  0  0  0
  9 27  2  0  0  0
 10 11  2  0  0  0
 10 15  1  0  0  0
 11 12  1  0  0  0
 11 93  1  0  0  0
 12 13  2  0  0  0
 12 94  1  0  0  0
 13 14  1  0  0  0
 13 31  1  0  0  0
 14 15  2  0  0  0
 14 95  1  0  0  0
 15 96  1  0  0  0
 16 17  2  0  0  0
 16 21  1  0  0  0
 16 31  1  0  0  0
 17 18  1  0  0  0
 17 97  1  0  0  0
 18 19  2  0  0  0
 18 98  1  0  0  0
 19 20  1  0  0  0
 19 24  1  0  0  0
 20 21  2  0  0  0
 20 99  1  0  0  0
 21 23  1  0  0  0
 22 28  1  0  0  0
 22 32  2  0  0  0
 26 27  1  0  0  0
 28100  1  0  0  0
 28101  1  0  0  0
 29102  1  0  0  0
 29103  1  0  0  0
 33 34  1  0  0  0
 33 66  1  0  0  0
 33 70  2  0  0  0
 34 36  1  0  0  0
 34 59  1  0  0  0
 34104  1  0  0  0
 35 44  2  0  0  0
 35 45  1  0  0  0
 35 68  1  0  0  0
 36 56  1  0  0  0
 36105  1  0  0  0
 37 39  1  0  0  0
 37 47  1  0  0  0
 37 66  1  0  0  0
 37106  1  0  0  0
 38 43  2  0  0  0
 38 46  1  0  0  0
 38 47  1  0  0  0
 39 64  1  0  0  0
 39 67  2  0  0  0
 40 52  1  0  0  0
 40 53  2  0  0  0
 40 58  1  0  0  0
 41107  1  0  0  0
 41108  1  0  0  0
 41109  1  0  0  0
 41 48  1  0  0  0
 42 43  1  0  0  0
 42 66  1  0  0  0
 42110  1  0  0  0
 42111  1  0  0  0
 43 44  1  0  0  0
 44112  1  0  0  0
 45 46  2  0  0  0
 45113  1  0  0  0
 46114  1  0  0  0
 47115  1  0  0  0
 47116  1  0  0  0
 48 56  1  0  0  0
 48 65  1  0  0  0
 48117  1  0  0  0
 49 50  1  0  0  0
 49 53  1  0  0  0
 49 64  1  0  0  0
 49118  1  0  0  0
 50 51  1  0  0  0
 50119  1  0  0  0
 50120  1  0  0  0
 51 52  1  0  0  0
 51121  1  0  0  0
 51122  1  0  0  0
 52123  1  0  0  0
 52124  1  0  0  0
 53 54  1  0  0  0
 54 55  2  0  0  0
 54125  1  0  0  0
 55 57  1  0  0  0
 55126  1  0  0  0
 56 69  2  0  0  0
 57 58  2  0  0  0
 57127  1  0  0  0
 58128  1  0  0  0
 59 60  1  0  0  0
 59 61  1  0  0  0
 59 62  1  0  0  0
 60129  1  0  0  0
 60130  1  0  0  0
 60131  1  0  0  0
 61132  1  0  0  0
 61133  1  0  0  0
 61134  1  0  0  0
 62135  1  0  0  0
 62136  1  0  0  0
 62137  1  0  0  0
 63 65  1  0  0  0
 63138  1  0  0  0
 63139  1  0  0  0
 63140  1  0  0  0
 64141  1  0  0  0
 65142  1  0  0  0
 68 80  1  0  0  0
 71 73  1  0  0  0
 71 75  1  0  0  0
 71143  1  0  0  0
 71144  1  0  0  0
 72 81  1  0  0  0
 72145  1  0  0  0
 72146  1  0  0  0
 72 76  1  0  0  0
 73147  1  0  0  0
 73148  1  0  0  0
 73 83  1  0  0  0
 74 75  1  0  0  0
 74 83  1  0  0  0
 74149  1  0  0  0
 74150  1  0  0  0
 75 82  1  0  0  0
 75151  1  0  0  0
 76 77  1  0  0  0
 76 83  1  0  0  0
 76152  1  0  0  0
 77 78  1  0  0  0
 77 81  1  0  0  0
 77153  1  0  0  0
 78154  1  0  0  0
 78155  1  0  0  0
 78156  1  0  0  0
 79 80  1  0  0  0
 79 81  1  0  0  0
 79157  1  0  0  0
 79158  1  0  0  0
 80159  1  0  0  0
 80160  1  0  0  0
 82161  1  0  0  0
 83162  1  0  0  0
M  CHG  1  83   1
M  ISO  4   1 100  68 101  80 101  82 100
M  END
> <chiral flag>
0

> <version>
0

> <s_m_source_file>
/data/baiqing/PycharmProjects/Reinvent-master-3.2/result/LINK_invent/BTK/process_docking_weight1_custom_sum_contain_oxygen_bond_distance_aromatic_linkinvent_7_9_3/rearranged_h_0197.sdf

> <i_m_source_file_index>
5

> <r_mmod_Potential_Energy-OPLS-2005>
-32.0213775634766

> <r_mmod_Stretch_Energy-OPLS-2005>
59.9213371276855

> <r_mmod_Bend_Energy-OPLS-2005>
170.707122802734

> <r_mmod_Torsional_Energy-OPLS-2005>
289.498077392578

> <r_mmod_Improper_Torsional_Energy-OPLS-2005>
3.78963994979858

> <r_mmod_Van_der_Waal_Energy-OPLS-2005>
127.406318664551

> <r_mmod_Electrostatic_Energy-OPLS-2005>
-258.513885498047

> <r_mmod_Solvation_Energy-OPLS-2005>
-458.536071777344

> <b_mmod_Minimization_Converged-OPLS-2005>
0

> <r_mmod_RMS_Derivative-OPLS-2005>
1.03631436824799

$$$$
5
                    3D
 Structure written by MMmdl.
183193  0  0  1  0            999 V2000
  -30.0031  -13.2349   20.4247 C   0  0  0  0  0  0
  -31.1398  -12.3816   19.6551 C   0  0  0  0  0  0
  -29.8647  -11.9979   18.3709 C   0  0  0  0  0  0
  -28.2295  -12.4875   18.5840 C   0  0  0  0  0  0
  -27.6627  -13.4562   19.8903 C   0  0  2  0  0  0
  -28.8622  -14.0291   21.2024 C   0  0  0  0  0  0
  -25.2358  -13.8979   20.6124 C   0  0  0  0  0  0
  -24.1733  -13.0878   20.9213 C   0  0  0  0  0  0
  -24.6269  -11.7433   20.8207 C   0  0  0  0  0  0
  -23.9239  -10.4643   20.9893 C   0  0  0  0  0  0
  -24.3909   -9.4556   21.8608 C   0  0  0  0  0  0
  -23.6597   -8.2643   22.0646 C   0  0  0  0  0  0
  -22.4545   -8.0521   21.3480 C   0  0  0  0  0  0
  -22.0111   -9.0452   20.4511 C   0  0  0  0  0  0
  -22.7350  -10.2367   20.2744 C   0  0  0  0  0  0
  -21.7006   -6.1111   22.5477 C   0  0  0  0  0  0
  -21.4041   -6.5816   23.8532 C   0  0  0  0  0  0
  -21.3530   -5.6799   24.9322 C   0  0  0  0  0  0
  -21.5968   -4.3067   24.7156 C   0  0  0  0  0  0
  -21.8898   -3.8360   23.4248 C   0  0  0  0  0  0
  -21.9286   -4.7365   22.3419 C   0  0  0  0  0  0
  -22.7651  -13.5389   21.1637 C   0  0  0  0  0  0
  -22.1748   -4.2707   21.0966 F   0  0  0  0  0  0
  -21.5400   -3.4355   25.7530 F   0  0  0  0  0  0
  -30.6317  -13.5186   21.0048 N   0  0  0  0  0  0
  -26.2942  -13.0633   20.3199 N   0  0  0  0  0  0
  -25.8815  -11.7621   20.4002 N   0  0  0  0  0  0
  -22.0119  -12.8222   21.9911 N   0  0  0  0  0  0
  -25.4009  -15.2766   20.5130 N   0  0  0  0  0  0
  -30.1306  -14.2785   19.4496 O   0  0  0  0  0  0
  -21.6785   -6.9166   21.4389 O   0  0  0  0  0  0
  -22.3273  -14.5657   20.6537 O   0  0  0  0  0  0
  -24.6176  -31.8711   23.2102 C   0  0  0  0  0  0
  -25.9071  -32.4836   23.8406 C   0  0  1  0  0  0
  -27.1789  -27.3843   20.1539 C   0  0  0  0  0  0
  -25.5939  -33.8628   24.2350 N   0  0  0  0  0  0
  -23.4055  -30.4997   21.5520 C   0  0  2  0  0  0
  -24.8442  -28.9823   20.1001 C   0  0  0  0  0  0
  -22.7444  -29.4682   22.4971 C   0  0  0  0  0  0
  -18.0296  -28.1395   22.8530 C   0  0  0  0  0  0
  -24.1493  -36.7297   23.2636 C   0  0  0  0  0  0
  -25.9417  -30.8277   21.3695 C   0  0  0  0  0  0
  -26.0106  -29.4651   20.7108 C   0  0  0  0  0  0
  -27.1848  -28.6713   20.7427 C   0  0  0  0  0  0
  -26.0207  -26.9710   19.4515 C   0  0  0  0  0  0
  -24.8474  -27.7389   19.4577 C   0  0  0  0  0  0
  -23.6089  -29.8475   20.1607 C   0  0  0  0  0  0
  -25.4115  -36.3119   24.0344 C   0  0  1  0  0  0
  -20.5883  -28.3671   23.1324 C   0  0  2  0  0  0
  -20.6763  -26.9396   22.5435 C   0  0  0  0  0  0
  -19.5720  -26.6404   21.5243 C   0  0  0  0  0  0
  -18.1899  -26.7959   22.1649 C   0  0  0  0  0  0
  -19.1541  -28.8862   23.2926 C   0  0  0  0  0  0
  -18.9460  -30.1469   23.8920 C   0  0  0  0  0  0
  -17.6443  -30.6588   24.0594 C   0  0  0  0  0  0
  -25.9036  -34.9477   23.5145 C   0  0  0  0  0  0
  -16.5342  -29.9079   23.6349 C   0  0  0  0  0  0
  -16.7274  -28.6513   23.0362 C   0  0  0  0  0  0
  -26.4491  -31.6613   25.0734 C   0  0  0  0  0  0
  -25.3726  -31.3703   26.1456 C   0  0  0  0  0  0
  -27.0366  -30.3072   24.6124 C   0  0  0  0  0  0
  -27.6089  -32.4330   25.7471 C   0  0  0  0  0  0
  -27.5590  -37.1805   24.8483 C   0  0  0  0  0  0
  -21.4154  -29.3042   22.3721 N   0  0  0  0  0  0
  -26.4320  -37.3784   23.9400 N   0  0  0  0  0  0
  -24.6739  -31.0798   22.1015 N   0  0  0  0  0  0
  -23.4211  -28.8185   23.2984 O   0  0  0  0  0  0
  -28.2203  -26.4936   20.3579 O   0  0  0  0  0  0
  -26.5578  -34.8926   22.4676 O   0  0  0  0  0  0
  -23.5376  -32.1491   23.7504 O   0  0  0  0  0  0
  -26.2162  -18.9048   23.1946 C   0  0  0  0  0  0
  -26.0276  -20.2688   23.4591 C   0  0  0  0  0  0
  -25.5445  -17.9860   24.0100 C   0  0  0  0  0  0
  -24.6220  -19.7281   25.1793 C   0  0  0  0  0  0
  -27.8022  -10.9945   22.6300 C   0  0  0  0  0  0
  -28.5442  -10.8728   21.2607 C   0  0  0  0  0  0
  -30.0239  -11.7005   22.6886 C   0  0  0  0  0  0
  -28.0931  -21.8676   22.6952 C   0  0  0  0  0  0
  -26.3407  -22.8520   22.6617 C   0  0  0  0  0  0
  -26.6539  -21.3459   22.5895 C   0  0  2  0  0  0
  -28.7796  -11.6355   23.6094 C   0  0  1  0  0  0
  -23.6489  -20.2142   26.2243 C   0  0  0  0  0  0
  -25.7245  -16.4881   23.8102 C   0  0  0  0  0  0
  -28.3169  -12.9600   24.3775 C   0  0  0  0  0  0
  -26.7886  -13.4143   24.3021 C   0  0  0  0  0  0
  -28.3224  -24.2718   21.7810 C   0  0  0  0  0  0
  -26.2557  -14.5118   25.2802 C   0  0  0  0  0  0
  -27.7495  -25.1267   20.6136 C   0  0  0  0  0  0
  -25.2497  -20.6651   24.4767 N   0  0  0  0  0  0
  -24.7443  -18.4080   25.0148 N   0  0  0  0  0  0
  -29.5680  -11.9137   21.2419 N   0  0  0  0  0  0
  -27.5805  -22.9709   21.8671 N   0  3  1  0  0  0
  -26.5510  -15.9225   24.8922 N   0  3  0  0  0  0
  -32.0464  -12.7471   19.1502 H   0  0  0  0  0  0
  -31.5215  -11.4213   20.0226 H   0  0  0  0  0  0
  -29.9022  -10.9210   18.1995 H   0  0  0  0  0  0
  -30.2277  -12.4131   17.4264 H   0  0  0  0  0  0
  -27.5991  -11.6115   18.4410 H   0  0  0  0  0  0
  -28.0068  -13.0463   17.6699 H   0  0  0  0  0  0
  -27.4810  -14.3844   19.3438 H   0  0  0  0  0  0
  -28.4201  -13.8153   22.1657 H   0  0  0  0  0  0
  -28.8116  -15.1250   21.2483 H   0  0  0  0  0  0
  -25.3193   -9.6368   22.3826 H   0  0  0  0  0  0
  -24.0529   -7.5255   22.7525 H   0  0  0  0  0  0
  -21.1058   -8.8946   19.8876 H   0  0  0  0  0  0
  -22.3654  -10.9889   19.5904 H   0  0  0  0  0  0
  -21.2071   -7.6321   24.0290 H   0  0  0  0  0  0
  -21.1059   -6.0324   25.9286 H   0  0  0  0  0  0
  -22.0748   -2.7843   23.2496 H   0  0  0  0  0  0
  -22.3749  -12.0160   22.4740 H   0  0  0  0  0  0
  -21.0385  -13.0777   22.0967 H   0  0  0  0  0  0
  -24.5803  -15.8633   20.4917 H   0  0  0  0  0  0
  -26.1797  -15.6878   20.0155 H   0  0  0  0  0  0
  -26.7147  -32.5558   23.1177 H   0  0  0  0  0  0
  -25.0172  -33.9774   25.0564 H   0  0  0  0  0  0
  -22.6941  -31.3166   21.4167 H   0  0  0  0  0  0
  -23.3772  -35.9620   23.3345 H   0  0  0  0  0  0
  -24.3600  -36.8859   22.2047 H   0  0  0  0  0  0
  -23.7228  -37.6508   23.6608 H   0  0  0  0  0  0
  -26.0602  -31.5947   20.6029 H   0  0  0  0  0  0
  -26.8267  -30.8758   21.9927 H   0  0  0  0  0  0
  -28.0653  -29.0058   21.2735 H   0  0  0  0  0  0
  -25.9814  -26.0147   18.9503 H   0  0  0  0  0  0
  -23.9542  -27.3605   18.9786 H   0  0  0  0  0  0
  -23.7069  -30.6217   19.3978 H   0  0  0  0  0  0
  -22.7352  -29.2588   19.8765 H   0  0  0  0  0  0
  -25.1290  -36.2011   25.0845 H   0  0  0  0  0  0
  -21.0011  -28.3229   24.1424 H   0  0  0  0  0  0
  -20.5661  -26.2285   23.3631 H   0  0  0  0  0  0
  -21.6628  -26.7390   22.1220 H   0  0  0  0  0  0
  -19.6835  -25.6329   21.1225 H   0  0  0  0  0  0
  -19.6662  -27.3261   20.6807 H   0  0  0  0  0  0
  -17.4184  -26.6835   21.4016 H   0  0  0  0  0  0
  -18.0186  -26.0075   22.9001 H   0  0  0  0  0  0
  -19.7913  -30.7325   24.2279 H   0  0  0  0  0  0
  -17.4971  -31.6255   24.5208 H   0  0  0  0  0  0
  -15.5327  -30.2971   23.7665 H   0  0  0  0  0  0
  -15.8694  -28.0827   22.7035 H   0  0  0  0  0  0
  -24.5859  -30.7129   25.7730 H   0  0  0  0  0  0
  -24.8955  -32.2861   26.4958 H   0  0  0  0  0  0
  -25.8029  -30.8777   27.0182 H   0  0  0  0  0  0
  -26.2946  -29.6779   24.1199 H   0  0  0  0  0  0
  -27.4194  -29.7353   25.4587 H   0  0  0  0  0  0
  -27.8738  -30.4432   23.9272 H   0  0  0  0  0  0
  -27.2729  -33.3602   26.2115 H   0  0  0  0  0  0
  -28.3831  -32.6944   25.0242 H   0  0  0  0  0  0
  -28.0837  -31.8417   26.5308 H   0  0  0  0  0  0
  -28.2646  -38.0064   24.7508 H   0  0  0  0  0  0
  -28.1053  -36.2604   24.6364 H   0  0  0  0  0  0
  -27.2298  -37.1511   25.8882 H   0  0  0  0  0  0
  -20.9301  -29.8814   21.7001 H   0  0  0  0  0  0
  -26.0245  -38.2891   24.1336 H   0  0  0  0  0  0
  -26.8482  -18.5550   22.3897 H   0  0  0  0  0  0
  -27.4941  -10.0032   22.9838 H   0  0  0  0  0  0
  -26.9135  -11.6005   22.5746 H   0  0  0  0  0  0
  -27.9549  -10.7811   20.3695 H   0  0  0  0  0  0
  -29.0544   -9.9180   21.2878 H   0  0  0  0  0  0
  -30.5653  -10.7374   22.7255 H   0  0  0  0  0  0
  -30.7099  -12.4416   23.1036 H   0  0  0  0  0  0
  -28.8482  -21.2315   22.2361 H   0  0  0  0  0  0
  -28.3756  -22.1485   23.7145 H   0  0  0  0  0  0
  -26.4103  -23.2553   23.6777 H   0  0  0  0  0  0
  -25.4145  -23.1668   22.1820 H   0  0  0  0  0  0
  -26.4375  -20.9886   21.5726 H   0  0  0  0  0  0
  -29.0214  -10.9196   24.3928 H   0  0  0  0  0  0
  -23.6156  -21.3059   26.2606 H   0  0  0  0  0  0
  -23.9161  -19.8529   27.2147 H   0  0  0  0  0  0
  -22.6534  -19.8433   25.9917 H   0  0  0  0  0  0
  -26.2061  -16.2822   22.8567 H   0  0  0  0  0  0
  -24.7510  -16.0156   23.7760 H   0  0  0  0  0  0
  -29.0106  -13.7839   24.1852 H   0  0  0  0  0  0
  -28.5258  -12.7406   25.4265 H   0  0  0  0  0  0
  -26.1864  -12.5410   24.5449 H   0  0  0  0  0  0
  -26.4461  -13.6767   23.2948 H   0  0  0  0  0  0
  -28.2772  -24.8063   22.7300 H   0  0  0  0  0  0
  -29.3713  -24.0459   21.5821 H   0  0  0  0  0  0
  -26.5641  -14.3234   26.3113 H   0  0  0  0  0  0
  -25.1576  -14.4174   25.3202 H   0  0  0  0  0  0
  -26.6896  -25.1314   20.8728 H   0  0  0  0  0  0
  -27.8219  -24.5712   19.6763 H   0  0  0  0  0  0
  -27.4091  -22.6027   20.9417 H   0  0  0  0  0  0
  -26.3095  -16.5244   25.6588 H   0  0  0  0  0  0
  -27.5301  -16.0695   24.6983 H   0  0  0  0  0  0
  1 25  1  0  0  0
  1 30  2  0  0  0
  1 91  1  0  0  0
  2  3  1  0  0  0
  2 25  1  0  0  0
  2 94  1  0  0  0
  2 95  1  0  0  0
  3  4  1  0  0  0
  3 96  1  0  0  0
  3 97  1  0  0  0
  4  5  1  0  0  0
  4 98  1  0  0  0
  4 99  1  0  0  0
  5  6  1  0  0  0
  5 26  1  0  0  0
  5100  1  0  0  0
  6 25  1  0  0  0
  6101  1  0  0  0
  6102  1  0  0  0
  7  8  2  0  0  0
  7 26  1  0  0  0
  7 29  1  0  0  0
  8  9  1  0  0  0
  8 22  1  0  0  0
  9 10  1  0  0  0
  9 27  2  0  0  0
 10 11  2  0  0  0
 10 15  1  0  0  0
 11 12  1  0  0  0
 11103  1  0  0  0
 12 13  2  0  0  0
 12104  1  0  0  0
 13 14  1  0  0  0
 13 31  1  0  0  0
 14 15  2  0  0  0
 14105  1  0  0  0
 15106  1  0  0  0
 16 17  2  0  0  0
 16 21  1  0  0  0
 16 31  1  0  0  0
 17 18  1  0  0  0
 17107  1  0  0  0
 18 19  2  0  0  0
 18108  1  0  0  0
 19 20  1  0  0  0
 19 24  1  0  0  0
 20 21  2  0  0  0
 20109  1  0  0  0
 21 23  1  0  0  0
 22 28  1  0  0  0
 22 32  2  0  0  0
 26 27  1  0  0  0
 28110  1  0  0  0
 28111  1  0  0  0
 29112  1  0  0  0
 29113  1  0  0  0
 33 34  1  0  0  0
 33 66  1  0  0  0
 33 70  2  0  0  0
 34 36  1  0  0  0
 34 59  1  0  0  0
 34114  1  0  0  0
 35 44  2  0  0  0
 35 45  1  0  0  0
 35 68  1  0  0  0
 36 56  1  0  0  0
 36115  1  0  0  0
 37 39  1  0  0  0
 37 47  1  0  0  0
 37 66  1  0  0  0
 37116  1  0  0  0
 38 43  2  0  0  0
 38 46  1  0  0  0
 38 47  1  0  0  0
 39 64  1  0  0  0
 39 67  2  0  0  0
 40 52  1  0  0  0
 40 53  2  0  0  0
 40 58  1  0  0  0
 41117  1  0  0  0
 41118  1  0  0  0
 41119  1  0  0  0
 41 48  1  0  0  0
 42 43  1  0  0  0
 42 66  1  0  0  0
 42120  1  0  0  0
 42121  1  0  0  0
 43 44  1  0  0  0
 44122  1  0  0  0
 45 46  2  0  0  0
 45123  1  0  0  0
 46124  1  0  0  0
 47125  1  0  0  0
 47126  1  0  0  0
 48 56  1  0  0  0
 48 65  1  0  0  0
 48127  1  0  0  0
 49 50  1  0  0  0
 49 53  1  0  0  0
 49 64  1  0  0  0
 49128  1  0  0  0
 50 51  1  0  0  0
 50129  1  0  0  0
 50130  1  0  0  0
 51 52  1  0  0  0
 51131  1  0  0  0
 51132  1  0  0  0
 52133  1  0  0  0
 52134  1  0  0  0
 53 54  1  0  0  0
 54 55  2  0  0  0
 54135  1  0  0  0
 55 57  1  0  0  0
 55136  1  0  0  0
 56 69  2  0  0  0
 57 58  2  0  0  0
 57137  1  0  0  0
 58138  1  0  0  0
 59 60  1  0  0  0
 59 61  1  0  0  0
 59 62  1  0  0  0
 60139  1  0  0  0
 60140  1  0  0  0
 60141  1  0  0  0
 61142  1  0  0  0
 61143  1  0  0  0
 61144  1  0  0  0
 62145  1  0  0  0
 62146  1  0  0  0
 62147  1  0  0  0
 63 65  1  0  0  0
 63148  1  0  0  0
 63149  1  0  0  0
 63150  1  0  0  0
 64151  1  0  0  0
 65152  1  0  0  0
 68 88  1  0  0  0
 71 72  2  0  0  0
 71 73  1  0  0  0
 71153  1  0  0  0
 72 89  1  0  0  0
 72 80  1  0  0  0
 73 83  1  0  0  0
 73 90  2  0  0  0
 74 82  1  0  0  0
 74 89  2  0  0  0
 74 90  1  0  0  0
 75 76  1  0  0  0
 75 81  1  0  0  0
 75154  1  0  0  0
 75155  1  0  0  0
 76 91  1  0  0  0
 76156  1  0  0  0
 76157  1  0  0  0
 77 81  1  0  0  0
 77 91  1  0  0  0
 77158  1  0  0  0
 77159  1  0  0  0
 78 80  1  0  0  0
 78 92  1  0  0  0
 78160  1  0  0  0
 78161  1  0  0  0
 79 80  1  0  0  0
 79 92  1  0  0  0
 79162  1  0  0  0
 79163  1  0  0  0
 80164  1  0  0  0
 81 84  1  0  0  0
 81165  1  0  0  0
 82166  1  0  0  0
 82167  1  0  0  0
 82168  1  0  0  0
 83 93  1  0  0  0
 83169  1  0  0  0
 83170  1  0  0  0
 84 85  1  0  0  0
 84171  1  0  0  0
 84172  1  0  0  0
 85 87  1  0  0  0
 85173  1  0  0  0
 85174  1  0  0  0
 86 88  1  0  0  0
 86175  1  0  0  0
 86176  1  0  0  0
 86 92  1  0  0  0
 87 93  1  0  0  0
 87177  1  0  0  0
 87178  1  0  0  0
 88179  1  0  0  0
 88180  1  0  0  0
 92181  1  0  0  0
 93182  1  0  0  0
 93183  1  0  0  0
M  CHG  2  92   1  93   1
M  ISO  4   1 100  68 101  88 101  91 100
M  END
> <chiral flag>
0

> <version>
0

> <s_m_source_file>
/data/baiqing/PycharmProjects/Reinvent-master-3.2/result/LINK_invent/BTK/process_docking_weight1_custom_sum_contain_oxygen_bond_distance_aromatic_linkinvent_7_9_3/rearranged_h_0197.sdf

> <i_m_source_file_index>
6

> <r_mmod_Potential_Energy-OPLS-2005>
3384.021484375

> <r_mmod_Stretch_Energy-OPLS-2005>
1479.09143066406

> <r_mmod_Bend_Energy-OPLS-2005>
1069.27795410156

> <r_mmod_Torsional_Energy-OPLS-2005>
476.123382568359

> <r_mmod_Improper_Torsional_Energy-OPLS-2005>
6.06986284255981

> <r_mmod_Van_der_Waal_Energy-OPLS-2005>
946.761901855469

> <r_mmod_Electrostatic_Energy-OPLS-2005>
-576.107971191406

> <r_mmod_Solvation_Energy-OPLS-2005>
-894.666015625

> <b_mmod_Minimization_Converged-OPLS-2005>
0

> <r_mmod_RMS_Derivative-OPLS-2005>
20.0905170440674

$$$$
6
                    3D
 Structure written by MMmdl.
159168  0  0  1  0            999 V2000
  -30.7509  -13.7016   21.1966 C   0  0  0  0  0  0
  -30.7876  -11.3753   19.4245 C   0  0  0  0  0  0
  -29.6815  -11.6739   17.6829 C   0  0  0  0  0  0
  -28.0523  -12.9254   17.6463 C   0  0  0  0  0  0
  -27.4617  -14.0176   19.2735 C   0  0  2  0  0  0
  -28.3201  -14.1614   21.0215 C   0  0  0  0  0  0
  -25.1734  -14.7319   19.8416 C   0  0  0  0  0  0
  -24.1086  -13.9387   19.8769 C   0  0  0  0  0  0
  -25.0199  -12.9826   20.4970 C   0  0  0  0  0  0
  -24.3997  -10.9677   22.5499 C   0  0  0  0  0  0
  -24.8206   -9.5057   22.6053 C   0  0  0  0  0  0
  -24.1409   -8.2469   22.1927 C   0  0  0  0  0  0
  -22.7970   -8.1651   21.7271 C   0  0  0  0  0  0
  -22.2013   -9.3970   21.8260 C   0  0  0  0  0  0
  -22.9265  -10.3879   22.6557 C   0  0  0  0  0  0
  -21.8053   -6.1350   22.5243 C   0  0  0  0  0  0
  -21.4656   -6.5932   23.8201 C   0  0  0  0  0  0
  -21.3643   -5.6919   24.8999 C   0  0  0  0  0  0
  -21.5823   -4.3177   24.6955 C   0  0  0  0  0  0
  -21.8510   -3.8413   23.4003 C   0  0  0  0  0  0
  -21.9464   -4.7408   22.3190 C   0  0  0  0  0  0
  -22.6035  -14.3249   20.1053 C   0  0  0  0  0  0
  -22.1988   -4.2554   21.0801 F   0  0  0  0  0  0
  -21.5327   -3.4573   25.7411 F   0  0  0  0  0  0
  -30.0961  -12.6763   21.1524 N   0  0  0  0  0  0
  -26.1697  -13.8960   19.5399 N   0  0  0  0  0  0
  -25.6940  -12.7958   19.3799 N   0  0  0  0  0  0
  -21.6012  -13.4259   20.2641 N   0  0  0  0  0  0
  -25.4125  -16.0480   19.9249 N   0  0  0  0  0  0
  -31.6017  -14.3141   20.4876 O   0  0  0  0  0  0
  -22.0317   -7.0198   21.4791 O   0  0  0  0  0  0
  -22.3346  -15.4331   20.4752 O   0  0  0  0  0  0
  -24.7160  -31.7454   23.1299 C   0  0  0  0  0  0
  -25.9613  -32.4129   23.7901 C   0  0  1  0  0  0
  -26.5441  -25.9294   20.6411 C   0  0  0  0  0  0
  -25.6058  -33.8021   24.1691 N   0  0  0  0  0  0
  -23.5384  -30.3602   21.4892 C   0  0  2  0  0  0
  -24.9078  -28.5747   20.1311 C   0  0  0  0  0  0
  -22.7781  -29.4084   22.4543 C   0  0  0  0  0  0
  -18.0332  -28.1432   22.8437 C   0  0  0  0  0  0
  -24.1508  -36.7013   23.2662 C   0  0  0  0  0  0
  -26.1080  -30.2107   21.5241 C   0  0  0  0  0  0
  -26.0376  -28.7028   20.9342 C   0  0  0  0  0  0
  -26.8552  -27.4119   21.1423 C   0  0  0  0  0  0
  -25.6253  -26.2142   19.5881 C   0  0  0  0  0  0
  -24.8161  -27.3858   19.3890 C   0  0  0  0  0  0
  -23.8082  -29.6613   20.1165 C   0  0  0  0  0  0
  -25.4179  -36.2709   24.0237 C   0  0  1  0  0  0
  -20.5963  -28.3791   23.1073 C   0  0  2  0  0  0
  -20.6771  -26.9418   22.5411 C   0  0  0  0  0  0
  -19.5759  -26.6345   21.5217 C   0  0  0  0  0  0
  -18.1942  -26.7955   22.1608 C   0  0  0  0  0  0
  -19.1603  -28.8942   23.2737 C   0  0  0  0  0  0
  -18.9515  -30.1521   23.8795 C   0  0  0  0  0  0
  -17.6505  -30.6607   24.0548 C   0  0  0  0  0  0
  -25.9193  -34.9108   23.4830 C   0  0  0  0  0  0
  -16.5390  -29.9087   23.6359 C   0  0  0  0  0  0
  -16.7314  -28.6513   23.0367 C   0  0  0  0  0  0
  -26.4660  -31.6440   25.0758 C   0  0  0  0  0  0
  -25.3597  -31.3940   26.1285 C   0  0  0  0  0  0
  -27.0692  -30.2709   24.7164 C   0  0  0  0  0  0
  -27.6019  -32.4463   25.7541 C   0  0  0  0  0  0
  -27.5549  -37.1670   24.8468 C   0  0  0  0  0  0
  -21.4415  -29.2974   22.3312 N   0  0  0  0  0  0
  -26.4259  -37.3527   23.9395 N   0  0  0  0  0  0
  -24.8230  -30.8334   22.0908 N   0  0  0  0  0  0
  -23.4076  -28.7716   23.3031 O   0  0  0  0  0  0
  -26.8978  -24.2915   21.0105 O   0  0  0  0  0  0
  -26.5891  -34.8771   22.4490 O   0  0  0  0  0  0
  -23.6127  -32.0917   23.5928 O   0  0  0  0  0  0
  -26.1055  -12.8486   22.5803 C   0  0  0  0  0  0
  -23.4117  -11.5165   20.6251 C   0  0  0  0  0  0
  -24.8243  -14.0246   22.6086 C   0  0  0  0  0  0
  -23.4018  -12.9942   22.1160 C   0  0  0  0  0  0
  -26.4775  -11.4874   21.4777 C   0  0  0  0  0  0
  -28.3647  -11.7174   19.6534 C   0  0  0  0  0  0
  -29.6987  -13.4257   19.1962 C   0  0  0  0  0  0
  -28.1851  -11.6142   20.9859 C   0  0  2  0  0  0
  -25.1942  -16.2245   22.6798 C   0  0  0  0  0  0
  -26.0642  -20.0845   21.9467 C   0  0  0  0  0  0
  -26.1664  -22.3064   21.1423 C   0  0  0  0  0  0
  -25.1183  -10.7341   20.4324 N   0  0  0  0  0  0
  -29.8060  -12.8022   20.6241 N   0  0  0  0  0  0
  -25.4114  -18.1151   21.8500 N   0  3  0  0  0  0
  -21.9938  -13.4587   23.0675 Cl  0  0  0  0  0  0
  -31.8387  -11.5984   19.2259 H   0  0  0  0  0  0
  -30.7911  -10.3242   19.7210 H   0  0  0  0  0  0
  -29.3574  -10.6964   17.3226 H   0  0  0  0  0  0
  -30.3682  -11.9962   16.8980 H   0  0  0  0  0  0
  -27.1987  -12.3879   17.2289 H   0  0  0  0  0  0
  -28.2567  -13.6567   16.8632 H   0  0  0  0  0  0
  -27.5332  -15.0328   18.8760 H   0  0  0  0  0  0
  -27.7320  -14.3984   21.8825 H   0  0  0  0  0  0
  -28.7566  -15.1665   20.9915 H   0  0  0  0  0  0
  -25.8736   -9.3456   22.7856 H   0  0  0  0  0  0
  -24.7083   -7.3290   22.2504 H   0  0  0  0  0  0
  -21.1249   -9.4424   21.7364 H   0  0  0  0  0  0
  -22.1876  -11.0488   23.0618 H   0  0  0  0  0  0
  -21.3264   -7.6487   24.0029 H   0  0  0  0  0  0
  -21.1408   -6.0590   25.8912 H   0  0  0  0  0  0
  -21.9933   -2.7844   23.2344 H   0  0  0  0  0  0
  -21.6555  -12.4827   19.9203 H   0  0  0  0  0  0
  -20.7080  -13.7653   20.5911 H   0  0  0  0  0  0
  -24.5914  -16.5418   19.5891 H   0  0  0  0  0  0
  -26.2174  -16.2996   19.3616 H   0  0  0  0  0  0
  -26.7687  -32.4371   23.0567 H   0  0  0  0  0  0
  -25.0041  -33.9008   24.9734 H   0  0  0  0  0  0
  -22.8949  -31.2208   21.2936 H   0  0  0  0  0  0
  -23.3794  -35.9315   23.3239 H   0  0  0  0  0  0
  -24.3553  -36.8793   22.2094 H   0  0  0  0  0  0
  -23.7254  -37.6142   23.6839 H   0  0  0  0  0  0
  -26.4126  -30.8522   20.6962 H   0  0  0  0  0  0
  -26.9454  -30.2630   22.2029 H   0  0  0  0  0  0
  -27.6437  -27.4926   21.8771 H   0  0  0  0  0  0
  -25.3348  -25.3618   18.9907 H   0  0  0  0  0  0
  -24.0158  -27.3058   18.6662 H   0  0  0  0  0  0
  -24.0983  -30.4141   19.3828 H   0  0  0  0  0  0
  -22.8826  -29.2262   19.7363 H   0  0  0  0  0  0
  -25.1414  -36.1402   25.0725 H   0  0  0  0  0  0
  -21.0055  -28.3465   24.1197 H   0  0  0  0  0  0
  -20.5595  -26.2429   23.3706 H   0  0  0  0  0  0
  -21.6632  -26.7306   22.1258 H   0  0  0  0  0  0
  -19.6900  -25.6227   21.1317 H   0  0  0  0  0  0
  -19.6720  -27.3098   20.6705 H   0  0  0  0  0  0
  -17.4215  -26.6713   21.4006 H   0  0  0  0  0  0
  -18.0306  -26.0123   22.9025 H   0  0  0  0  0  0
  -19.7995  -30.7359   24.2115 H   0  0  0  0  0  0
  -17.5057  -31.6275   24.5173 H   0  0  0  0  0  0
  -15.5386  -30.2958   23.7740 H   0  0  0  0  0  0
  -15.8715  -28.0802   22.7131 H   0  0  0  0  0  0
  -24.5843  -30.7213   25.7597 H   0  0  0  0  0  0
  -24.8724  -32.3216   26.4298 H   0  0  0  0  0  0
  -25.7656  -30.9384   27.0326 H   0  0  0  0  0  0
  -26.3445  -29.6038   24.2491 H   0  0  0  0  0  0
  -27.4131  -29.7529   25.6127 H   0  0  0  0  0  0
  -27.9458  -30.3665   24.0757 H   0  0  0  0  0  0
  -27.2502  -33.3916   26.1686 H   0  0  0  0  0  0
  -28.4008  -32.6782   25.0484 H   0  0  0  0  0  0
  -28.0496  -31.8919   26.5798 H   0  0  0  0  0  0
  -28.2507  -38.0014   24.7496 H   0  0  0  0  0  0
  -28.1102  -36.2525   24.6326 H   0  0  0  0  0  0
  -27.2254  -37.1327   25.8866 H   0  0  0  0  0  0
  -20.9762  -29.8612   21.6335 H   0  0  0  0  0  0
  -26.0035  -38.2553   24.1397 H   0  0  0  0  0  0
  -26.9738  -13.1582   23.1404 H   0  0  0  0  0  0
  -22.5574  -11.0777   20.1295 H   0  0  0  0  0  0
  -28.6822  -10.6761   19.5512 H   0  0  0  0  0  0
  -27.4736  -11.3846   19.1236 H   0  0  0  0  0  0
  -29.5889  -14.5222   19.1382 H   0  0  0  0  0  0
  -30.6273  -13.4588   18.5954 H   0  0  0  0  0  0
  -27.3959  -12.2616   20.9134 H   0  0  0  0  0  0
  -26.1767  -16.1725   23.1465 H   0  0  0  0  0  0
  -24.5290  -16.4778   23.5042 H   0  0  0  0  0  0
  -25.7871  -20.2845   22.9811 H   0  0  0  0  0  0
  -27.1315  -19.8729   22.0017 H   0  0  0  0  0  0
  -25.1136  -22.5659   21.2488 H   0  0  0  0  0  0
  -26.2685  -22.0791   20.0818 H   0  0  0  0  0  0
  -24.4446  -18.2688   21.6161 H   0  0  0  0  0  0
  -25.8192  -17.8070   20.9796 H   0  0  0  0  0  0
  1 25  1  0  0  0
  1 30  2  0  0  0
  1 83  1  0  0  0
  2  3  1  0  0  0
  2 25  1  0  0  0
  2 86  1  0  0  0
  2 87  1  0  0  0
  3  4  1  0  0  0
  3 88  1  0  0  0
  3 89  1  0  0  0
  4  5  1  0  0  0
  4 90  1  0  0  0
  4 91  1  0  0  0
  5  6  1  0  0  0
  5 26  1  0  0  0
  5 92  1  0  0  0
  6 25  1  0  0  0
  6 93  1  0  0  0
  6 94  1  0  0  0
  7  8  2  0  0  0
  7 26  1  0  0  0
  7 29  1  0  0  0
  8  9  1  0  0  0
  8 22  1  0  0  0
  9 10  1  0  0  0
  9 27  2  0  0  0
 10 11  2  0  0  0
 10 15  1  0  0  0
 11 12  1  0  0  0
 11 95  1  0  0  0
 12 13  2  0  0  0
 12 96  1  0  0  0
 13 14  1  0  0  0
 13 31  1  0  0  0
 14 15  2  0  0  0
 14 97  1  0  0  0
 15 98  1  0  0  0
 16 17  2  0  0  0
 16 21  1  0  0  0
 16 31  1  0  0  0
 17 18  1  0  0  0
 17 99  1  0  0  0
 18 19  2  0  0  0
 18100  1  0  0  0
 19 20  1  0  0  0
 19 24  1  0  0  0
 20 21  2  0  0  0
 20101  1  0  0  0
 21 23  1  0  0  0
 22 28  1  0  0  0
 22 32  2  0  0  0
 26 27  1  0  0  0
 28102  1  0  0  0
 28103  1  0  0  0
 29104  1  0  0  0
 29105  1  0  0  0
 33 34  1  0  0  0
 33 66  1  0  0  0
 33 70  2  0  0  0
 34 36  1  0  0  0
 34 59  1  0  0  0
 34106  1  0  0  0
 35 44  2  0  0  0
 35 45  1  0  0  0
 35 68  1  0  0  0
 36 56  1  0  0  0
 36107  1  0  0  0
 37 39  1  0  0  0
 37 47  1  0  0  0
 37 66  1  0  0  0
 37108  1  0  0  0
 38 43  2  0  0  0
 38 46  1  0  0  0
 38 47  1  0  0  0
 39 64  1  0  0  0
 39 67  2  0  0  0
 40 52  1  0  0  0
 40 53  2  0  0  0
 40 58  1  0  0  0
 41109  1  0  0  0
 41110  1  0  0  0
 41111  1  0  0  0
 41 48  1  0  0  0
 42 43  1  0  0  0
 42 66  1  0  0  0
 42112  1  0  0  0
 42113  1  0  0  0
 43 44  1  0  0  0
 44114  1  0  0  0
 45 46  2  0  0  0
 45115  1  0  0  0
 46116  1  0  0  0
 47117  1  0  0  0
 47118  1  0  0  0
 48 56  1  0  0  0
 48 65  1  0  0  0
 48119  1  0  0  0
 49 50  1  0  0  0
 49 53  1  0  0  0
 49 64  1  0  0  0
 49120  1  0  0  0
 50 51  1  0  0  0
 50121  1  0  0  0
 50122  1  0  0  0
 51 52  1  0  0  0
 51123  1  0  0  0
 51124  1  0  0  0
 52125  1  0  0  0
 52126  1  0  0  0
 53 54  1  0  0  0
 54 55  2  0  0  0
 54127  1  0  0  0
 55 57  1  0  0  0
 55128  1  0  0  0
 56 69  2  0  0  0
 57 58  2  0  0  0
 57129  1  0  0  0
 58130  1  0  0  0
 59 60  1  0  0  0
 59 61  1  0  0  0
 59 62  1  0  0  0
 60131  1  0  0  0
 60132  1  0  0  0
 60133  1  0  0  0
 61134  1  0  0  0
 61135  1  0  0  0
 61136  1  0  0  0
 62137  1  0  0  0
 62138  1  0  0  0
 62139  1  0  0  0
 63 65  1  0  0  0
 63140  1  0  0  0
 63141  1  0  0  0
 63142  1  0  0  0
 64143  1  0  0  0
 65144  1  0  0  0
 68 81  1  0  0  0
 71 73  2  0  0  0
 71 75  1  0  0  0
 71145  1  0  0  0
 72 74  2  0  0  0
 72 82  1  0  0  0
 72146  1  0  0  0
 73 74  1  0  0  0
 73 79  1  0  0  0
 74 85  1  0  0  0
 75 82  2  0  0  0
 75 78  1  0  0  0
 76 77  1  0  0  0
 76 78  1  0  0  0
 76147  1  0  0  0
 76148  1  0  0  0
 77 83  1  0  0  0
 77149  1  0  0  0
 77150  1  0  0  0
 78 83  1  0  0  0
 78151  1  0  0  0
 79 84  1  0  0  0
 79152  1  0  0  0
 79153  1  0  0  0
 80 81  1  0  0  0
 80 84  1  0  0  0
 80154  1  0  0  0
 80155  1  0  0  0
 81156  1  0  0  0
 81157  1  0  0  0
 84158  1  0  0  0
 84159  1  0  0  0
M  CHG  1  84   1
M  ISO  4   1 100  68 101  81 101  83 100
M  END
> <chiral flag>
0

> <version>
0

> <s_m_source_file>
/data/baiqing/PycharmProjects/Reinvent-master-3.2/result/LINK_invent/BTK/process_docking_weight1_custom_sum_contain_oxygen_bond_distance_aromatic_linkinvent_7_9_3/rearranged_h_0197.sdf

> <i_m_source_file_index>
7

> <r_mmod_Potential_Energy-OPLS-2005>
28450.060546875

> <r_mmod_Stretch_Energy-OPLS-2005>
14387.37109375

> <r_mmod_Bend_Energy-OPLS-2005>
3234.74438476562

> <r_mmod_Torsional_Energy-OPLS-2005>
890.060424804688

> <r_mmod_Improper_Torsional_Energy-OPLS-2005>
134.898941040039

> <r_mmod_Van_der_Waal_Energy-OPLS-2005>
5372.69091796875

> <r_mmod_Electrostatic_Energy-OPLS-2005>
-448.695190429688

> <r_mmod_Solvation_Energy-OPLS-2005>
-478.554382324219

> <b_mmod_Minimization_Converged-OPLS-2005>
0

> <r_mmod_RMS_Derivative-OPLS-2005>
1.03772115707397

$$$$
7
                    3D
 Structure written by MMmdl.
161171  0  0  1  0            999 V2000
  -30.6297  -14.8224   20.4366 C   0  0  0  0  0  0
  -30.4168  -12.5082   19.4928 C   0  0  0  0  0  0
  -29.5078  -12.5219   18.2463 C   0  0  0  0  0  0
  -28.0387  -12.3285   18.6593 C   0  0  0  0  0  0
  -27.6313  -13.2452   19.8446 C   0  0  2  0  0  0
  -28.6755  -13.2463   20.9827 C   0  0  0  0  0  0
  -25.2454  -13.8211   20.5713 C   0  0  0  0  0  0
  -24.1780  -13.0423   20.9231 C   0  0  0  0  0  0
  -24.6398  -11.6905   20.8756 C   0  0  0  0  0  0
  -23.9082  -10.4272   21.0391 C   0  0  0  0  0  0
  -24.3624   -9.4196   21.9187 C   0  0  0  0  0  0
  -23.6289   -8.2232   22.0756 C   0  0  0  0  0  0
  -22.4272   -8.0266   21.3535 C   0  0  0  0  0  0
  -21.9907   -9.0236   20.4636 C   0  0  0  0  0  0
  -22.7241  -10.2114   20.3045 C   0  0  0  0  0  0
  -21.6857   -6.0720   22.5269 C   0  0  0  0  0  0
  -21.4024   -6.5625   23.8203 C   0  0  0  0  0  0
  -21.3667   -5.6786   24.9176 C   0  0  0  0  0  0
  -21.6049   -4.3043   24.7224 C   0  0  0  0  0  0
  -21.8827   -3.8135   23.4342 C   0  0  0  0  0  0
  -21.9204   -4.6951   22.3398 C   0  0  0  0  0  0
  -22.7801  -13.5189   21.1857 C   0  0  0  0  0  0
  -22.1659   -4.2135   21.0966 F   0  0  0  0  0  0
  -21.5628   -3.4536   25.7744 F   0  0  0  0  0  0
  -29.9648  -13.6072   20.3871 N   0  0  0  0  0  0
  -26.2894  -12.9448   20.3279 N   0  0  0  0  0  0
  -25.9337  -11.6580   20.5776 N   0  0  0  0  0  0
  -22.0459  -12.8182   22.0422 N   0  0  0  0  0  0
  -25.4087  -15.1932   20.4086 N   0  0  0  0  0  0
  -31.8251  -14.8326   20.1322 O   0  0  0  0  0  0
  -21.6644   -6.8857   21.4220 O   0  0  0  0  0  0
  -22.3490  -14.5488   20.6691 O   0  0  0  0  0  0
  -24.6361  -31.8498   23.1956 C   0  0  0  0  0  0
  -25.9177  -32.4721   23.8314 C   0  0  1  0  0  0
  -27.2037  -27.2006   20.1456 C   0  0  0  0  0  0
  -25.5953  -33.8525   24.2232 N   0  0  0  0  0  0
  -23.4335  -30.4720   21.5432 C   0  0  2  0  0  0
  -24.8788  -28.9128   20.1113 C   0  0  0  0  0  0
  -22.7514  -29.4573   22.4936 C   0  0  0  0  0  0
  -18.0281  -28.1377   22.8484 C   0  0  0  0  0  0
  -24.1491  -36.7279   23.2636 C   0  0  0  0  0  0
  -25.9833  -30.7473   21.3814 C   0  0  0  0  0  0
  -26.0537  -29.3648   20.7230 C   0  0  0  0  0  0
  -27.2212  -28.5231   20.7250 C   0  0  0  0  0  0
  -26.0037  -26.8339   19.4974 C   0  0  0  0  0  0
  -24.8621  -27.6595   19.4830 C   0  0  0  0  0  0
  -23.6527  -29.8061   20.1594 C   0  0  0  0  0  0
  -25.4120  -36.3047   24.0316 C   0  0  1  0  0  0
  -20.5892  -28.3690   23.1287 C   0  0  2  0  0  0
  -20.6784  -26.9408   22.5421 C   0  0  0  0  0  0
  -19.5759  -26.6377   21.5230 C   0  0  0  0  0  0
  -18.1935  -26.7918   22.1630 C   0  0  0  0  0  0
  -19.1532  -28.8854   23.2870 C   0  0  0  0  0  0
  -18.9454  -30.1468   23.8870 C   0  0  0  0  0  0
  -17.6449  -30.6575   24.0567 C   0  0  0  0  0  0
  -25.9076  -34.9419   23.5077 C   0  0  0  0  0  0
  -16.5344  -29.9068   23.6342 C   0  0  0  0  0  0
  -16.7266  -28.6489   23.0354 C   0  0  0  0  0  0
  -26.4504  -31.6551   25.0717 C   0  0  0  0  0  0
  -25.3710  -31.3720   26.1430 C   0  0  0  0  0  0
  -27.0348  -30.2955   24.6236 C   0  0  0  0  0  0
  -27.6052  -32.4291   25.7508 C   0  0  0  0  0  0
  -27.5576  -37.1797   24.8459 C   0  0  0  0  0  0
  -21.4225  -29.3025   22.3675 N   0  0  0  0  0  0
  -26.4286  -37.3766   23.9402 N   0  0  0  0  0  0
  -24.7043  -31.0424   22.0956 N   0  0  0  0  0  0
  -23.4196  -28.8116   23.3053 O   0  0  0  0  0  0
  -28.2694  -26.2539   20.2142 O   0  0  0  0  0  0
  -26.5656  -34.8901   22.4656 O   0  0  0  0  0  0
  -23.5514  -32.1351   23.7240 O   0  0  0  0  0  0
  -28.9544  -19.2034   18.2539 C   0  0  0  0  0  0
  -28.5934  -20.4319   17.6537 C   0  0  0  0  0  0
  -29.0818  -19.4370   19.6011 C   0  0  0  0  0  0
  -26.7711  -21.2114   15.9794 C   0  0  0  0  0  0
  -27.1791  -19.8339   15.5214 C   0  0  0  0  0  0
  -28.7811  -16.7277   20.2125 C   0  0  0  0  0  0
  -30.6872  -17.3910   20.6594 C   0  0  0  0  0  0
  -28.1758  -20.7161   16.2408 C   0  0  0  0  0  0
  -29.3361  -18.1771   20.5575 C   0  0  0  0  0  0
  -29.0741  -23.5786   20.4607 C   0  0  0  0  0  0
  -28.7714  -21.9780   20.8014 C   0  0  0  0  0  0
  -27.9647  -24.7551   20.1790 C   0  0  0  0  0  0
  -28.6084  -21.4186   18.5165 N   0  0  0  0  0  0
  -28.8873  -20.8949   19.7307 N   0  0  0  0  0  0
  -30.0050  -16.0518   20.7303 N   0  0  0  0  0  0
  -31.4591  -12.6163   19.1882 H   0  0  0  0  0  0
  -30.3569  -11.5459   20.0044 H   0  0  0  0  0  0
  -29.8091  -11.7406   17.5482 H   0  0  0  0  0  0
  -29.6233  -13.4700   17.7160 H   0  0  0  0  0  0
  -27.9092  -11.2816   18.9369 H   0  0  0  0  0  0
  -27.3813  -12.5013   17.8068 H   0  0  0  0  0  0
  -27.5999  -14.2545   19.4345 H   0  0  0  0  0  0
  -28.7346  -12.2681   21.4632 H   0  0  0  0  0  0
  -28.4042  -13.9657   21.7570 H   0  0  0  0  0  0
  -25.2754   -9.5686   22.4800 H   0  0  0  0  0  0
  -24.0000   -7.4626   22.7476 H   0  0  0  0  0  0
  -21.0847   -8.8752   19.8922 H   0  0  0  0  0  0
  -22.3687  -10.9669   19.6180 H   0  0  0  0  0  0
  -21.2003   -7.6139   23.9701 H   0  0  0  0  0  0
  -21.1492   -6.0517   25.9081 H   0  0  0  0  0  0
  -22.0604   -2.7594   23.2859 H   0  0  0  0  0  0
  -22.4077  -11.9837   22.4803 H   0  0  0  0  0  0
  -21.1076  -13.1207   22.2623 H   0  0  0  0  0  0
  -24.6384  -15.8431   20.5172 H   0  0  0  0  0  0
  -26.2479  -15.6269   20.0483 H   0  0  0  0  0  0
  -26.7231  -32.5347   23.1049 H   0  0  0  0  0  0
  -25.0046  -33.9651   25.0341 H   0  0  0  0  0  0
  -22.7324  -31.2964   21.3983 H   0  0  0  0  0  0
  -23.3754  -35.9611   23.3277 H   0  0  0  0  0  0
  -24.3579  -36.8932   22.2056 H   0  0  0  0  0  0
  -23.7247  -37.6470   23.6690 H   0  0  0  0  0  0
  -26.1234  -31.5038   20.6086 H   0  0  0  0  0  0
  -26.8605  -30.7986   22.0138 H   0  0  0  0  0  0
  -28.1182  -28.8613   21.2255 H   0  0  0  0  0  0
  -25.9068  -25.8769   19.0073 H   0  0  0  0  0  0
  -23.9628  -27.3107   18.9953 H   0  0  0  0  0  0
  -23.7794  -30.5821   19.4039 H   0  0  0  0  0  0
  -22.7678  -29.2448   19.8546 H   0  0  0  0  0  0
  -25.1309  -36.1875   25.0815 H   0  0  0  0  0  0
  -20.9963  -28.3253   24.1419 H   0  0  0  0  0  0
  -20.5699  -26.2289   23.3619 H   0  0  0  0  0  0
  -21.6651  -26.7449   22.1198 H   0  0  0  0  0  0
  -19.6923  -25.6288   21.1254 H   0  0  0  0  0  0
  -19.6689  -27.3192   20.6763 H   0  0  0  0  0  0
  -17.4213  -26.6664   21.4026 H   0  0  0  0  0  0
  -18.0321  -26.0054   22.9011 H   0  0  0  0  0  0
  -19.7933  -30.7305   24.2206 H   0  0  0  0  0  0
  -17.5000  -31.6249   24.5176 H   0  0  0  0  0  0
  -15.5346  -30.2958   23.7687 H   0  0  0  0  0  0
  -15.8668  -28.0811   22.7080 H   0  0  0  0  0  0
  -24.5892  -30.7060   25.7756 H   0  0  0  0  0  0
  -24.8902  -32.2890   26.4839 H   0  0  0  0  0  0
  -25.8011  -30.8900   27.0217 H   0  0  0  0  0  0
  -26.2930  -29.6700   24.1253 H   0  0  0  0  0  0
  -27.3981  -29.7220   25.4774 H   0  0  0  0  0  0
  -27.8831  -30.4197   23.9508 H   0  0  0  0  0  0
  -27.2647  -33.3592   26.2075 H   0  0  0  0  0  0
  -28.3880  -32.6843   25.0351 H   0  0  0  0  0  0
  -28.0696  -31.8415   26.5437 H   0  0  0  0  0  0
  -28.2583  -38.0106   24.7524 H   0  0  0  0  0  0
  -28.1083  -36.2639   24.6259 H   0  0  0  0  0  0
  -27.2293  -37.1411   25.8861 H   0  0  0  0  0  0
  -20.9426  -29.8733   21.6859 H   0  0  0  0  0  0
  -26.0146  -38.2830   24.1419 H   0  0  0  0  0  0
  -29.0353  -18.2505   17.7541 H   0  0  0  0  0  0
  -26.1043  -21.2812   16.8388 H   0  0  0  0  0  0
  -26.6460  -21.9918   15.2325 H   0  0  0  0  0  0
  -27.3171  -19.6824   14.4529 H   0  0  0  0  0  0
  -26.7617  -18.9858   16.0605 H   0  0  0  0  0  0
  -28.6218  -16.5511   19.1480 H   0  0  0  0  0  0
  -27.8768  -16.4863   20.7693 H   0  0  0  0  0  0
  -31.2587  -17.6505   21.5510 H   0  0  0  0  0  0
  -31.3051  -17.5158   19.7700 H   0  0  0  0  0  0
  -28.9832  -21.1496   15.6519 H   0  0  0  0  0  0
  -29.0134  -18.4419   21.5664 H   0  0  0  0  0  0
  -29.8235  -23.6205   19.6699 H   0  0  0  0  0  0
  -29.6108  -23.9380   21.3401 H   0  0  0  0  0  0
  -27.7812  -21.8954   21.2497 H   0  0  0  0  0  0
  -29.4582  -21.6783   21.5928 H   0  0  0  0  0  0
  -27.1446  -24.5924   20.8802 H   0  0  0  0  0  0
  -27.5580  -24.5268   19.1950 H   0  0  0  0  0  0
  1 25  1  0  0  0
  1 30  2  0  0  0
  1 85  1  0  0  0
  2  3  1  0  0  0
  2 25  1  0  0  0
  2 86  1  0  0  0
  2 87  1  0  0  0
  3  4  1  0  0  0
  3 88  1  0  0  0
  3 89  1  0  0  0
  4  5  1  0  0  0
  4 90  1  0  0  0
  4 91  1  0  0  0
  5  6  1  0  0  0
  5 26  1  0  0  0
  5 92  1  0  0  0
  6 25  1  0  0  0
  6 93  1  0  0  0
  6 94  1  0  0  0
  7  8  2  0  0  0
  7 26  1  0  0  0
  7 29  1  0  0  0
  8  9  1  0  0  0
  8 22  1  0  0  0
  9 10  1  0  0  0
  9 27  2  0  0  0
 10 11  2  0  0  0
 10 15  1  0  0  0
 11 12  1  0  0  0
 11 95  1  0  0  0
 12 13  2  0  0  0
 12 96  1  0  0  0
 13 14  1  0  0  0
 13 31  1  0  0  0
 14 15  2  0  0  0
 14 97  1  0  0  0
 15 98  1  0  0  0
 16 17  2  0  0  0
 16 21  1  0  0  0
 16 31  1  0  0  0
 17 18  1  0  0  0
 17 99  1  0  0  0
 18 19  2  0  0  0
 18100  1  0  0  0
 19 20  1  0  0  0
 19 24  1  0  0  0
 20 21  2  0  0  0
 20101  1  0  0  0
 21 23  1  0  0  0
 22 28  1  0  0  0
 22 32  2  0  0  0
 26 27  1  0  0  0
 28102  1  0  0  0
 28103  1  0  0  0
 29104  1  0  0  0
 29105  1  0  0  0
 33 34  1  0  0  0
 33 66  1  0  0  0
 33 70  2  0  0  0
 34 36  1  0  0  0
 34 59  1  0  0  0
 34106  1  0  0  0
 35 44  2  0  0  0
 35 45  1  0  0  0
 35 68  1  0  0  0
 36 56  1  0  0  0
 36107  1  0  0  0
 37 39  1  0  0  0
 37 47  1  0  0  0
 37 66  1  0  0  0
 37108  1  0  0  0
 38 43  2  0  0  0
 38 46  1  0  0  0
 38 47  1  0  0  0
 39 64  1  0  0  0
 39 67  2  0  0  0
 40 52  1  0  0  0
 40 53  2  0  0  0
 40 58  1  0  0  0
 41109  1  0  0  0
 41110  1  0  0  0
 41111  1  0  0  0
 41 48  1  0  0  0
 42 43  1  0  0  0
 42 66  1  0  0  0
 42112  1  0  0  0
 42113  1  0  0  0
 43 44  1  0  0  0
 44114  1  0  0  0
 45 46  2  0  0  0
 45115  1  0  0  0
 46116  1  0  0  0
 47117  1  0  0  0
 47118  1  0  0  0
 48 56  1  0  0  0
 48 65  1  0  0  0
 48119  1  0  0  0
 49 50  1  0  0  0
 49 53  1  0  0  0
 49 64  1  0  0  0
 49120  1  0  0  0
 50 51  1  0  0  0
 50121  1  0  0  0
 50122  1  0  0  0
 51 52  1  0  0  0
 51123  1  0  0  0
 51124  1  0  0  0
 52125  1  0  0  0
 52126  1  0  0  0
 53 54  1  0  0  0
 54 55  2  0  0  0
 54127  1  0  0  0
 55 57  1  0  0  0
 55128  1  0  0  0
 56 69  2  0  0  0
 57 58  2  0  0  0
 57129  1  0  0  0
 58130  1  0  0  0
 59 60  1  0  0  0
 59 61  1  0  0  0
 59 62  1  0  0  0
 60131  1  0  0  0
 60132  1  0  0  0
 60133  1  0  0  0
 61134  1  0  0  0
 61135  1  0  0  0
 61136  1  0  0  0
 62137  1  0  0  0
 62138  1  0  0  0
 62139  1  0  0  0
 63 65  1  0  0  0
 63140  1  0  0  0
 63141  1  0  0  0
 63142  1  0  0  0
 64143  1  0  0  0
 65144  1  0  0  0
 68 82  1  0  0  0
 71 72  1  0  0  0
 71 73  2  0  0  0
 71145  1  0  0  0
 72 83  2  0  0  0
 72 78  1  0  0  0
 73 84  1  0  0  0
 73 79  1  0  0  0
 74 75  1  0  0  0
 74 78  1  0  0  0
 74146  1  0  0  0
 74147  1  0  0  0
 75 78  1  0  0  0
 75148  1  0  0  0
 75149  1  0  0  0
 76 79  1  0  0  0
 76 85  1  0  0  0
 76150  1  0  0  0
 76151  1  0  0  0
 77 79  1  0  0  0
 77 85  1  0  0  0
 77152  1  0  0  0
 77153  1  0  0  0
 78154  1  0  0  0
 79155  1  0  0  0
 80 81  1  0  0  0
 80 82  1  0  0  0
 80156  1  0  0  0
 80157  1  0  0  0
 81 84  1  0  0  0
 81158  1  0  0  0
 81159  1  0  0  0
 82160  1  0  0  0
 82161  1  0  0  0
 83 84  1  0  0  0
M  ISO  4   1 100  68 101  82 101  85 100
M  END
> <chiral flag>
0

> <version>
0

> <s_m_source_file>
/data/baiqing/PycharmProjects/Reinvent-master-3.2/result/LINK_invent/BTK/process_docking_weight1_custom_sum_contain_oxygen_bond_distance_aromatic_linkinvent_7_9_3/rearranged_h_0197.sdf

> <i_m_source_file_index>
8

> <r_mmod_Potential_Energy-OPLS-2005>
382.496673583984

> <r_mmod_Stretch_Energy-OPLS-2005>
170.392654418945

> <r_mmod_Bend_Energy-OPLS-2005>
257.73876953125

> <r_mmod_Torsional_Energy-OPLS-2005>
308.531860351562

> <r_mmod_Improper_Torsional_Energy-OPLS-2005>
8.31057453155518

> <r_mmod_Van_der_Waal_Energy-OPLS-2005>
108.398719787598

> <r_mmod_Electrostatic_Energy-OPLS-2005>
-375.134643554688

> <r_mmod_Solvation_Energy-OPLS-2005>
-222.624237060547

> <b_mmod_Minimization_Converged-OPLS-2005>
0

> <r_mmod_RMS_Derivative-OPLS-2005>
2.7302987575531

$$$$
8
                    3D
 Structure written by MMmdl.
161170  0  0  1  0            999 V2000
  -30.6718  -14.5212   20.5828 C   0  0  0  0  0  0
  -30.4191  -12.3375   19.4272 C   0  0  0  0  0  0
  -29.4937  -12.5062   18.2030 C   0  0  0  0  0  0
  -28.0123  -12.3783   18.6086 C   0  0  0  0  0  0
  -27.6558  -13.2122   19.8684 C   0  0  2  0  0  0
  -28.6943  -13.0032   20.9919 C   0  0  0  0  0  0
  -25.2553  -13.8172   20.5666 C   0  0  0  0  0  0
  -24.1821  -13.0429   20.9169 C   0  0  0  0  0  0
  -24.6382  -11.6899   20.8705 C   0  0  0  0  0  0
  -23.9049  -10.4262   21.0359 C   0  0  0  0  0  0
  -24.3584   -9.4180   21.9134 C   0  0  0  0  0  0
  -23.6244   -8.2228   22.0736 C   0  0  0  0  0  0
  -22.4228   -8.0273   21.3537 C   0  0  0  0  0  0
  -21.9862   -9.0251   20.4638 C   0  0  0  0  0  0
  -22.7205  -10.2108   20.3016 C   0  0  0  0  0  0
  -21.6833   -6.0746   22.5272 C   0  0  0  0  0  0
  -21.4027   -6.5656   23.8210 C   0  0  0  0  0  0
  -21.3642   -5.6789   24.9165 C   0  0  0  0  0  0
  -21.6031   -4.3051   24.7223 C   0  0  0  0  0  0
  -21.8824   -3.8147   23.4341 C   0  0  0  0  0  0
  -21.9192   -4.6968   22.3397 C   0  0  0  0  0  0
  -22.7848  -13.5237   21.1846 C   0  0  0  0  0  0
  -22.1661   -4.2146   21.0964 F   0  0  0  0  0  0
  -21.5589   -3.4552   25.7746 F   0  0  0  0  0  0
  -30.0182  -13.3288   20.4409 N   0  0  0  0  0  0
  -26.2973  -12.9338   20.3300 N   0  0  0  0  0  0
  -25.9300  -11.6502   20.5701 N   0  0  0  0  0  0
  -22.0476  -12.8220   22.0399 N   0  0  0  0  0  0
  -25.4300  -15.1910   20.4108 N   0  0  0  0  0  0
  -31.7695  -14.7312   20.0560 O   0  0  0  0  0  0
  -21.6574   -6.8884   21.4239 O   0  0  0  0  0  0
  -22.3532  -14.5565   20.6727 O   0  0  0  0  0  0
  -24.6144  -31.8676   23.2057 C   0  0  0  0  0  0
  -25.9029  -32.4816   23.8359 C   0  0  1  0  0  0
  -27.2366  -27.4036   20.1119 C   0  0  0  0  0  0
  -25.5884  -33.8619   24.2308 N   0  0  0  0  0  0
  -23.4030  -30.4873   21.5458 C   0  0  2  0  0  0
  -24.8539  -28.9516   20.1068 C   0  0  0  0  0  0
  -22.7407  -29.4658   22.4997 C   0  0  0  0  0  0
  -18.0260  -28.1366   22.8494 C   0  0  0  0  0  0
  -24.1484  -36.7307   23.2636 C   0  0  0  0  0  0
  -25.9334  -30.8273   21.3626 C   0  0  0  0  0  0
  -26.0123  -29.4585   20.7078 C   0  0  0  0  0  0
  -27.2013  -28.6918   20.7044 C   0  0  0  0  0  0
  -26.0596  -26.9203   19.4953 C   0  0  0  0  0  0
  -24.8775  -27.6886   19.4896 C   0  0  0  0  0  0
  -23.6107  -29.8115   20.1627 C   0  0  0  0  0  0
  -25.4102  -36.3102   24.0340 C   0  0  1  0  0  0
  -20.5860  -28.3651   23.1353 C   0  0  2  0  0  0
  -20.6735  -26.9395   22.5440 C   0  0  0  0  0  0
  -19.5723  -26.6382   21.5220 C   0  0  0  0  0  0
  -18.1898  -26.7923   22.1621 C   0  0  0  0  0  0
  -19.1508  -28.8818   23.2922 C   0  0  0  0  0  0
  -18.9430  -30.1428   23.8930 C   0  0  0  0  0  0
  -17.6430  -30.6581   24.0549 C   0  0  0  0  0  0
  -25.9037  -34.9476   23.5120 C   0  0  0  0  0  0
  -16.5328  -29.9077   23.6335 C   0  0  0  0  0  0
  -16.7255  -28.6491   23.0363 C   0  0  0  0  0  0
  -26.4473  -31.6598   25.0705 C   0  0  0  0  0  0
  -25.3734  -31.3694   26.1451 C   0  0  0  0  0  0
  -27.0275  -30.3008   24.6104 C   0  0  0  0  0  0
  -27.6064  -32.4316   25.7437 C   0  0  0  0  0  0
  -27.5603  -37.1784   24.8454 C   0  0  0  0  0  0
  -21.4133  -29.3025   22.3759 N   0  0  0  0  0  0
  -26.4277  -37.3809   23.9433 N   0  0  0  0  0  0
  -24.6679  -31.0766   22.0956 N   0  0  0  0  0  0
  -23.4184  -28.8237   23.3060 O   0  0  0  0  0  0
  -28.4049  -26.6626   20.1921 O   0  0  0  0  0  0
  -26.5627  -34.8945   22.4701 O   0  0  0  0  0  0
  -23.5336  -32.1437   23.7442 O   0  0  0  0  0  0
  -27.3709  -22.0091   19.6013 C   0  0  0  0  0  0
  -28.3453  -21.3468   20.3926 C   0  0  0  0  0  0
  -29.2900  -23.4323   20.8513 C   0  0  0  0  0  0
  -28.3748  -24.0811   19.9648 C   0  0  0  0  0  0
  -30.2017  -17.3316   22.8831 C   0  0  0  0  0  0
  -30.7172  -15.9223   22.5646 C   0  0  0  0  0  0
  -29.3306  -16.6697   20.7805 C   0  0  0  0  0  0
  -29.8748  -17.9338   21.5186 C   0  0  1  0  0  0
  -30.3975  -24.1936   21.5526 C   0  0  0  0  0  0
  -28.4265  -19.7945   20.4068 C   0  0  0  0  0  0
  -28.6223  -25.4949   19.3706 C   0  0  0  0  0  0
  -27.3869  -23.3529   19.3821 N   0  0  0  0  0  0
  -29.2784  -22.0791   21.0655 N   0  0  0  0  0  0
  -30.0564  -15.4818   21.3294 N   0  0  0  0  0  0
  -29.0333  -19.1847   21.6204 N   0  3  0  0  0  0
  -31.4636  -12.4394   19.1287 H   0  0  0  0  0  0
  -30.3307  -11.3299   19.8350 H   0  0  0  0  0  0
  -29.7347  -11.7587   17.4455 H   0  0  0  0  0  0
  -29.6695  -13.4777   17.7373 H   0  0  0  0  0  0
  -27.8043  -11.3243   18.7893 H   0  0  0  0  0  0
  -27.3687  -12.6710   17.7770 H   0  0  0  0  0  0
  -27.6946  -14.2615   19.5752 H   0  0  0  0  0  0
  -28.6777  -11.9700   21.3389 H   0  0  0  0  0  0
  -28.4402  -13.6049   21.8631 H   0  0  0  0  0  0
  -25.2760   -9.5633   22.4672 H   0  0  0  0  0  0
  -23.9950   -7.4627   22.7477 H   0  0  0  0  0  0
  -21.0784   -8.8799   19.8954 H   0  0  0  0  0  0
  -22.3705  -10.9640   19.6088 H   0  0  0  0  0  0
  -21.2050   -7.6159   23.9758 H   0  0  0  0  0  0
  -21.1436   -6.0481   25.9074 H   0  0  0  0  0  0
  -22.0619   -2.7622   23.2827 H   0  0  0  0  0  0
  -22.4078  -11.9855   22.4748 H   0  0  0  0  0  0
  -21.1109  -13.1261   22.2691 H   0  0  0  0  0  0
  -24.6741  -15.8527   20.5432 H   0  0  0  0  0  0
  -26.2927  -15.6209   20.1019 H   0  0  0  0  0  0
  -26.7097  -32.5530   23.1131 H   0  0  0  0  0  0
  -24.9975  -33.9773   25.0399 H   0  0  0  0  0  0
  -22.6900  -31.3021   21.4041 H   0  0  0  0  0  0
  -23.3775  -35.9611   23.3251 H   0  0  0  0  0  0
  -24.3589  -36.8969   22.2063 H   0  0  0  0  0  0
  -23.7205  -37.6477   23.6682 H   0  0  0  0  0  0
  -26.0534  -31.6002   20.6007 H   0  0  0  0  0  0
  -26.8176  -30.8765   21.9871 H   0  0  0  0  0  0
  -28.0950  -29.0847   21.1700 H   0  0  0  0  0  0
  -26.0298  -25.9420   19.0389 H   0  0  0  0  0  0
  -23.9889  -27.2959   19.0146 H   0  0  0  0  0  0
  -23.7029  -30.5768   19.3926 H   0  0  0  0  0  0
  -22.7383  -29.2185   19.8796 H   0  0  0  0  0  0
  -25.1275  -36.1953   25.0830 H   0  0  0  0  0  0
  -20.9944  -28.3200   24.1478 H   0  0  0  0  0  0
  -20.5607  -26.2258   23.3626 H   0  0  0  0  0  0
  -21.6615  -26.7417   22.1270 H   0  0  0  0  0  0
  -19.6878  -25.6293   21.1243 H   0  0  0  0  0  0
  -19.6664  -27.3196   20.6756 H   0  0  0  0  0  0
  -17.4182  -26.6704   21.4000 H   0  0  0  0  0  0
  -18.0271  -26.0046   22.8999 H   0  0  0  0  0  0
  -19.7895  -30.7225   24.2337 H   0  0  0  0  0  0
  -17.4983  -31.6263   24.5136 H   0  0  0  0  0  0
  -15.5327  -30.2968   23.7640 H   0  0  0  0  0  0
  -15.8651  -28.0801   22.7085 H   0  0  0  0  0  0
  -24.5906  -30.7063   25.7767 H   0  0  0  0  0  0
  -24.8934  -32.2841   26.4927 H   0  0  0  0  0  0
  -25.8089  -30.8823   27.0186 H   0  0  0  0  0  0
  -26.2792  -29.6785   24.1190 H   0  0  0  0  0  0
  -27.4024  -29.7260   25.4587 H   0  0  0  0  0  0
  -27.8658  -30.4275   23.9251 H   0  0  0  0  0  0
  -27.2694  -33.3603   26.2057 H   0  0  0  0  0  0
  -28.3822  -32.6908   25.0219 H   0  0  0  0  0  0
  -28.0803  -31.8425   26.5305 H   0  0  0  0  0  0
  -28.2578  -38.0122   24.7575 H   0  0  0  0  0  0
  -28.1132  -36.2670   24.6152 H   0  0  0  0  0  0
  -27.2353  -37.1282   25.8858 H   0  0  0  0  0  0
  -20.9307  -29.8711   21.6951 H   0  0  0  0  0  0
  -26.0175  -38.2878   24.1457 H   0  0  0  0  0  0
  -26.6140  -21.4451   19.0770 H   0  0  0  0  0  0
  -30.9139  -17.9261   23.4579 H   0  0  0  0  0  0
  -29.2912  -17.2363   23.4787 H   0  0  0  0  0  0
  -30.5010  -15.2245   23.3744 H   0  0  0  0  0  0
  -31.8017  -15.9429   22.4316 H   0  0  0  0  0  0
  -29.4484  -16.7557   19.6981 H   0  0  0  0  0  0
  -28.2676  -16.5341   20.9822 H   0  0  0  0  0  0
  -30.8147  -18.2174   21.0420 H   0  0  0  0  0  0
  -31.3634  -23.9188   21.1337 H   0  0  0  0  0  0
  -30.4029  -23.9587   22.6177 H   0  0  0  0  0  0
  -30.2795  -25.2733   21.4628 H   0  0  0  0  0  0
  -28.9586  -19.4739   19.5114 H   0  0  0  0  0  0
  -27.4131  -19.3992   20.3146 H   0  0  0  0  0  0
  -28.1372  -25.6006   18.3988 H   0  0  0  0  0  0
  -29.6832  -25.5210   19.1239 H   0  0  0  0  0  0
  -29.6113  -19.9181   22.0022 H   0  0  0  0  0  0
  -28.2846  -19.0314   22.2744 H   0  0  0  0  0  0
  1 25  1  0  0  0
  1 30  2  0  0  0
  1 84  1  0  0  0
  2  3  1  0  0  0
  2 25  1  0  0  0
  2 86  1  0  0  0
  2 87  1  0  0  0
  3  4  1  0  0  0
  3 88  1  0  0  0
  3 89  1  0  0  0
  4  5  1  0  0  0
  4 90  1  0  0  0
  4 91  1  0  0  0
  5  6  1  0  0  0
  5 26  1  0  0  0
  5 92  1  0  0  0
  6 25  1  0  0  0
  6 93  1  0  0  0
  6 94  1  0  0  0
  7  8  2  0  0  0
  7 26  1  0  0  0
  7 29  1  0  0  0
  8  9  1  0  0  0
  8 22  1  0  0  0
  9 10  1  0  0  0
  9 27  2  0  0  0
 10 11  2  0  0  0
 10 15  1  0  0  0
 11 12  1  0  0  0
 11 95  1  0  0  0
 12 13  2  0  0  0
 12 96  1  0  0  0
 13 14  1  0  0  0
 13 31  1  0  0  0
 14 15  2  0  0  0
 14 97  1  0  0  0
 15 98  1  0  0  0
 16 17  2  0  0  0
 16 21  1  0  0  0
 16 31  1  0  0  0
 17 18  1  0  0  0
 17 99  1  0  0  0
 18 19  2  0  0  0
 18100  1  0  0  0
 19 20  1  0  0  0
 19 24  1  0  0  0
 20 21  2  0  0  0
 20101  1  0  0  0
 21 23  1  0  0  0
 22 28  1  0  0  0
 22 32  2  0  0  0
 26 27  1  0  0  0
 28102  1  0  0  0
 28103  1  0  0  0
 29104  1  0  0  0
 29105  1  0  0  0
 33 34  1  0  0  0
 33 66  1  0  0  0
 33 70  2  0  0  0
 34 36  1  0  0  0
 34 59  1  0  0  0
 34106  1  0  0  0
 35 44  2  0  0  0
 35 45  1  0  0  0
 35 68  1  0  0  0
 36 56  1  0  0  0
 36107  1  0  0  0
 37 39  1  0  0  0
 37 47  1  0  0  0
 37 66  1  0  0  0
 37108  1  0  0  0
 38 43  2  0  0  0
 38 46  1  0  0  0
 38 47  1  0  0  0
 39 64  1  0  0  0
 39 67  2  0  0  0
 40 52  1  0  0  0
 40 53  2  0  0  0
 40 58  1  0  0  0
 41109  1  0  0  0
 41110  1  0  0  0
 41111  1  0  0  0
 41 48  1  0  0  0
 42 43  1  0  0  0
 42 66  1  0  0  0
 42112  1  0  0  0
 42113  1  0  0  0
 43 44  1  0  0  0
 44114  1  0  0  0
 45 46  2  0  0  0
 45115  1  0  0  0
 46116  1  0  0  0
 47117  1  0  0  0
 47118  1  0  0  0
 48 56  1  0  0  0
 48 65  1  0  0  0
 48119  1  0  0  0
 49 50  1  0  0  0
 49 53  1  0  0  0
 49 64  1  0  0  0
 49120  1  0  0  0
 50 51  1  0  0  0
 50121  1  0  0  0
 50122  1  0  0  0
 51 52  1  0  0  0
 51123  1  0  0  0
 51124  1  0  0  0
 52125  1  0  0  0
 52126  1  0  0  0
 53 54  1  0  0  0
 54 55  2  0  0  0
 54127  1  0  0  0
 55 57  1  0  0  0
 55128  1  0  0  0
 56 69  2  0  0  0
 57 58  2  0  0  0
 57129  1  0  0  0
 58130  1  0  0  0
 59 60  1  0  0  0
 59 61  1  0  0  0
 59 62  1  0  0  0
 60131  1  0  0  0
 60132  1  0  0  0
 60133  1  0  0  0
 61134  1  0  0  0
 61135  1  0  0  0
 61136  1  0  0  0
 62137  1  0  0  0
 62138  1  0  0  0
 62139  1  0  0  0
 63 65  1  0  0  0
 63140  1  0  0  0
 63141  1  0  0  0
 63142  1  0  0  0
 64143  1  0  0  0
 65144  1  0  0  0
 68 81  1  0  0  0
 71 72  2  0  0  0
 71 82  1  0  0  0
 71145  1  0  0  0
 72 80  1  0  0  0
 72 83  1  0  0  0
 73 74  1  0  0  0
 73 79  1  0  0  0
 73 83  2  0  0  0
 74 81  1  0  0  0
 74 82  2  0  0  0
 75 76  1  0  0  0
 75 78  1  0  0  0
 75146  1  0  0  0
 75147  1  0  0  0
 76 84  1  0  0  0
 76148  1  0  0  0
 76149  1  0  0  0
 77 78  1  0  0  0
 77 84  1  0  0  0
 77150  1  0  0  0
 77151  1  0  0  0
 78 85  1  0  0  0
 78152  1  0  0  0
 79153  1  0  0  0
 79154  1  0  0  0
 79155  1  0  0  0
 80 85  1  0  0  0
 80156  1  0  0  0
 80157  1  0  0  0
 81158  1  0  0  0
 81159  1  0  0  0
 85160  1  0  0  0
 85161  1  0  0  0
M  CHG  1  85   1
M  ISO  4   1 100  68 101  81 101  84 100
M  END
> <chiral flag>
0

> <version>
0

> <s_m_source_file>
/data/baiqing/PycharmProjects/Reinvent-master-3.2/result/LINK_invent/BTK/process_docking_weight1_custom_sum_contain_oxygen_bond_distance_aromatic_linkinvent_7_9_3/rearranged_h_0197.sdf

> <i_m_source_file_index>
9

> <r_mmod_Potential_Energy-OPLS-2005>
37.2837219238281

> <r_mmod_Stretch_Energy-OPLS-2005>
55.9322814941406

> <r_mmod_Bend_Energy-OPLS-2005>
157.860580444336

> <r_mmod_Torsional_Energy-OPLS-2005>
352.231994628906

> <r_mmod_Improper_Torsional_Energy-OPLS-2005>
7.36370420455933

> <r_mmod_Van_der_Waal_Energy-OPLS-2005>
141.670501708984

> <r_mmod_Electrostatic_Energy-OPLS-2005>
-228.379959106445

> <r_mmod_Solvation_Energy-OPLS-2005>
-468.915130615234

> <b_mmod_Minimization_Converged-OPLS-2005>
0

> <r_mmod_RMS_Derivative-OPLS-2005>
4.59557151794434

$$$$
9
                    3D
 Structure written by MMmdl.
160170  0  0  1  0            999 V2000
  -30.6756  -14.4719   20.6007 C   0  0  0  0  0  0
  -30.4360  -12.3195   19.4080 C   0  0  0  0  0  0
  -29.4968  -12.5250   18.1985 C   0  0  0  0  0  0
  -28.0135  -12.3884   18.6065 C   0  0  0  0  0  0
  -27.6675  -13.1937   19.8888 C   0  0  2  0  0  0
  -28.7142  -12.8906   20.9840 C   0  0  0  0  0  0
  -25.2626  -13.8128   20.5690 C   0  0  0  0  0  0
  -24.1855  -13.0431   20.9178 C   0  0  0  0  0  0
  -24.6383  -11.6890   20.8734 C   0  0  0  0  0  0
  -23.9036  -10.4287   21.0402 C   0  0  0  0  0  0
  -24.3598   -9.4207   21.9178 C   0  0  0  0  0  0
  -23.6281   -8.2241   22.0751 C   0  0  0  0  0  0
  -22.4265   -8.0277   21.3543 C   0  0  0  0  0  0
  -21.9890   -9.0245   20.4646 C   0  0  0  0  0  0
  -22.7209  -10.2127   20.3050 C   0  0  0  0  0  0
  -21.6851   -6.0731   22.5279 C   0  0  0  0  0  0
  -21.4010   -6.5636   23.8211 C   0  0  0  0  0  0
  -21.3662   -5.6790   24.9175 C   0  0  0  0  0  0
  -21.6042   -4.3053   24.7223 C   0  0  0  0  0  0
  -21.8821   -3.8144   23.4344 C   0  0  0  0  0  0
  -21.9190   -4.6960   22.3400 C   0  0  0  0  0  0
  -22.7881  -13.5253   21.1830 C   0  0  0  0  0  0
  -22.1663   -4.2149   21.0976 F   0  0  0  0  0  0
  -21.5632   -3.4536   25.7734 F   0  0  0  0  0  0
  -30.0300  -13.2764   20.4518 N   0  0  0  0  0  0
  -26.3054  -12.9270   20.3429 N   0  0  0  0  0  0
  -25.9307  -11.6445   20.5780 N   0  0  0  0  0  0
  -22.0495  -12.8269   22.0389 N   0  0  0  0  0  0
  -25.4385  -15.1842   20.4087 N   0  0  0  0  0  0
  -31.8019  -14.6587   20.1225 O   0  0  0  0  0  0
  -21.6638   -6.8871   21.4241 O   0  0  0  0  0  0
  -22.3581  -14.5556   20.6664 O   0  0  0  0  0  0
  -24.6102  -31.8684   23.2090 C   0  0  0  0  0  0
  -25.8998  -32.4820   23.8387 C   0  0  1  0  0  0
  -27.2467  -27.4555   20.1042 C   0  0  0  0  0  0
  -25.5869  -33.8626   24.2332 N   0  0  0  0  0  0
  -23.3992  -30.4882   21.5486 C   0  0  2  0  0  0
  -24.8502  -28.9480   20.1215 C   0  0  0  0  0  0
  -22.7385  -29.4661   22.5002 C   0  0  0  0  0  0
  -18.0267  -28.1371   22.8496 C   0  0  0  0  0  0
  -24.1484  -36.7331   23.2636 C   0  0  0  0  0  0
  -25.9239  -30.8412   21.3581 C   0  0  0  0  0  0
  -26.0055  -29.4743   20.7118 C   0  0  0  0  0  0
  -27.2087  -28.7371   20.6944 C   0  0  0  0  0  0
  -26.0777  -26.9296   19.5178 C   0  0  0  0  0  0
  -24.8796  -27.6733   19.5231 C   0  0  0  0  0  0
  -23.6090  -29.8114   20.1662 C   0  0  0  0  0  0
  -25.4102  -36.3124   24.0339 C   0  0  1  0  0  0
  -20.5852  -28.3655   23.1329 C   0  0  2  0  0  0
  -20.6756  -26.9396   22.5423 C   0  0  0  0  0  0
  -19.5741  -26.6384   21.5212 C   0  0  0  0  0  0
  -18.1917  -26.7920   22.1623 C   0  0  0  0  0  0
  -19.1515  -28.8832   23.2908 C   0  0  0  0  0  0
  -18.9445  -30.1437   23.8917 C   0  0  0  0  0  0
  -17.6453  -30.6583   24.0571 C   0  0  0  0  0  0
  -25.9020  -34.9484   23.5142 C   0  0  0  0  0  0
  -16.5343  -29.9088   23.6329 C   0  0  0  0  0  0
  -16.7255  -28.6503   23.0348 C   0  0  0  0  0  0
  -26.4444  -31.6578   25.0695 C   0  0  0  0  0  0
  -25.3740  -31.3651   26.1466 C   0  0  0  0  0  0
  -27.0271  -30.3018   24.6042 C   0  0  0  0  0  0
  -27.6019  -32.4291   25.7452 C   0  0  0  0  0  0
  -27.5584  -37.1821   24.8461 C   0  0  0  0  0  0
  -21.4117  -29.3025   22.3736 N   0  0  0  0  0  0
  -26.4293  -37.3797   23.9408 N   0  0  0  0  0  0
  -24.6623  -31.0796   22.0980 N   0  0  0  0  0  0
  -23.4165  -28.8220   23.3051 O   0  0  0  0  0  0
  -28.4328  -26.7622   20.0524 O   0  0  0  0  0  0
  -26.5585  -34.8930   22.4703 O   0  0  0  0  0  0
  -23.5300  -32.1423   23.7497 O   0  0  0  0  0  0
  -28.1375  -20.0577   20.2405 C   0  0  0  0  0  0
  -29.1789  -19.2918   20.8154 C   0  0  0  0  0  0
  -29.3216  -21.9343   20.7082 C   0  0  0  0  0  0
  -28.2541  -25.8846   22.4008 C   0  0  0  0  0  0
  -29.6818  -25.9876   21.9328 C   0  0  0  0  0  0
  -29.0597  -17.2587   22.4124 C   0  0  0  0  0  0
  -29.1865  -15.7457   22.2039 C   0  0  0  0  0  0
  -30.0800  -16.8674   20.3003 C   0  0  0  0  0  0
  -29.0466  -17.7747   20.9826 C   0  0  2  0  0  0
  -28.5848  -25.6472   20.9375 C   0  0  0  0  0  0
  -28.4445  -24.2749   20.2717 C   0  0  0  0  0  0
  -28.2133  -21.4088   20.1888 N   0  0  0  0  0  0
  -30.2851  -19.9140   21.2979 N   0  0  0  0  0  0
  -30.3512  -21.2573   21.2412 N   0  0  0  0  0  0
  -29.9024  -15.5451   20.9315 N   0  0  0  0  0  0
  -29.4376  -23.3020   20.7353 N   0  0  0  0  0  0
  -31.4765  -12.4450   19.1021 H   0  0  0  0  0  0
  -30.3658  -11.2961   19.7800 H   0  0  0  0  0  0
  -29.7362  -11.8109   17.4093 H   0  0  0  0  0  0
  -29.6658  -13.5162   17.7732 H   0  0  0  0  0  0
  -27.8125  -11.3297   18.7721 H   0  0  0  0  0  0
  -27.3666  -12.6935   17.7832 H   0  0  0  0  0  0
  -27.7296  -14.2521   19.6379 H   0  0  0  0  0  0
  -28.7118  -11.8202   21.1959 H   0  0  0  0  0  0
  -28.4774  -13.3278   21.9475 H   0  0  0  0  0  0
  -25.2740   -9.5698   22.4756 H   0  0  0  0  0  0
  -23.9996   -7.4635   22.7468 H   0  0  0  0  0  0
  -21.0818   -8.8745   19.8959 H   0  0  0  0  0  0
  -22.3647  -10.9663   19.6164 H   0  0  0  0  0  0
  -21.2002   -7.6143   23.9713 H   0  0  0  0  0  0
  -21.1487   -6.0522   25.9078 H   0  0  0  0  0  0
  -22.0599   -2.7607   23.2839 H   0  0  0  0  0  0
  -22.4094  -11.9934   22.4796 H   0  0  0  0  0  0
  -21.1111  -13.1320   22.2569 H   0  0  0  0  0  0
  -24.6743  -15.8424   20.5126 H   0  0  0  0  0  0
  -26.2961  -15.6159   20.0892 H   0  0  0  0  0  0
  -26.7074  -32.5551   23.1153 H   0  0  0  0  0  0
  -25.0039  -33.9799   25.0492 H   0  0  0  0  0  0
  -22.6868  -31.3033   21.4058 H   0  0  0  0  0  0
  -23.3738  -35.9672   23.3300 H   0  0  0  0  0  0
  -24.3576  -36.8940   22.2047 H   0  0  0  0  0  0
  -23.7246  -37.6544   23.6642 H   0  0  0  0  0  0
  -26.0295  -31.6049   20.5865 H   0  0  0  0  0  0
  -26.8136  -30.8982   21.9731 H   0  0  0  0  0  0
  -28.1078  -29.1469   21.1339 H   0  0  0  0  0  0
  -26.0993  -25.9570   19.0468 H   0  0  0  0  0  0
  -23.9908  -27.2614   19.0648 H   0  0  0  0  0  0
  -23.7142  -30.5819   19.4011 H   0  0  0  0  0  0
  -22.7352  -29.2254   19.8759 H   0  0  0  0  0  0
  -25.1277  -36.1993   25.0834 H   0  0  0  0  0  0
  -20.9948  -28.3218   24.1445 H   0  0  0  0  0  0
  -20.5646  -26.2263   23.3602 H   0  0  0  0  0  0
  -21.6634  -26.7433   22.1230 H   0  0  0  0  0  0
  -19.6900  -25.6297   21.1231 H   0  0  0  0  0  0
  -19.6689  -27.3208   20.6752 H   0  0  0  0  0  0
  -17.4193  -26.6669   21.4019 H   0  0  0  0  0  0
  -18.0321  -26.0050   22.9008 H   0  0  0  0  0  0
  -19.7926  -30.7243   24.2295 H   0  0  0  0  0  0
  -17.5015  -31.6266   24.5165 H   0  0  0  0  0  0
  -15.5350  -30.3005   23.7633 H   0  0  0  0  0  0
  -15.8652  -28.0834   22.7051 H   0  0  0  0  0  0
  -24.5880  -30.7033   25.7802 H   0  0  0  0  0  0
  -24.8982  -32.2798   26.5001 H   0  0  0  0  0  0
  -25.8130  -30.8749   27.0163 H   0  0  0  0  0  0
  -26.2833  -29.6821   24.1016 H   0  0  0  0  0  0
  -27.3970  -29.7202   25.4495 H   0  0  0  0  0  0
  -27.8689  -30.4336   23.9242 H   0  0  0  0  0  0
  -27.2631  -33.3562   26.2080 H   0  0  0  0  0  0
  -28.3791  -32.6891   25.0251 H   0  0  0  0  0  0
  -28.0719  -31.8389   26.5326 H   0  0  0  0  0  0
  -28.2606  -38.0112   24.7506 H   0  0  0  0  0  0
  -28.1077  -36.2650   24.6288 H   0  0  0  0  0  0
  -27.2306  -37.1476   25.8864 H   0  0  0  0  0  0
  -20.9263  -29.8739   21.6962 H   0  0  0  0  0  0
  -26.0188  -38.2882   24.1405 H   0  0  0  0  0  0
  -27.2390  -19.5961   19.8576 H   0  0  0  0  0  0
  -27.7577  -26.8074   22.6931 H   0  0  0  0  0  0
  -27.9874  -25.0132   22.9955 H   0  0  0  0  0  0
  -30.3645  -25.2133   22.2738 H   0  0  0  0  0  0
  -30.1169  -26.9838   21.8834 H   0  0  0  0  0  0
  -29.9336  -17.6344   22.9474 H   0  0  0  0  0  0
  -28.1700  -17.5412   22.9766 H   0  0  0  0  0  0
  -28.1704  -15.3627   22.1161 H   0  0  0  0  0  0
  -29.6759  -15.2507   23.0446 H   0  0  0  0  0  0
  -31.0926  -17.2251   20.4937 H   0  0  0  0  0  0
  -29.9363  -16.8259   19.2195 H   0  0  0  0  0  0
  -28.0743  -17.5080   20.5635 H   0  0  0  0  0  0
  -28.5654  -24.3927   19.1945 H   0  0  0  0  0  0
  -27.4311  -23.9073   20.4380 H   0  0  0  0  0  0
  -30.2923  -23.6521   21.1450 H   0  0  0  0  0  0
  1 25  1  0  0  0
  1 30  2  0  0  0
  1 85  1  0  0  0
  2  3  1  0  0  0
  2 25  1  0  0  0
  2 87  1  0  0  0
  2 88  1  0  0  0
  3  4  1  0  0  0
  3 89  1  0  0  0
  3 90  1  0  0  0
  4  5  1  0  0  0
  4 91  1  0  0  0
  4 92  1  0  0  0
  5  6  1  0  0  0
  5 26  1  0  0  0
  5 93  1  0  0  0
  6 25  1  0  0  0
  6 94  1  0  0  0
  6 95  1  0  0  0
  7  8  2  0  0  0
  7 26  1  0  0  0
  7 29  1  0  0  0
  8  9  1  0  0  0
  8 22  1  0  0  0
  9 10  1  0  0  0
  9 27  2  0  0  0
 10 11  2  0  0  0
 10 15  1  0  0  0
 11 12  1  0  0  0
 11 96  1  0  0  0
 12 13  2  0  0  0
 12 97  1  0  0  0
 13 14  1  0  0  0
 13 31  1  0  0  0
 14 15  2  0  0  0
 14 98  1  0  0  0
 15 99  1  0  0  0
 16 17  2  0  0  0
 16 21  1  0  0  0
 16 31  1  0  0  0
 17 18  1  0  0  0
 17100  1  0  0  0
 18 19  2  0  0  0
 18101  1  0  0  0
 19 20  1  0  0  0
 19 24  1  0  0  0
 20 21  2  0  0  0
 20102  1  0  0  0
 21 23  1  0  0  0
 22 28  1  0  0  0
 22 32  2  0  0  0
 26 27  1  0  0  0
 28103  1  0  0  0
 28104  1  0  0  0
 29105  1  0  0  0
 29106  1  0  0  0
 33 34  1  0  0  0
 33 66  1  0  0  0
 33 70  2  0  0  0
 34 36  1  0  0  0
 34 59  1  0  0  0
 34107  1  0  0  0
 35 44  2  0  0  0
 35 45  1  0  0  0
 35 68  1  0  0  0
 36 56  1  0  0  0
 36108  1  0  0  0
 37 39  1  0  0  0
 37 47  1  0  0  0
 37 66  1  0  0  0
 37109  1  0  0  0
 38 43  2  0  0  0
 38 46  1  0  0  0
 38 47  1  0  0  0
 39 64  1  0  0  0
 39 67  2  0  0  0
 40 52  1  0  0  0
 40 53  2  0  0  0
 40 58  1  0  0  0
 41110  1  0  0  0
 41111  1  0  0  0
 41112  1  0  0  0
 41 48  1  0  0  0
 42 43  1  0  0  0
 42 66  1  0  0  0
 42113  1  0  0  0
 42114  1  0  0  0
 43 44  1  0  0  0
 44115  1  0  0  0
 45 46  2  0  0  0
 45116  1  0  0  0
 46117  1  0  0  0
 47118  1  0  0  0
 47119  1  0  0  0
 48 56  1  0  0  0
 48 65  1  0  0  0
 48120  1  0  0  0
 49 50  1  0  0  0
 49 53  1  0  0  0
 49 64  1  0  0  0
 49121  1  0  0  0
 50 51  1  0  0  0
 50122  1  0  0  0
 50123  1  0  0  0
 51 52  1  0  0  0
 51124  1  0  0  0
 51125  1  0  0  0
 52126  1  0  0  0
 52127  1  0  0  0
 53 54  1  0  0  0
 54 55  2  0  0  0
 54128  1  0  0  0
 55 57  1  0  0  0
 55129  1  0  0  0
 56 69  2  0  0  0
 57 58  2  0  0  0
 57130  1  0  0  0
 58131  1  0  0  0
 59 60  1  0  0  0
 59 61  1  0  0  0
 59 62  1  0  0  0
 60132  1  0  0  0
 60133  1  0  0  0
 60134  1  0  0  0
 61135  1  0  0  0
 61136  1  0  0  0
 61137  1  0  0  0
 62138  1  0  0  0
 62139  1  0  0  0
 62140  1  0  0  0
 63 65  1  0  0  0
 63141  1  0  0  0
 63142  1  0  0  0
 63143  1  0  0  0
 64144  1  0  0  0
 65145  1  0  0  0
 68 80  1  0  0  0
 71 72  2  0  0  0
 71 82  1  0  0  0
 71146  1  0  0  0
 72 83  1  0  0  0
 72 79  1  0  0  0
 73 82  2  0  0  0
 73 84  1  0  0  0
 73 86  1  0  0  0
 74 75  1  0  0  0
 74 80  1  0  0  0
 74147  1  0  0  0
 74148  1  0  0  0
 75 80  1  0  0  0
 75149  1  0  0  0
 75150  1  0  0  0
 76 77  1  0  0  0
 76 79  1  0  0  0
 76151  1  0  0  0
 76152  1  0  0  0
 77 85  1  0  0  0
 77153  1  0  0  0
 77154  1  0  0  0
 78 79  1  0  0  0
 78 85  1  0  0  0
 78155  1  0  0  0
 78156  1  0  0  0
 79157  1  0  0  0
 80 81  1  0  0  0
 81 86  1  0  0  0
 81158  1  0  0  0
 81159  1  0  0  0
 83 84  2  0  0  0
 86160  1  0  0  0
M  ISO  4   1 100  68 101  80 101  85 100
M  END
> <chiral flag>
0

> <version>
0

> <s_m_source_file>
/data/baiqing/PycharmProjects/Reinvent-master-3.2/result/LINK_invent/BTK/process_docking_weight1_custom_sum_contain_oxygen_bond_distance_aromatic_linkinvent_7_9_3/rearranged_h_0197.sdf

> <i_m_source_file_index>
10

> <r_mmod_Potential_Energy-OPLS-2005>
12.55335521698

> <r_mmod_Stretch_Energy-OPLS-2005>
40.1415901184082

> <r_mmod_Bend_Energy-OPLS-2005>
151.183563232422

> <r_mmod_Torsional_Energy-OPLS-2005>
363.2490234375

> <r_mmod_Improper_Torsional_Energy-OPLS-2005>
12.3913087844849

> <r_mmod_Van_der_Waal_Energy-OPLS-2005>
157.933990478516

> <r_mmod_Electrostatic_Energy-OPLS-2005>
-491.210357666016

> <r_mmod_Solvation_Energy-OPLS-2005>
-232.175689697266

> <b_mmod_Minimization_Converged-OPLS-2005>
0

> <r_mmod_RMS_Derivative-OPLS-2005>
1.2463858127594

$$$$
10
                    3D
 Structure written by MMmdl.
180191  0  0  1  0            999 V2000
  -30.7601  -14.4679   20.5018 C   0  0  0  0  0  0
  -30.4018  -12.2820   19.4244 C   0  0  0  0  0  0
  -29.4888  -12.4796   18.1944 C   0  0  0  0  0  0
  -28.0064  -12.3637   18.5973 C   0  0  0  0  0  0
  -27.6534  -13.2038   19.8528 C   0  0  2  0  0  0
  -28.7068  -13.0549   20.9766 C   0  0  0  0  0  0
  -25.2608  -13.8134   20.5710 C   0  0  0  0  0  0
  -24.1861  -13.0397   20.9218 C   0  0  0  0  0  0
  -24.6431  -11.6879   20.8769 C   0  0  0  0  0  0
  -23.9090  -10.4252   21.0411 C   0  0  0  0  0  0
  -24.3658   -9.4158   21.9170 C   0  0  0  0  0  0
  -23.6321   -8.2205   22.0747 C   0  0  0  0  0  0
  -22.4288   -8.0250   21.3543 C   0  0  0  0  0  0
  -21.9906   -9.0213   20.4642 C   0  0  0  0  0  0
  -22.7266  -10.2079   20.3051 C   0  0  0  0  0  0
  -21.6846   -6.0712   22.5257 C   0  0  0  0  0  0
  -21.4023   -6.5637   23.8199 C   0  0  0  0  0  0
  -21.3652   -5.6799   24.9157 C   0  0  0  0  0  0
  -21.6022   -4.3065   24.7232 C   0  0  0  0  0  0
  -21.8838   -3.8144   23.4370 C   0  0  0  0  0  0
  -21.9209   -4.6947   22.3416 C   0  0  0  0  0  0
  -22.7899  -13.5215   21.1887 C   0  0  0  0  0  0
  -22.1712   -4.2114   21.1004 F   0  0  0  0  0  0
  -21.5593   -3.4564   25.7771 F   0  0  0  0  0  0
  -30.0339  -13.3183   20.4028 N   0  0  0  0  0  0
  -26.3022  -12.9300   20.3298 N   0  0  0  0  0  0
  -25.9354  -11.6462   20.5723 N   0  0  0  0  0  0
  -22.0572  -12.8142   22.0435 N   0  0  0  0  0  0
  -25.4245  -15.1840   20.4137 N   0  0  0  0  0  0
  -31.9239  -14.5364   20.0979 O   0  0  0  0  0  0
  -21.6647   -6.8848   21.4225 O   0  0  0  0  0  0
  -22.3563  -14.5485   20.6710 O   0  0  0  0  0  0
  -24.6122  -31.8713   23.2126 C   0  0  0  0  0  0
  -25.9034  -32.4820   23.8398 C   0  0  1  0  0  0
  -27.2083  -27.4459   20.0871 C   0  0  0  0  0  0
  -25.5896  -33.8615   24.2324 N   0  0  0  0  0  0
  -23.3960  -30.4998   21.5542 C   0  0  2  0  0  0
  -24.8329  -28.9744   20.1147 C   0  0  0  0  0  0
  -22.7386  -29.4678   22.4986 C   0  0  0  0  0  0
  -18.0279  -28.1372   22.8495 C   0  0  0  0  0  0
  -24.1486  -36.7306   23.2633 C   0  0  0  0  0  0
  -25.9277  -30.8367   21.3697 C   0  0  0  0  0  0
  -25.9974  -29.4777   20.7079 C   0  0  0  0  0  0
  -27.1902  -28.7226   20.6899 C   0  0  0  0  0  0
  -26.0219  -26.9578   19.4878 C   0  0  0  0  0  0
  -24.8397  -27.7117   19.5052 C   0  0  0  0  0  0
  -23.5991  -29.8426   20.1666 C   0  0  0  0  0  0
  -25.4107  -36.3101   24.0336 C   0  0  1  0  0  0
  -20.5866  -28.3653   23.1318 C   0  0  2  0  0  0
  -20.6760  -26.9392   22.5416 C   0  0  0  0  0  0
  -19.5740  -26.6384   21.5204 C   0  0  0  0  0  0
  -18.1924  -26.7919   22.1627 C   0  0  0  0  0  0
  -19.1528  -28.8830   23.2907 C   0  0  0  0  0  0
  -18.9456  -30.1442   23.8907 C   0  0  0  0  0  0
  -17.6456  -30.6579   24.0566 C   0  0  0  0  0  0
  -25.9043  -34.9469   23.5123 C   0  0  0  0  0  0
  -16.5349  -29.9079   23.6326 C   0  0  0  0  0  0
  -16.7267  -28.6500   23.0340 C   0  0  0  0  0  0
  -26.4463  -31.6594   25.0723 C   0  0  0  0  0  0
  -25.3731  -31.3752   26.1483 C   0  0  0  0  0  0
  -27.0268  -30.3010   24.6141 C   0  0  0  0  0  0
  -27.6062  -32.4308   25.7458 C   0  0  0  0  0  0
  -27.5582  -37.1805   24.8468 C   0  0  0  0  0  0
  -21.4122  -29.3027   22.3720 N   0  0  0  0  0  0
  -26.4295  -37.3779   23.9408 N   0  0  0  0  0  0
  -24.6624  -31.0837   22.1022 N   0  0  0  0  0  0
  -23.4180  -28.8213   23.3003 O   0  0  0  0  0  0
  -28.3719  -26.7094   20.1116 O   0  0  0  0  0  0
  -26.5608  -34.8921   22.4694 O   0  0  0  0  0  0
  -23.5318  -32.1456   23.7544 O   0  0  0  0  0  0
  -32.9043  -20.7791   22.2452 C   0  0  0  0  0  0
  -32.1739  -21.8162   21.6206 C   0  0  0  0  0  0
  -32.8335  -21.0514   19.5442 C   0  0  0  0  0  0
  -33.4994  -19.9642   20.1706 C   0  0  0  0  0  0
  -32.2416  -22.5274   17.4218 C   0  0  0  0  0  0
  -31.3543  -21.2971   17.3866 C   0  0  0  0  0  0
  -29.3920  -17.7696   20.2127 C   0  0  0  0  0  0
  -31.5470  -23.6824   23.4183 C   0  0  0  0  0  0
  -29.1057  -16.2629   20.1859 C   0  0  0  0  0  0
  -30.9660  -16.6615   21.5560 C   0  0  0  0  0  0
  -31.2018  -22.7141   22.3065 C   0  0  1  0  0  0
  -32.7095  -21.2320   18.0494 C   0  0  0  0  0  0
  -30.8580  -17.8600   20.6000 C   0  0  1  0  0  0
  -31.2651  -24.2004   22.0249 C   0  0  1  0  0  0
  -31.7492  -17.7600   19.3266 C   0  0  0  0  0  0
  -33.2819  -17.6530   19.5465 C   0  0  0  0  0  0
  -29.5167  -24.5858   20.3642 C   0  0  0  0  0  0
  -28.2076  -25.2923   20.0279 C   0  0  0  0  0  0
  -33.5701  -19.8460   21.5198 N   0  0  0  0  0  0
  -32.1716  -21.9692   20.2800 N   0  0  0  0  0  0
  -30.1485  -15.5841   20.9792 N   0  0  0  0  0  0
  -34.0146  -18.9124   19.4154 N   0  0  0  0  0  0
  -29.9244  -24.7710   21.7759 N   0  3  0  0  0  0
  -31.4505  -12.3253   19.1249 H   0  0  0  0  0  0
  -30.2639  -11.2909   19.8602 H   0  0  0  0  0  0
  -29.7255  -11.7512   17.4176 H   0  0  0  0  0  0
  -29.6694  -13.4626   17.7593 H   0  0  0  0  0  0
  -27.7832  -11.3095   18.7632 H   0  0  0  0  0  0
  -27.3836  -12.6851   17.7592 H   0  0  0  0  0  0
  -27.6494  -14.2285   19.5033 H   0  0  0  0  0  0
  -28.6876  -12.0434   21.3849 H   0  0  0  0  0  0
  -28.4890  -13.7198   21.8126 H   0  0  0  0  0  0
  -25.2782   -9.5669   22.4742 H   0  0  0  0  0  0
  -23.9995   -7.4623   22.7509 H   0  0  0  0  0  0
  -21.0805   -8.8780   19.8986 H   0  0  0  0  0  0
  -22.3709  -10.9643   19.6213 H   0  0  0  0  0  0
  -21.2025   -7.6143   23.9686 H   0  0  0  0  0  0
  -21.1457   -6.0554   25.9053 H   0  0  0  0  0  0
  -22.0620   -2.7601   23.2901 H   0  0  0  0  0  0
  -22.4184  -11.9771   22.4771 H   0  0  0  0  0  0
  -21.1175  -13.1150   22.2579 H   0  0  0  0  0  0
  -24.6485  -15.8331   20.5093 H   0  0  0  0  0  0
  -26.2742  -15.6240   20.0870 H   0  0  0  0  0  0
  -26.7100  -32.5522   23.1153 H   0  0  0  0  0  0
  -24.9995  -33.9777   25.0428 H   0  0  0  0  0  0
  -22.6837  -31.3176   21.4213 H   0  0  0  0  0  0
  -23.3727  -35.9664   23.3349 H   0  0  0  0  0  0
  -24.3571  -36.8856   22.2036 H   0  0  0  0  0  0
  -23.7273  -37.6542   23.6609 H   0  0  0  0  0  0
  -26.0578  -31.6102   20.6115 H   0  0  0  0  0  0
  -26.8083  -30.8696   21.9995 H   0  0  0  0  0  0
  -28.0880  -29.1052   21.1560 H   0  0  0  0  0  0
  -25.9753  -25.9980   18.9979 H   0  0  0  0  0  0
  -23.9420  -27.3162   19.0499 H   0  0  0  0  0  0
  -23.7099  -30.6195   19.4092 H   0  0  0  0  0  0
  -22.7217  -29.2654   19.8688 H   0  0  0  0  0  0
  -25.1286  -36.1965   25.0827 H   0  0  0  0  0  0
  -20.9972  -28.3223   24.1429 H   0  0  0  0  0  0
  -20.5642  -26.2269   23.3601 H   0  0  0  0  0  0
  -21.6635  -26.7420   22.1224 H   0  0  0  0  0  0
  -19.6901  -25.6300   21.1221 H   0  0  0  0  0  0
  -19.6677  -27.3208   20.6748 H   0  0  0  0  0  0
  -17.4188  -26.6658   21.4042 H   0  0  0  0  0  0
  -18.0346  -26.0057   22.9025 H   0  0  0  0  0  0
  -19.7929  -30.7268   24.2266 H   0  0  0  0  0  0
  -17.5008  -31.6259   24.5166 H   0  0  0  0  0  0
  -15.5350  -30.2985   23.7636 H   0  0  0  0  0  0
  -15.8670  -28.0828   22.7029 H   0  0  0  0  0  0
  -24.5880  -30.7112   25.7843 H   0  0  0  0  0  0
  -24.8949  -32.2932   26.4910 H   0  0  0  0  0  0
  -25.8069  -30.8933   27.0255 H   0  0  0  0  0  0
  -26.2818  -29.6793   24.1155 H   0  0  0  0  0  0
  -27.3946  -29.7234   25.4639 H   0  0  0  0  0  0
  -27.8711  -30.4275   23.9355 H   0  0  0  0  0  0
  -27.2682  -33.3578   26.2108 H   0  0  0  0  0  0
  -28.3808  -32.6926   25.0233 H   0  0  0  0  0  0
  -28.0803  -31.8395   26.5295 H   0  0  0  0  0  0
  -28.2636  -38.0066   24.7471 H   0  0  0  0  0  0
  -28.1044  -36.2604   24.6345 H   0  0  0  0  0  0
  -27.2311  -37.1520   25.8874 H   0  0  0  0  0  0
  -20.9259  -29.8764   21.6966 H   0  0  0  0  0  0
  -26.0191  -38.2864   24.1388 H   0  0  0  0  0  0
  -32.8964  -20.6480   23.3156 H   0  0  0  0  0  0
  -31.9279  -23.3434   18.0672 H   0  0  0  0  0  0
  -32.7107  -22.8256   16.4853 H   0  0  0  0  0  0
  -31.2199  -20.8256   16.4177 H   0  0  0  0  0  0
  -30.4811  -21.2808   18.0381 H   0  0  0  0  0  0
  -28.7710  -18.2402   20.9784 H   0  0  0  0  0  0
  -29.1690  -18.2649   19.2671 H   0  0  0  0  0  0
  -32.5767  -23.7211   23.7628 H   0  0  0  0  0  0
  -30.7934  -23.8413   24.1882 H   0  0  0  0  0  0
  -29.1029  -15.9227   19.1452 H   0  0  0  0  0  0
  -28.1218  -16.0759   20.6069 H   0  0  0  0  0  0
  -30.5210  -16.9168   22.5165 H   0  0  0  0  0  0
  -31.9989  -16.3886   21.7754 H   0  0  0  0  0  0
  -30.2291  -22.2267   22.3504 H   0  0  0  0  0  0
  -33.4975  -20.7036   17.5176 H   0  0  0  0  0  0
  -31.0556  -18.7963   21.1273 H   0  0  0  0  0  0
  -32.0711  -24.6132   21.4187 H   0  0  0  0  0  0
  -31.5208  -18.5976   18.6619 H   0  0  0  0  0  0
  -31.4410  -16.8888   18.7491 H   0  0  0  0  0  0
  -33.6669  -17.0079   18.7538 H   0  0  0  0  0  0
  -33.5459  -17.1507   20.4776 H   0  0  0  0  0  0
  -30.3001  -24.9456   19.7002 H   0  0  0  0  0  0
  -29.3976  -23.5207   20.1605 H   0  0  0  0  0  0
  -27.4158  -24.9489   20.6969 H   0  0  0  0  0  0
  -27.9217  -25.0147   19.0132 H   0  0  0  0  0  0
  -34.1249  -19.1688   18.4409 H   0  0  0  0  0  0
  -29.9455  -25.7605   21.9728 H   0  0  0  0  0  0
  -29.2466  -24.3539   22.3946 H   0  0  0  0  0  0
  1 25  1  0  0  0
  1 30  2  0  0  0
  1 91  1  0  0  0
  2  3  1  0  0  0
  2 25  1  0  0  0
  2 94  1  0  0  0
  2 95  1  0  0  0
  3  4  1  0  0  0
  3 96  1  0  0  0
  3 97  1  0  0  0
  4  5  1  0  0  0
  4 98  1  0  0  0
  4 99  1  0  0  0
  5  6  1  0  0  0
  5 26  1  0  0  0
  5100  1  0  0  0
  6 25  1  0  0  0
  6101  1  0  0  0
  6102  1  0  0  0
  7  8  2  0  0  0
  7 26  1  0  0  0
  7 29  1  0  0  0
  8  9  1  0  0  0
  8 22  1  0  0  0
  9 10  1  0  0  0
  9 27  2  0  0  0
 10 11  2  0  0  0
 10 15  1  0  0  0
 11 12  1  0  0  0
 11103  1  0  0  0
 12 13  2  0  0  0
 12104  1  0  0  0
 13 14  1  0  0  0
 13 31  1  0  0  0
 14 15  2  0  0  0
 14105  1  0  0  0
 15106  1  0  0  0
 16 17  2  0  0  0
 16 21  1  0  0  0
 16 31  1  0  0  0
 17 18  1  0  0  0
 17107  1  0  0  0
 18 19  2  0  0  0
 18108  1  0  0  0
 19 20  1  0  0  0
 19 24  1  0  0  0
 20 21  2  0  0  0
 20109  1  0  0  0
 21 23  1  0  0  0
 22 28  1  0  0  0
 22 32  2  0  0  0
 26 27  1  0  0  0
 28110  1  0  0  0
 28111  1  0  0  0
 29112  1  0  0  0
 29113  1  0  0  0
 33 34  1  0  0  0
 33 66  1  0  0  0
 33 70  2  0  0  0
 34 36  1  0  0  0
 34 59  1  0  0  0
 34114  1  0  0  0
 35 44  2  0  0  0
 35 45  1  0  0  0
 35 68  1  0  0  0
 36 56  1  0  0  0
 36115  1  0  0  0
 37 39  1  0  0  0
 37 47  1  0  0  0
 37 66  1  0  0  0
 37116  1  0  0  0
 38 43  2  0  0  0
 38 46  1  0  0  0
 38 47  1  0  0  0
 39 64  1  0  0  0
 39 67  2  0  0  0
 40 52  1  0  0  0
 40 53  2  0  0  0
 40 58  1  0  0  0
 41117  1  0  0  0
 41118  1  0  0  0
 41119  1  0  0  0
 41 48  1  0  0  0
 42 43  1  0  0  0
 42 66  1  0  0  0
 42120  1  0  0  0
 42121  1  0  0  0
 43 44  1  0  0  0
 44122  1  0  0  0
 45 46  2  0  0  0
 45123  1  0  0  0
 46124  1  0  0  0
 47125  1  0  0  0
 47126  1  0  0  0
 48 56  1  0  0  0
 48 65  1  0  0  0
 48127  1  0  0  0
 49 50  1  0  0  0
 49 53  1  0  0  0
 49 64  1  0  0  0
 49128  1  0  0  0
 50 51  1  0  0  0
 50129  1  0  0  0
 50130  1  0  0  0
 51 52  1  0  0  0
 51131  1  0  0  0
 51132  1  0  0  0
 52133  1  0  0  0
 52134  1  0  0  0
 53 54  1  0  0  0
 54 55  2  0  0  0
 54135  1  0  0  0
 55 57  1  0  0  0
 55136  1  0  0  0
 56 69  2  0  0  0
 57 58  2  0  0  0
 57137  1  0  0  0
 58138  1  0  0  0
 59 60  1  0  0  0
 59 61  1  0  0  0
 59 62  1  0  0  0
 60139  1  0  0  0
 60140  1  0  0  0
 60141  1  0  0  0
 61142  1  0  0  0
 61143  1  0  0  0
 61144  1  0  0  0
 62145  1  0  0  0
 62146  1  0  0  0
 62147  1  0  0  0
 63 65  1  0  0  0
 63148  1  0  0  0
 63149  1  0  0  0
 63150  1  0  0  0
 64151  1  0  0  0
 65152  1  0  0  0
 68 88  1  0  0  0
 71 72  2  0  0  0
 71 89  1  0  0  0
 71153  1  0  0  0
 72 90  1  0  0  0
 72 81  1  0  0  0
 73 74  1  0  0  0
 73 90  2  0  0  0
 73 82  1  0  0  0
 74 89  2  0  0  0
 74 92  1  0  0  0
 75 76  1  0  0  0
 75 82  1  0  0  0
 75154  1  0  0  0
 75155  1  0  0  0
 76 82  1  0  0  0
 76156  1  0  0  0
 76157  1  0  0  0
 77 79  1  0  0  0
 77 83  1  0  0  0
 77158  1  0  0  0
 77159  1  0  0  0
 78 81  1  0  0  0
 78 84  1  0  0  0
 78160  1  0  0  0
 78161  1  0  0  0
 79 91  1  0  0  0
 79162  1  0  0  0
 79163  1  0  0  0
 80 83  1  0  0  0
 80 91  1  0  0  0
 80164  1  0  0  0
 80165  1  0  0  0
 81 84  1  0  0  0
 81166  1  0  0  0
 82167  1  0  0  0
 83 85  1  0  0  0
 83168  1  0  0  0
 84 93  1  0  0  0
 84169  1  0  0  0
 85 86  1  0  0  0
 85170  1  0  0  0
 85171  1  0  0  0
 86 92  1  0  0  0
 86172  1  0  0  0
 86173  1  0  0  0
 87 88  1  0  0  0
 87 93  1  0  0  0
 87174  1  0  0  0
 87175  1  0  0  0
 88176  1  0  0  0
 88177  1  0  0  0
 92178  1  0  0  0
 93179  1  0  0  0
 93180  1  0  0  0
M  CHG  1  93   1
M  ISO  4   1 100  68 101  88 101  91 100
M  END
> <chiral flag>
0

> <version>
0

> <s_m_source_file>
/data/baiqing/PycharmProjects/Reinvent-master-3.2/result/LINK_invent/BTK/process_docking_weight1_custom_sum_contain_oxygen_bond_distance_aromatic_linkinvent_7_9_3/rearranged_h_0197.sdf

> <i_m_source_file_index>
11

> <r_mmod_Potential_Energy-OPLS-2005>
136.090759277344

> <r_mmod_Stretch_Energy-OPLS-2005>
38.2133445739746

> <r_mmod_Bend_Energy-OPLS-2005>
143.787322998047

> <r_mmod_Torsional_Energy-OPLS-2005>
437.114929199219

> <r_mmod_Improper_Torsional_Energy-OPLS-2005>
13.1073513031006

> <r_mmod_Van_der_Waal_Energy-OPLS-2005>
155.662185668945

> <r_mmod_Electrostatic_Energy-OPLS-2005>
-194.636581420898

> <r_mmod_Solvation_Energy-OPLS-2005>
-477.378509521484

> <b_mmod_Minimization_Converged-OPLS-2005>
0

> <r_mmod_RMS_Derivative-OPLS-2005>
5.18659543991089

$$$$
11
                    3D
 Structure written by MMmdl.
163172  0  0  1  0            999 V2000
  -30.6586  -14.5924   20.4746 C   0  0  0  0  0  0
  -30.4243  -12.3591   19.4438 C   0  0  0  0  0  0
  -29.4974  -12.4939   18.2167 C   0  0  0  0  0  0
  -28.0217  -12.3403   18.6311 C   0  0  0  0  0  0
  -27.6492  -13.2185   19.8558 C   0  0  2  0  0  0
  -28.6949  -13.0793   20.9858 C   0  0  0  0  0  0
  -25.2538  -13.8192   20.5665 C   0  0  0  0  0  0
  -24.1809  -13.0450   20.9171 C   0  0  0  0  0  0
  -24.6382  -11.6925   20.8721 C   0  0  0  0  0  0
  -23.9051  -10.4294   21.0392 C   0  0  0  0  0  0
  -24.3614   -9.4208   21.9161 C   0  0  0  0  0  0
  -23.6287   -8.2233   22.0741 C   0  0  0  0  0  0
  -22.4259   -8.0269   21.3541 C   0  0  0  0  0  0
  -21.9898   -9.0249   20.4643 C   0  0  0  0  0  0
  -22.7228  -10.2126   20.3048 C   0  0  0  0  0  0
  -21.6864   -6.0726   22.5270 C   0  0  0  0  0  0
  -21.4024   -6.5626   23.8203 C   0  0  0  0  0  0
  -21.3668   -5.6781   24.9169 C   0  0  0  0  0  0
  -21.6045   -4.3042   24.7222 C   0  0  0  0  0  0
  -21.8823   -3.8134   23.4348 C   0  0  0  0  0  0
  -21.9202   -4.6949   22.3394 C   0  0  0  0  0  0
  -22.7823  -13.5235   21.1840 C   0  0  0  0  0  0
  -22.1658   -4.2132   21.0979 F   0  0  0  0  0  0
  -21.5628   -3.4528   25.7744 F   0  0  0  0  0  0
  -30.0184  -13.3864   20.4217 N   0  0  0  0  0  0
  -26.2967  -12.9376   20.3291 N   0  0  0  0  0  0
  -25.9301  -11.6525   20.5746 N   0  0  0  0  0  0
  -22.0474  -12.8233   22.0416 N   0  0  0  0  0  0
  -25.4262  -15.1916   20.4087 N   0  0  0  0  0  0
  -31.8288  -14.7194   20.1027 O   0  0  0  0  0  0
  -21.6634   -6.8862   21.4229 O   0  0  0  0  0  0
  -22.3498  -14.5524   20.6684 O   0  0  0  0  0  0
  -24.6142  -31.8649   23.2062 C   0  0  0  0  0  0
  -25.9038  -32.4814   23.8352 C   0  0  1  0  0  0
  -27.2348  -27.3929   20.1229 C   0  0  0  0  0  0
  -25.5922  -33.8605   24.2308 N   0  0  0  0  0  0
  -23.4037  -30.4832   21.5480 C   0  0  2  0  0  0
  -24.8559  -28.9438   20.1157 C   0  0  0  0  0  0
  -22.7417  -29.4601   22.4976 C   0  0  0  0  0  0
  -18.0263  -28.1324   22.8481 C   0  0  0  0  0  0
  -24.1491  -36.7290   23.2620 C   0  0  0  0  0  0
  -25.9326  -30.8208   21.3631 C   0  0  0  0  0  0
  -26.0142  -29.4490   20.7157 C   0  0  0  0  0  0
  -27.2078  -28.6834   20.7120 C   0  0  0  0  0  0
  -26.0615  -26.9111   19.5055 C   0  0  0  0  0  0
  -24.8767  -27.6769   19.5029 C   0  0  0  0  0  0
  -23.6161  -29.8129   20.1635 C   0  0  0  0  0  0
  -25.4115  -36.3093   24.0323 C   0  0  1  0  0  0
  -20.5858  -28.3606   23.1320 C   0  0  2  0  0  0
  -20.6749  -26.9334   22.5418 C   0  0  0  0  0  0
  -19.5737  -26.6340   21.5188 C   0  0  0  0  0  0
  -18.1915  -26.7871   22.1609 C   0  0  0  0  0  0
  -19.1511  -28.8787   23.2897 C   0  0  0  0  0  0
  -18.9442  -30.1399   23.8899 C   0  0  0  0  0  0
  -17.6452  -30.6548   24.0538 C   0  0  0  0  0  0
  -25.9044  -34.9474   23.5112 C   0  0  0  0  0  0
  -16.5344  -29.9035   23.6320 C   0  0  0  0  0  0
  -16.7254  -28.6448   23.0351 C   0  0  0  0  0  0
  -26.4481  -31.6562   25.0653 C   0  0  0  0  0  0
  -25.3785  -31.3744   26.1448 C   0  0  0  0  0  0
  -27.0216  -30.2975   24.5993 C   0  0  0  0  0  0
  -27.6097  -32.4232   25.7420 C   0  0  0  0  0  0
  -27.5591  -37.1787   24.8460 C   0  0  0  0  0  0
  -21.4139  -29.2988   22.3753 N   0  0  0  0  0  0
  -26.4290  -37.3786   23.9408 N   0  0  0  0  0  0
  -24.6685  -31.0710   22.0983 N   0  0  0  0  0  0
  -23.4188  -28.8141   23.3013 O   0  0  0  0  0  0
  -28.3921  -26.6276   20.1177 O   0  0  0  0  0  0
  -26.5587  -34.8932   22.4659 O   0  0  0  0  0  0
  -23.5338  -32.1448   23.7423 O   0  0  0  0  0  0
  -29.7075  -18.1138   21.0982 C   0  0  0  0  0  0
  -29.9327  -19.2157   20.1959 C   0  0  0  0  0  0
  -30.0166  -16.9790   20.3723 C   0  0  0  0  0  0
  -30.5201  -21.3165   21.6476 C   0  0  0  0  0  0
  -30.0693  -22.7912   21.6218 C   0  0  0  0  0  0
  -28.5057  -21.4873   20.3632 C   0  0  0  0  0  0
  -29.8735  -20.7509   20.3882 C   0  0  2  0  0  0
  -27.6180  -25.5353   22.2330 C   0  0  0  0  0  0
  -30.7238  -16.6491   17.9059 C   0  0  0  0  0  0
  -28.3552  -24.0566   20.2222 C   0  0  0  0  0  0
  -28.4934  -25.4408   20.9668 C   0  0  1  0  0  0
  -30.3056  -18.7533   19.0043 N   0  0  0  0  0  0
  -30.3648  -17.4003   19.0953 N   0  0  0  0  0  0
  -29.8988  -15.6737   20.8047 N   0  0  0  0  0  0
  -28.7043  -22.8224   21.0292 N   0  3  2  0  0  0
  -31.4677  -12.4627   19.1379 H   0  0  0  0  0  0
  -30.3377  -11.3654   19.8846 H   0  0  0  0  0  0
  -29.7534  -11.7465   17.4655 H   0  0  0  0  0  0
  -29.6455  -13.4647   17.7429 H   0  0  0  0  0  0
  -27.8575  -11.2881   18.8671 H   0  0  0  0  0  0
  -27.3674  -12.5655   17.7879 H   0  0  0  0  0  0
  -27.6654  -14.2518   19.5057 H   0  0  0  0  0  0
  -28.6888  -12.0667   21.3894 H   0  0  0  0  0  0
  -28.4474  -13.7365   21.8207 H   0  0  0  0  0  0
  -25.2768   -9.5678   22.4716 H   0  0  0  0  0  0
  -24.0012   -7.4628   22.7446 H   0  0  0  0  0  0
  -21.0828   -8.8764   19.8942 H   0  0  0  0  0  0
  -22.3690  -10.9654   19.6133 H   0  0  0  0  0  0
  -21.2014   -7.6137   23.9708 H   0  0  0  0  0  0
  -21.1480   -6.0505   25.9073 H   0  0  0  0  0  0
  -22.0602   -2.7589   23.2857 H   0  0  0  0  0  0
  -22.4102  -11.9926   22.4842 H   0  0  0  0  0  0
  -21.1081  -13.1255   22.2608 H   0  0  0  0  0  0
  -24.6570  -15.8466   20.5013 H   0  0  0  0  0  0
  -26.2808  -15.6329   20.0951 H   0  0  0  0  0  0
  -26.7068  -32.5548   23.1076 H   0  0  0  0  0  0
  -25.0125  -33.9756   25.0499 H   0  0  0  0  0  0
  -22.6910  -31.2992   21.4078 H   0  0  0  0  0  0
  -23.3770  -35.9597   23.3252 H   0  0  0  0  0  0
  -24.3615  -36.8939   22.2041 H   0  0  0  0  0  0
  -23.7201  -37.6466   23.6662 H   0  0  0  0  0  0
  -26.0431  -31.5825   20.5905 H   0  0  0  0  0  0
  -26.8191  -30.8817   21.9816 H   0  0  0  0  0  0
  -28.1043  -29.0673   21.1804 H   0  0  0  0  0  0
  -26.0625  -25.9426   19.0309 H   0  0  0  0  0  0
  -23.9871  -27.2838   19.0293 H   0  0  0  0  0  0
  -23.7293  -30.5869   19.4034 H   0  0  0  0  0  0
  -22.7399  -29.2342   19.8668 H   0  0  0  0  0  0
  -25.1277  -36.1952   25.0811 H   0  0  0  0  0  0
  -20.9935  -28.3141   24.1438 H   0  0  0  0  0  0
  -20.5583  -26.2196   23.3582 H   0  0  0  0  0  0
  -21.6629  -26.7338   22.1249 H   0  0  0  0  0  0
  -19.6901  -25.6254   21.1196 H   0  0  0  0  0  0
  -19.6681  -27.3157   20.6719 H   0  0  0  0  0  0
  -17.4175  -26.6582   21.4025 H   0  0  0  0  0  0
  -18.0351  -26.0005   22.9008 H   0  0  0  0  0  0
  -19.7931  -30.7195   24.2266 H   0  0  0  0  0  0
  -17.5018  -31.6242   24.5095 H   0  0  0  0  0  0
  -15.5353  -30.2932   23.7630 H   0  0  0  0  0  0
  -15.8657  -28.0754   22.7075 H   0  0  0  0  0  0
  -24.5836  -30.7217   25.7815 H   0  0  0  0  0  0
  -24.9144  -32.2954   26.4980 H   0  0  0  0  0  0
  -25.8147  -30.8819   27.0143 H   0  0  0  0  0  0
  -26.2699  -29.6808   24.1037 H   0  0  0  0  0  0
  -27.3953  -29.7130   25.4402 H   0  0  0  0  0  0
  -27.8582  -30.4216   23.9109 H   0  0  0  0  0  0
  -27.2737  -33.3503   26.2063 H   0  0  0  0  0  0
  -28.3896  -32.6809   25.0248 H   0  0  0  0  0  0
  -28.0761  -31.8293   26.5284 H   0  0  0  0  0  0
  -28.2590  -38.0100   24.7534 H   0  0  0  0  0  0
  -28.1098  -36.2641   24.6241 H   0  0  0  0  0  0
  -27.2331  -37.1395   25.8866 H   0  0  0  0  0  0
  -20.9268  -29.8777   21.7066 H   0  0  0  0  0  0
  -26.0182  -38.2852   24.1456 H   0  0  0  0  0  0
  -29.3912  -18.1597   22.1293 H   0  0  0  0  0  0
  -30.1285  -20.8142   22.5333 H   0  0  0  0  0  0
  -31.6064  -21.2091   21.6487 H   0  0  0  0  0  0
  -30.7510  -23.3630   20.9918 H   0  0  0  0  0  0
  -30.0902  -23.2376   22.6180 H   0  0  0  0  0  0
  -27.7819  -20.9238   20.9521 H   0  0  0  0  0  0
  -28.1015  -21.5709   19.3546 H   0  0  0  0  0  0
  -30.4378  -21.1910   19.5635 H   0  0  0  0  0  0
  -27.8535  -24.7442   22.9444 H   0  0  0  0  0  0
  -26.5587  -25.4521   21.9940 H   0  0  0  0  0  0
  -27.7742  -26.4858   22.7452 H   0  0  0  0  0  0
  -30.1341  -15.7376   17.8457 H   0  0  0  0  0  0
  -31.7831  -16.3970   17.9384 H   0  0  0  0  0  0
  -30.5355  -17.2364   17.0058 H   0  0  0  0  0  0
  -28.9885  -24.0720   19.3355 H   0  0  0  0  0  0
  -27.3303  -23.9566   19.8677 H   0  0  0  0  0  0
  -29.5249  -25.4970   21.3181 H   0  0  0  0  0  0
  -29.0334  -15.4509   21.2692 H   0  0  0  0  0  0
  -28.0668  -22.8061   21.8149 H   0  0  0  0  0  0
  1 25  1  0  0  0
  1 30  2  0  0  0
  1 84  1  0  0  0
  2  3  1  0  0  0
  2 25  1  0  0  0
  2 86  1  0  0  0
  2 87  1  0  0  0
  3  4  1  0  0  0
  3 88  1  0  0  0
  3 89  1  0  0  0
  4  5  1  0  0  0
  4 90  1  0  0  0
  4 91  1  0  0  0
  5  6  1  0  0  0
  5 26  1  0  0  0
  5 92  1  0  0  0
  6 25  1  0  0  0
  6 93  1  0  0  0
  6 94  1  0  0  0
  7  8  2  0  0  0
  7 26  1  0  0  0
  7 29  1  0  0  0
  8  9  1  0  0  0
  8 22  1  0  0  0
  9 10  1  0  0  0
  9 27  2  0  0  0
 10 11  2  0  0  0
 10 15  1  0  0  0
 11 12  1  0  0  0
 11 95  1  0  0  0
 12 13  2  0  0  0
 12 96  1  0  0  0
 13 14  1  0  0  0
 13 31  1  0  0  0
 14 15  2  0  0  0
 14 97  1  0  0  0
 15 98  1  0  0  0
 16 17  2  0  0  0
 16 21  1  0  0  0
 16 31  1  0  0  0
 17 18  1  0  0  0
 17 99  1  0  0  0
 18 19  2  0  0  0
 18100  1  0  0  0
 19 20  1  0  0  0
 19 24  1  0  0  0
 20 21  2  0  0  0
 20101  1  0  0  0
 21 23  1  0  0  0
 22 28  1  0  0  0
 22 32  2  0  0  0
 26 27  1  0  0  0
 28102  1  0  0  0
 28103  1  0  0  0
 29104  1  0  0  0
 29105  1  0  0  0
 33 34  1  0  0  0
 33 66  1  0  0  0
 33 70  2  0  0  0
 34 36  1  0  0  0
 34 59  1  0  0  0
 34106  1  0  0  0
 35 44  2  0  0  0
 35 45  1  0  0  0
 35 68  1  0  0  0
 36 56  1  0  0  0
 36107  1  0  0  0
 37 39  1  0  0  0
 37 47  1  0  0  0
 37 66  1  0  0  0
 37108  1  0  0  0
 38 43  2  0  0  0
 38 46  1  0  0  0
 38 47  1  0  0  0
 39 64  1  0  0  0
 39 67  2  0  0  0
 40 52  1  0  0  0
 40 53  2  0  0  0
 40 58  1  0  0  0
 41109  1  0  0  0
 41110  1  0  0  0
 41111  1  0  0  0
 41 48  1  0  0  0
 42 43  1  0  0  0
 42 66  1  0  0  0
 42112  1  0  0  0
 42113  1  0  0  0
 43 44  1  0  0  0
 44114  1  0  0  0
 45 46  2  0  0  0
 45115  1  0  0  0
 46116  1  0  0  0
 47117  1  0  0  0
 47118  1  0  0  0
 48 56  1  0  0  0
 48 65  1  0  0  0
 48119  1  0  0  0
 49 50  1  0  0  0
 49 53  1  0  0  0
 49 64  1  0  0  0
 49120  1  0  0  0
 50 51  1  0  0  0
 50121  1  0  0  0
 50122  1  0  0  0
 51 52  1  0  0  0
 51123  1  0  0  0
 51124  1  0  0  0
 52125  1  0  0  0
 52126  1  0  0  0
 53 54  1  0  0  0
 54 55  2  0  0  0
 54127  1  0  0  0
 55 57  1  0  0  0
 55128  1  0  0  0
 56 69  2  0  0  0
 57 58  2  0  0  0
 57129  1  0  0  0
 58130  1  0  0  0
 59 60  1  0  0  0
 59 61  1  0  0  0
 59 62  1  0  0  0
 60131  1  0  0  0
 60132  1  0  0  0
 60133  1  0  0  0
 61134  1  0  0  0
 61135  1  0  0  0
 61136  1  0  0  0
 62137  1  0  0  0
 62138  1  0  0  0
 62139  1  0  0  0
 63 65  1  0  0  0
 63140  1  0  0  0
 63141  1  0  0  0
 63142  1  0  0  0
 64143  1  0  0  0
 65144  1  0  0  0
 68 81  1  0  0  0
 71 72  1  0  0  0
 71 73  2  0  0  0
 71145  1  0  0  0
 72 82  2  0  0  0
 72 77  1  0  0  0
 73 83  1  0  0  0
 73 84  1  0  0  0
 74 75  1  0  0  0
 74 77  1  0  0  0
 74146  1  0  0  0
 74147  1  0  0  0
 75 85  1  0  0  0
 75148  1  0  0  0
 75149  1  0  0  0
 76 77  1  0  0  0
 76 85  1  0  0  0
 76150  1  0  0  0
 76151  1  0  0  0
 77152  1  0  0  0
 78153  1  0  0  0
 78154  1  0  0  0
 78155  1  0  0  0
 78 81  1  0  0  0
 79 83  1  0  0  0
 79156  1  0  0  0
 79157  1  0  0  0
 79158  1  0  0  0
 80 81  1  0  0  0
 80159  1  0  0  0
 80160  1  0  0  0
 80 85  1  0  0  0
 81161  1  0  0  0
 82 83  1  0  0  0
 84162  1  0  0  0
 85163  1  0  0  0
M  CHG  1  85   1
M  ISO  4   1 100  68 101  81 101  84 100
M  END
> <chiral flag>
0

> <version>
0

> <s_m_source_file>
/data/baiqing/PycharmProjects/Reinvent-master-3.2/result/LINK_invent/BTK/process_docking_weight1_custom_sum_contain_oxygen_bond_distance_aromatic_linkinvent_7_9_3/rearranged_h_0197.sdf

> <i_m_source_file_index>
12

> <r_mmod_Potential_Energy-OPLS-2005>
-124.177398681641

> <r_mmod_Stretch_Energy-OPLS-2005>
53.9556922912598

> <r_mmod_Bend_Energy-OPLS-2005>
162.904052734375

> <r_mmod_Torsional_Energy-OPLS-2005>
307.7978515625

> <r_mmod_Improper_Torsional_Energy-OPLS-2005>
4.52999019622803

> <r_mmod_Van_der_Waal_Energy-OPLS-2005>
113.680313110352

> <r_mmod_Electrostatic_Energy-OPLS-2005>
-350.492279052734

> <r_mmod_Solvation_Energy-OPLS-2005>
-445.811370849609

> <b_mmod_Minimization_Converged-OPLS-2005>
0

> <r_mmod_RMS_Derivative-OPLS-2005>
3.197922706604

$$$$
12
                    3D
 Structure written by MMmdl.
172182  0  0  1  0            999 V2000
  -31.3510  -14.9062   19.6923 C   0  0  0  0  0  0
  -31.0007  -12.3815   20.0418 C   0  0  0  0  0  0
  -29.7102  -11.0067   19.3225 C   0  0  0  0  0  0
  -27.8069  -11.4769   18.9433 C   0  0  0  0  0  0
  -27.1718  -13.3509   19.3639 C   0  0  2  0  0  0
  -28.6275  -14.7704   19.9735 C   0  0  0  0  0  0
  -25.0869  -13.9377   20.6066 C   0  0  0  0  0  0
  -24.0542  -13.1322   20.9972 C   0  0  0  0  0  0
  -24.4886  -11.7782   20.8999 C   0  0  0  0  0  0
  -23.8272  -10.4789   21.0607 C   0  0  0  0  0  0
  -24.3250   -9.4716   21.9223 C   0  0  0  0  0  0
  -23.6280   -8.2499   22.0714 C   0  0  0  0  0  0
  -22.4293   -8.0304   21.3508 C   0  0  0  0  0  0
  -21.9735   -9.0152   20.4577 C   0  0  0  0  0  0
  -22.6684  -10.2252   20.3079 C   0  0  0  0  0  0
  -21.6942   -6.0720   22.5260 C   0  0  0  0  0  0
  -21.4090   -6.5653   23.8172 C   0  0  0  0  0  0
  -21.3696   -5.6821   24.9157 C   0  0  0  0  0  0
  -21.6025   -4.3063   24.7225 C   0  0  0  0  0  0
  -21.8811   -3.8129   23.4357 C   0  0  0  0  0  0
  -21.9213   -4.6942   22.3400 C   0  0  0  0  0  0
  -22.6689  -13.5798   21.2631 C   0  0  0  0  0  0
  -22.1649   -4.2117   21.0970 F   0  0  0  0  0  0
  -21.5620   -3.4546   25.7737 F   0  0  0  0  0  0
  -30.4659  -14.1682   20.2048 N   0  0  0  0  0  0
  -26.0439  -13.0823   20.2042 N   0  0  0  0  0  0
  -25.6729  -11.7897   20.3965 N   0  0  0  0  0  0
  -21.9590  -12.8484   22.1108 N   0  0  0  0  0  0
  -25.2879  -15.2962   20.4384 N   0  0  0  0  0  0
  -32.4022  -15.0860   20.2468 O   0  0  0  0  0  0
  -21.6784   -6.8809   21.4192 O   0  0  0  0  0  0
  -22.2267  -14.5901   20.7222 O   0  0  0  0  0  0
  -24.6459  -31.8431   23.1856 C   0  0  0  0  0  0
  -25.9230  -32.4671   23.8250 C   0  0  1  0  0  0
  -27.1103  -27.0183   20.3149 C   0  0  0  0  0  0
  -25.5973  -33.8484   24.2166 N   0  0  0  0  0  0
  -23.4501  -30.4638   21.5280 C   0  0  2  0  0  0
  -24.8943  -28.8830   20.1058 C   0  0  0  0  0  0
  -22.7579  -29.4539   22.4805 C   0  0  0  0  0  0
  -18.0309  -28.1400   22.8465 C   0  0  0  0  0  0
  -24.1501  -36.7274   23.2639 C   0  0  0  0  0  0
  -26.0076  -30.6960   21.3937 C   0  0  0  0  0  0
  -26.0660  -29.2946   20.7560 C   0  0  0  0  0  0
  -27.1870  -28.3788   20.8342 C   0  0  0  0  0  0
  -25.9542  -26.7466   19.5603 C   0  0  0  0  0  0
  -24.8628  -27.6355   19.4671 C   0  0  0  0  0  0
  -23.6813  -29.7989   20.1428 C   0  0  0  0  0  0
  -25.4128  -36.3021   24.0309 C   0  0  1  0  0  0
  -20.5921  -28.3736   23.1223 C   0  0  2  0  0  0
  -20.6800  -26.9439   22.5401 C   0  0  0  0  0  0
  -19.5776  -26.6383   21.5213 C   0  0  0  0  0  0
  -18.1949  -26.7932   22.1620 C   0  0  0  0  0  0
  -19.1564  -28.8887   23.2831 C   0  0  0  0  0  0
  -18.9475  -30.1470   23.8872 C   0  0  0  0  0  0
  -17.6473  -30.6595   24.0548 C   0  0  0  0  0  0
  -25.9080  -34.9396   23.5050 C   0  0  0  0  0  0
  -16.5363  -29.9087   23.6325 C   0  0  0  0  0  0
  -16.7287  -28.6502   23.0345 C   0  0  0  0  0  0
  -26.4527  -31.6537   25.0698 C   0  0  0  0  0  0
  -25.3716  -31.3739   26.1395 C   0  0  0  0  0  0
  -27.0370  -30.2919   24.6293 C   0  0  0  0  0  0
  -27.6056  -32.4291   25.7493 C   0  0  0  0  0  0
  -27.5578  -37.1795   24.8459 C   0  0  0  0  0  0
  -21.4267  -29.3057   22.3588 N   0  0  0  0  0  0
  -26.4285  -37.3735   23.9406 N   0  0  0  0  0  0
  -24.7212  -31.0260   22.0888 N   0  0  0  0  0  0
  -23.4210  -28.8051   23.2941 O   0  0  0  0  0  0
  -28.0236  -25.9060   20.4992 O   0  0  0  0  0  0
  -26.5665  -34.8900   22.4626 O   0  0  0  0  0  0
  -23.5587  -32.1307   23.7059 O   0  0  0  0  0  0
  -27.1979  -13.3253   23.1926 C   0  0  0  0  0  0
  -28.1021  -11.6573   21.6956 C   0  0  0  0  0  0
  -28.1075  -14.3002   22.6953 C   0  0  0  0  0  0
  -28.8077  -12.6339   20.8573 C   0  0  0  0  0  0
  -26.2813  -19.3646   22.1399 C   0  0  0  0  0  0
  -26.4549  -17.8335   22.5746 C   0  0  0  0  0  0
  -30.4976  -12.9098   17.5244 C   0  0  0  0  0  0
  -28.9559  -14.1404   17.4367 C   0  0  0  0  0  0
  -28.4910  -18.7422   22.3511 C   0  0  0  0  0  0
  -30.4601  -14.4194   17.3109 C   0  0  0  0  0  0
  -27.6228  -20.0051   21.6722 C   0  0  2  0  0  0
  -28.3004  -15.9775   23.0336 C   0  0  0  0  0  0
  -27.7921  -22.8518   20.9161 C   0  0  0  0  0  0
  -27.6229  -24.5557   21.2766 C   0  0  0  0  0  0
  -27.3066  -11.9909   22.8092 N   0  0  0  0  0  0
  -29.0603  -13.5187   22.0422 N   0  0  0  0  0  0
  -29.3402  -13.1267   18.4972 N   0  0  0  0  0  0
  -27.8160  -17.3299   22.2858 N   0  0  0  0  0  0
  -31.1367  -15.2284   18.3940 N   0  0  0  0  0  0
  -27.7710  -21.6061   21.9721 N   0  3  0  0  0  0
  -32.0033  -12.2813   19.6236 H   0  0  0  0  0  0
  -31.2369  -12.0531   21.0571 H   0  0  0  0  0  0
  -29.7119  -10.1763   20.0247 H   0  0  0  0  0  0
  -30.1278  -10.5347   18.4340 H   0  0  0  0  0  0
  -27.2205  -10.6146   19.2384 H   0  0  0  0  0  0
  -27.6737  -11.3835   17.8640 H   0  0  0  0  0  0
  -26.6941  -13.7364   18.4611 H   0  0  0  0  0  0
  -28.2264  -15.4509   20.6846 H   0  0  0  0  0  0
  -28.7057  -15.6327   19.3192 H   0  0  0  0  0  0
  -25.2341   -9.6473   22.4826 H   0  0  0  0  0  0
  -24.0168   -7.4958   22.7422 H   0  0  0  0  0  0
  -21.0736   -8.8450   19.8798 H   0  0  0  0  0  0
  -22.2970  -10.9745   19.6211 H   0  0  0  0  0  0
  -21.2110   -7.6163   23.9675 H   0  0  0  0  0  0
  -21.1526   -6.0554   25.9053 H   0  0  0  0  0  0
  -22.0552   -2.7592   23.2854 H   0  0  0  0  0  0
  -22.3528  -12.0242   22.5396 H   0  0  0  0  0  0
  -21.0122  -13.1127   22.3385 H   0  0  0  0  0  0
  -24.5617  -15.9823   20.6127 H   0  0  0  0  0  0
  -26.1465  -15.7019   20.0919 H   0  0  0  0  0  0
  -26.7294  -32.5248   23.0981 H   0  0  0  0  0  0
  -25.0080  -33.9580   25.0286 H   0  0  0  0  0  0
  -22.7558  -31.2922   21.3746 H   0  0  0  0  0  0
  -23.3746  -35.9621   23.3262 H   0  0  0  0  0  0
  -24.3595  -36.8949   22.2062 H   0  0  0  0  0  0
  -23.7273  -37.6467   23.6702 H   0  0  0  0  0  0
  -26.1708  -31.4323   20.6064 H   0  0  0  0  0  0
  -26.8796  -30.7558   22.0312 H   0  0  0  0  0  0
  -28.0681  -28.6685   21.3881 H   0  0  0  0  0  0
  -25.8539  -25.7751   19.0993 H   0  0  0  0  0  0
  -23.9743  -27.3200   18.9352 H   0  0  0  0  0  0
  -23.8393  -30.5761   19.3957 H   0  0  0  0  0  0
  -22.7910  -29.2588   19.8139 H   0  0  0  0  0  0
  -25.1312  -36.1846   25.0798 H   0  0  0  0  0  0
  -21.0017  -28.3340   24.1342 H   0  0  0  0  0  0
  -20.5683  -26.2356   23.3619 H   0  0  0  0  0  0
  -21.6666  -26.7424   22.1208 H   0  0  0  0  0  0
  -19.6935  -25.6280   21.1270 H   0  0  0  0  0  0
  -19.6719  -27.3174   20.6723 H   0  0  0  0  0  0
  -17.4214  -26.6650   21.4025 H   0  0  0  0  0  0
  -18.0349  -26.0080   22.9027 H   0  0  0  0  0  0
  -19.7940  -30.7282   24.2250 H   0  0  0  0  0  0
  -17.5017  -31.6265   24.5170 H   0  0  0  0  0  0
  -15.5357  -30.2983   23.7675 H   0  0  0  0  0  0
  -15.8671  -28.0815   22.7094 H   0  0  0  0  0  0
  -24.5930  -30.7038   25.7736 H   0  0  0  0  0  0
  -24.8862  -32.2909   26.4732 H   0  0  0  0  0  0
  -25.8008  -30.8997   27.0230 H   0  0  0  0  0  0
  -26.2988  -29.6667   24.1254 H   0  0  0  0  0  0
  -27.3902  -29.7194   25.4879 H   0  0  0  0  0  0
  -27.8937  -30.4115   23.9662 H   0  0  0  0  0  0
  -27.2669  -33.3642   26.1967 H   0  0  0  0  0  0
  -28.3938  -32.6756   25.0367 H   0  0  0  0  0  0
  -28.0637  -31.8473   26.5499 H   0  0  0  0  0  0
  -28.2566  -38.0114   24.7501 H   0  0  0  0  0  0
  -28.1102  -36.2640   24.6280 H   0  0  0  0  0  0
  -27.2305  -37.1446   25.8863 H   0  0  0  0  0  0
  -20.9486  -29.8792   21.6784 H   0  0  0  0  0  0
  -26.0147  -38.2804   24.1386 H   0  0  0  0  0  0
  -26.4318  -13.5756   23.9096 H   0  0  0  0  0  0
  -27.8901  -10.6603   21.3492 H   0  0  0  0  0  0
  -25.8838  -19.9139   22.9957 H   0  0  0  0  0  0
  -25.5267  -19.4582   21.3628 H   0  0  0  0  0  0
  -25.6859  -17.2068   22.1224 H   0  0  0  0  0  0
  -26.2864  -17.7716   23.6519 H   0  0  0  0  0  0
  -31.4966  -12.5788   17.7734 H   0  0  0  0  0  0
  -30.1966  -12.3304   16.6477 H   0  0  0  0  0  0
  -28.5367  -13.6513   16.5541 H   0  0  0  0  0  0
  -28.3298  -15.0130   17.5818 H   0  0  0  0  0  0
  -28.6480  -18.9714   23.4077 H   0  0  0  0  0  0
  -29.4810  -18.6868   21.8996 H   0  0  0  0  0  0
  -30.7576  -14.7028   16.3012 H   0  0  0  0  0  0
  -27.6932  -19.8888   20.5888 H   0  0  0  0  0  0
  -29.3868  -16.0772   23.0503 H   0  0  0  0  0  0
  -28.0119  -16.0883   24.0818 H   0  0  0  0  0  0
  -28.7282  -22.7439   20.3753 H   0  0  0  0  0  0
  -27.0154  -22.6346   20.1849 H   0  0  0  0  0  0
  -28.1542  -24.6785   22.2196 H   0  0  0  0  0  0
  -26.5793  -24.6954   21.5627 H   0  0  0  0  0  0
  -31.8582  -15.8377   18.0380 H   0  0  0  0  0  0
  -28.6133  -21.6968   22.5150 H   0  0  0  0  0  0
  -27.0272  -21.8132   22.6199 H   0  0  0  0  0  0
  1 25  1  0  0  0
  1 30  2  0  0  0
  1 89  1  0  0  0
  2  3  1  0  0  0
  2 25  1  0  0  0
  2 91  1  0  0  0
  2 92  1  0  0  0
  3  4  1  0  0  0
  3 93  1  0  0  0
  3 94  1  0  0  0
  4  5  1  0  0  0
  4 95  1  0  0  0
  4 96  1  0  0  0
  5  6  1  0  0  0
  5 26  1  0  0  0
  5 97  1  0  0  0
  6 25  1  0  0  0
  6 98  1  0  0  0
  6 99  1  0  0  0
  7  8  2  0  0  0
  7 26  1  0  0  0
  7 29  1  0  0  0
  8  9  1  0  0  0
  8 22  1  0  0  0
  9 10  1  0  0  0
  9 27  2  0  0  0
 10 11  2  0  0  0
 10 15  1  0  0  0
 11 12  1  0  0  0
 11100  1  0  0  0
 12 13  2  0  0  0
 12101  1  0  0  0
 13 14  1  0  0  0
 13 31  1  0  0  0
 14 15  2  0  0  0
 14102  1  0  0  0
 15103  1  0  0  0
 16 17  2  0  0  0
 16 21  1  0  0  0
 16 31  1  0  0  0
 17 18  1  0  0  0
 17104  1  0  0  0
 18 19  2  0  0  0
 18105  1  0  0  0
 19 20  1  0  0  0
 19 24  1  0  0  0
 20 21  2  0  0  0
 20106  1  0  0  0
 21 23  1  0  0  0
 22 28  1  0  0  0
 22 32  2  0  0  0
 26 27  1  0  0  0
 28107  1  0  0  0
 28108  1  0  0  0
 29109  1  0  0  0
 29110  1  0  0  0
 33 34  1  0  0  0
 33 66  1  0  0  0
 33 70  2  0  0  0
 34 36  1  0  0  0
 34 59  1  0  0  0
 34111  1  0  0  0
 35 44  2  0  0  0
 35 45  1  0  0  0
 35 68  1  0  0  0
 36 56  1  0  0  0
 36112  1  0  0  0
 37 39  1  0  0  0
 37 47  1  0  0  0
 37 66  1  0  0  0
 37113  1  0  0  0
 38 43  2  0  0  0
 38 46  1  0  0  0
 38 47  1  0  0  0
 39 64  1  0  0  0
 39 67  2  0  0  0
 40 52  1  0  0  0
 40 53  2  0  0  0
 40 58  1  0  0  0
 41114  1  0  0  0
 41115  1  0  0  0
 41116  1  0  0  0
 41 48  1  0  0  0
 42 43  1  0  0  0
 42 66  1  0  0  0
 42117  1  0  0  0
 42118  1  0  0  0
 43 44  1  0  0  0
 44119  1  0  0  0
 45 46  2  0  0  0
 45120  1  0  0  0
 46121  1  0  0  0
 47122  1  0  0  0
 47123  1  0  0  0
 48 56  1  0  0  0
 48 65  1  0  0  0
 48124  1  0  0  0
 49 50  1  0  0  0
 49 53  1  0  0  0
 49 64  1  0  0  0
 49125  1  0  0  0
 50 51  1  0  0  0
 50126  1  0  0  0
 50127  1  0  0  0
 51 52  1  0  0  0
 51128  1  0  0  0
 51129  1  0  0  0
 52130  1  0  0  0
 52131  1  0  0  0
 53 54  1  0  0  0
 54 55  2  0  0  0
 54132  1  0  0  0
 55 57  1  0  0  0
 55133  1  0  0  0
 56 69  2  0  0  0
 57 58  2  0  0  0
 57134  1  0  0  0
 58135  1  0  0  0
 59 60  1  0  0  0
 59 61  1  0  0  0
 59 62  1  0  0  0
 60136  1  0  0  0
 60137  1  0  0  0
 60138  1  0  0  0
 61139  1  0  0  0
 61140  1  0  0  0
 61141  1  0  0  0
 62142  1  0  0  0
 62143  1  0  0  0
 62144  1  0  0  0
 63 65  1  0  0  0
 63145  1  0  0  0
 63146  1  0  0  0
 63147  1  0  0  0
 64148  1  0  0  0
 65149  1  0  0  0
 68 84  1  0  0  0
 71 73  2  0  0  0
 71 85  1  0  0  0
 71150  1  0  0  0
 72 74  1  0  0  0
 72 85  2  0  0  0
 72151  1  0  0  0
 73 82  1  0  0  0
 73 86  1  0  0  0
 74 86  2  0  0  0
 74 87  1  0  0  0
 75 76  1  0  0  0
 75 81  1  0  0  0
 75152  1  0  0  0
 75153  1  0  0  0
 76 88  1  0  0  0
 76154  1  0  0  0
 76155  1  0  0  0
 77 80  1  0  0  0
 77 87  1  0  0  0
 77156  1  0  0  0
 77157  1  0  0  0
 78 80  1  0  0  0
 78 87  1  0  0  0
 78158  1  0  0  0
 78159  1  0  0  0
 79 81  1  0  0  0
 79 88  1  0  0  0
 79160  1  0  0  0
 79161  1  0  0  0
 80 89  1  0  0  0
 80162  1  0  0  0
 81 90  1  0  0  0
 81163  1  0  0  0
 82 88  1  0  0  0
 82164  1  0  0  0
 82165  1  0  0  0
 83 84  1  0  0  0
 83 90  1  0  0  0
 83166  1  0  0  0
 83167  1  0  0  0
 84168  1  0  0  0
 84169  1  0  0  0
 89170  1  0  0  0
 90171  1  0  0  0
 90172  1  0  0  0
M  CHG  1  90   1
M  ISO  4   1 100  68 101  84 101  89 100
M  END
> <chiral flag>
0

> <version>
0

> <s_m_source_file>
/data/baiqing/PycharmProjects/Reinvent-master-3.2/result/LINK_invent/BTK/process_docking_weight1_custom_sum_contain_oxygen_bond_distance_aromatic_linkinvent_7_9_3/rearranged_h_0197.sdf

> <i_m_source_file_index>
13

> <r_mmod_Potential_Energy-OPLS-2005>
8726.8017578125

> <r_mmod_Stretch_Energy-OPLS-2005>
4021.42944335938

> <r_mmod_Bend_Energy-OPLS-2005>
862.811767578125

> <r_mmod_Torsional_Energy-OPLS-2005>
681.894348144531

> <r_mmod_Improper_Torsional_Energy-OPLS-2005>
19.5068550109863

> <r_mmod_Van_der_Waal_Energy-OPLS-2005>
2238.03735351562

> <r_mmod_Electrostatic_Energy-OPLS-2005>
-199.612152099609

> <r_mmod_Solvation_Energy-OPLS-2005>
-492.897369384766

> <b_mmod_Minimization_Converged-OPLS-2005>
0

> <r_mmod_RMS_Derivative-OPLS-2005>
9.76814460754395

$$$$
13
                    3D
 Structure written by MMmdl.
169180  0  0  1  0            999 V2000
  -30.7350  -14.4454   20.5399 C   0  0  0  0  0  0
  -30.4099  -12.2875   19.4057 C   0  0  0  0  0  0
  -29.4876  -12.4861   18.1874 C   0  0  0  0  0  0
  -28.0014  -12.3858   18.5938 C   0  0  0  0  0  0
  -27.6598  -13.2019   19.8710 C   0  0  2  0  0  0
  -28.7091  -12.9525   20.9783 C   0  0  0  0  0  0
  -25.2579  -13.8129   20.5671 C   0  0  0  0  0  0
  -24.1840  -13.0431   20.9170 C   0  0  0  0  0  0
  -24.6390  -11.6887   20.8731 C   0  0  0  0  0  0
  -23.9063  -10.4279   21.0412 C   0  0  0  0  0  0
  -24.3602   -9.4187   21.9191 C   0  0  0  0  0  0
  -23.6266   -8.2231   22.0761 C   0  0  0  0  0  0
  -22.4253   -8.0271   21.3544 C   0  0  0  0  0  0
  -21.9894   -9.0262   20.4665 C   0  0  0  0  0  0
  -22.7228  -10.2136   20.3079 C   0  0  0  0  0  0
  -21.6849   -6.0723   22.5266 C   0  0  0  0  0  0
  -21.4016   -6.5629   23.8197 C   0  0  0  0  0  0
  -21.3661   -5.6785   24.9158 C   0  0  0  0  0  0
  -21.6037   -4.3046   24.7220 C   0  0  0  0  0  0
  -21.8816   -3.8141   23.4340 C   0  0  0  0  0  0
  -21.9189   -4.6953   22.3390 C   0  0  0  0  0  0
  -22.7862  -13.5236   21.1826 C   0  0  0  0  0  0
  -22.1659   -4.2140   21.0968 F   0  0  0  0  0  0
  -21.5631   -3.4528   25.7734 F   0  0  0  0  0  0
  -30.0229  -13.2899   20.4123 N   0  0  0  0  0  0
  -26.3021  -12.9302   20.3354 N   0  0  0  0  0  0
  -25.9314  -11.6470   20.5764 N   0  0  0  0  0  0
  -22.0504  -12.8278   22.0397 N   0  0  0  0  0  0
  -25.4286  -15.1856   20.4043 N   0  0  0  0  0  0
  -31.9056  -14.5178   20.1524 O   0  0  0  0  0  0
  -21.6622   -6.8867   21.4226 O   0  0  0  0  0  0
  -22.3566  -14.5540   20.6643 O   0  0  0  0  0  0
  -24.6105  -31.8737   23.2134 C   0  0  0  0  0  0
  -25.9018  -32.4866   23.8409 C   0  0  1  0  0  0
  -27.2265  -27.4753   20.0822 C   0  0  0  0  0  0
  -25.5892  -33.8654   24.2350 N   0  0  0  0  0  0
  -23.3918  -30.4978   21.5573 C   0  0  2  0  0  0
  -24.8334  -28.9684   20.1103 C   0  0  0  0  0  0
  -22.7361  -29.4693   22.5050 C   0  0  0  0  0  0
  -18.0256  -28.1414   22.8504 C   0  0  0  0  0  0
  -24.1476  -36.7311   23.2635 C   0  0  0  0  0  0
  -25.9125  -30.8543   21.3490 C   0  0  0  0  0  0
  -25.9907  -29.4861   20.7062 C   0  0  0  0  0  0
  -27.1913  -28.7471   20.6897 C   0  0  0  0  0  0
  -26.0590  -26.9684   19.4695 C   0  0  0  0  0  0
  -24.8623  -27.7102   19.4830 C   0  0  0  0  0  0
  -23.5933  -29.8329   20.1685 C   0  0  0  0  0  0
  -25.4096  -36.3132   24.0351 C   0  0  1  0  0  0
  -20.5836  -28.3684   23.1359 C   0  0  2  0  0  0
  -20.6753  -26.9446   22.5418 C   0  0  0  0  0  0
  -19.5737  -26.6444   21.5203 C   0  0  0  0  0  0
  -18.1917  -26.7971   22.1618 C   0  0  0  0  0  0
  -19.1504  -28.8857   23.2944 C   0  0  0  0  0  0
  -18.9436  -30.1454   23.8978 C   0  0  0  0  0  0
  -17.6446  -30.6629   24.0578 C   0  0  0  0  0  0
  -25.9020  -34.9502   23.5145 C   0  0  0  0  0  0
  -16.5337  -29.9142   23.6320 C   0  0  0  0  0  0
  -16.7248  -28.6545   23.0365 C   0  0  0  0  0  0
  -26.4475  -31.6620   25.0702 C   0  0  0  0  0  0
  -25.3767  -31.3674   26.1467 C   0  0  0  0  0  0
  -27.0245  -30.3091   24.5940 C   0  0  0  0  0  0
  -27.6090  -32.4287   25.7469 C   0  0  0  0  0  0
  -27.5585  -37.1818   24.8488 C   0  0  0  0  0  0
  -21.4095  -29.3053   22.3778 N   0  0  0  0  0  0
  -26.4282  -37.3814   23.9442 N   0  0  0  0  0  0
  -24.6581  -31.0872   22.1014 N   0  0  0  0  0  0
  -23.4155  -28.8227   23.3071 O   0  0  0  0  0  0
  -28.4022  -26.7673   20.0846 O   0  0  0  0  0  0
  -26.5570  -34.8945   22.4702 O   0  0  0  0  0  0
  -23.5325  -32.1464   23.7578 O   0  0  0  0  0  0
  -31.4871  -19.4495   21.7578 C   0  0  0  0  0  0
  -32.0700  -20.7070   21.9319 C   0  0  0  0  0  0
  -30.4200  -19.3439   20.8598 C   0  0  0  0  0  0
  -30.6226  -21.5801   20.3822 C   0  0  0  0  0  0
  -33.2977  -20.1600   24.1874 C   0  0  0  0  0  0
  -32.9207  -21.6225   24.2216 C   0  0  0  0  0  0
  -29.0647  -17.4439   21.9093 C   0  0  0  0  0  0
  -29.0105  -15.9343   21.6735 C   0  0  0  0  0  0
  -30.6266  -16.8701   20.1871 C   0  0  0  0  0  0
  -29.6526  -24.8307   20.9043 C   0  0  0  0  0  0
  -28.2375  -24.3512   19.4738 C   0  0  0  0  0  0
  -33.1890  -20.9457   22.8993 C   0  0  0  0  0  0
  -29.7091  -18.0070   20.6489 C   0  0  2  0  0  0
  -28.2896  -25.4277   20.5572 C   0  0  2  0  0  0
  -30.1719  -22.7739   19.5516 C   0  0  0  0  0  0
  -31.6220  -21.7739   21.2426 N   0  0  0  0  0  0
  -29.9871  -20.4225   20.1788 N   0  0  0  0  0  0
  -30.0470  -15.6110   20.6875 N   0  0  0  0  0  0
  -29.1850  -23.5872   20.2874 N   0  3  1  0  0  0
  -31.4542  -12.3640   19.0990 H   0  0  0  0  0  0
  -30.3037  -11.2810   19.8130 H   0  0  0  0  0  0
  -29.7159  -11.7429   17.4201 H   0  0  0  0  0  0
  -29.6807  -13.4591   17.7323 H   0  0  0  0  0  0
  -27.7651  -11.3325   18.7467 H   0  0  0  0  0  0
  -27.3712  -12.7215   17.7700 H   0  0  0  0  0  0
  -27.7093  -14.2512   19.5825 H   0  0  0  0  0  0
  -28.6991  -11.9038   21.2794 H   0  0  0  0  0  0
  -28.4780  -13.4884   21.8946 H   0  0  0  0  0  0
  -25.2758   -9.5635   22.4763 H   0  0  0  0  0  0
  -23.9961   -7.4618   22.7492 H   0  0  0  0  0  0
  -21.0819   -8.8791   19.8991 H   0  0  0  0  0  0
  -22.3690  -10.9671   19.6197 H   0  0  0  0  0  0
  -21.2013   -7.6146   23.9685 H   0  0  0  0  0  0
  -21.1490   -6.0526   25.9054 H   0  0  0  0  0  0
  -22.0598   -2.7609   23.2836 H   0  0  0  0  0  0
  -22.4116  -11.9962   22.4823 H   0  0  0  0  0  0
  -21.1141  -13.1343   22.2631 H   0  0  0  0  0  0
  -24.6627  -15.8392   20.5175 H   0  0  0  0  0  0
  -26.2755  -15.6176   20.0579 H   0  0  0  0  0  0
  -26.7085  -32.5599   23.1179 H   0  0  0  0  0  0
  -25.0132  -33.9822   25.0558 H   0  0  0  0  0  0
  -22.6770  -31.3126   21.4259 H   0  0  0  0  0  0
  -23.3733  -35.9650   23.3323 H   0  0  0  0  0  0
  -24.3565  -36.8885   22.2044 H   0  0  0  0  0  0
  -23.7216  -37.6526   23.6606 H   0  0  0  0  0  0
  -25.9890  -31.6105   20.5653 H   0  0  0  0  0  0
  -26.8125  -30.9305   21.9458 H   0  0  0  0  0  0
  -28.0849  -29.1451   21.1494 H   0  0  0  0  0  0
  -26.0717  -26.0192   18.9560 H   0  0  0  0  0  0
  -23.9802  -27.3182   18.9935 H   0  0  0  0  0  0
  -23.6949  -30.6094   19.4091 H   0  0  0  0  0  0
  -22.7122  -29.2572   19.8794 H   0  0  0  0  0  0
  -25.1263  -36.2014   25.0838 H   0  0  0  0  0  0
  -20.9925  -28.3255   24.1479 H   0  0  0  0  0  0
  -20.5641  -26.2318   23.3599 H   0  0  0  0  0  0
  -21.6634  -26.7530   22.1212 H   0  0  0  0  0  0
  -19.6901  -25.6356   21.1239 H   0  0  0  0  0  0
  -19.6667  -27.3242   20.6719 H   0  0  0  0  0  0
  -17.4176  -26.6709   21.4035 H   0  0  0  0  0  0
  -18.0336  -26.0122   22.9023 H   0  0  0  0  0  0
  -19.7911  -30.7234   24.2429 H   0  0  0  0  0  0
  -17.5013  -31.6316   24.5163 H   0  0  0  0  0  0
  -15.5344  -30.3076   23.7609 H   0  0  0  0  0  0
  -15.8645  -28.0870   22.7091 H   0  0  0  0  0  0
  -24.5952  -30.7003   25.7818 H   0  0  0  0  0  0
  -24.8928  -32.2799   26.4959 H   0  0  0  0  0  0
  -25.8153  -30.8835   27.0202 H   0  0  0  0  0  0
  -26.2728  -29.6939   24.0978 H   0  0  0  0  0  0
  -27.4068  -29.7237   25.4309 H   0  0  0  0  0  0
  -27.8544  -30.4471   23.9001 H   0  0  0  0  0  0
  -27.2750  -33.3566   26.2132 H   0  0  0  0  0  0
  -28.3878  -32.6883   25.0279 H   0  0  0  0  0  0
  -28.0786  -31.8342   26.5322 H   0  0  0  0  0  0
  -28.2637  -38.0088   24.7527 H   0  0  0  0  0  0
  -28.1036  -36.2624   24.6302 H   0  0  0  0  0  0
  -27.2317  -37.1489   25.8895 H   0  0  0  0  0  0
  -20.9245  -29.8790   21.7024 H   0  0  0  0  0  0
  -26.0177  -38.2901   24.1415 H   0  0  0  0  0  0
  -31.8378  -18.5898   22.3085 H   0  0  0  0  0  0
  -32.5179  -19.4346   24.4173 H   0  0  0  0  0  0
  -34.2950  -19.8970   24.5307 H   0  0  0  0  0  0
  -33.6684  -22.3200   24.5898 H   0  0  0  0  0  0
  -31.8879  -21.8703   24.4571 H   0  0  0  0  0  0
  -29.7012  -17.6289   22.7743 H   0  0  0  0  0  0
  -28.0889  -17.8833   22.1180 H   0  0  0  0  0  0
  -29.1563  -15.4063   22.6150 H   0  0  0  0  0  0
  -28.0299  -15.6771   21.2787 H   0  0  0  0  0  0
  -30.7529  -16.8656   19.1023 H   0  0  0  0  0  0
  -31.6195  -16.9847   20.6262 H   0  0  0  0  0  0
  -30.4772  -25.3079   20.3703 H   0  0  0  0  0  0
  -29.8536  -24.7548   21.9740 H   0  0  0  0  0  0
  -28.6501  -24.6740   18.5148 H   0  0  0  0  0  0
  -27.2688  -23.8607   19.3629 H   0  0  0  0  0  0
  -34.1175  -21.1837   22.3823 H   0  0  0  0  0  0
  -28.9250  -18.1300   19.8986 H   0  0  0  0  0  0
  -27.5447  -25.2844   21.3449 H   0  0  0  0  0  0
  -29.7087  -22.4020   18.6390 H   0  0  0  0  0  0
  -31.0282  -23.3684   19.2373 H   0  0  0  0  0  0
  -28.7102  -23.0060   20.9585 H   0  0  0  0  0  0
  1 25  1  0  0  0
  1 30  2  0  0  0
  1 88  1  0  0  0
  2  3  1  0  0  0
  2 25  1  0  0  0
  2 90  1  0  0  0
  2 91  1  0  0  0
  3  4  1  0  0  0
  3 92  1  0  0  0
  3 93  1  0  0  0
  4  5  1  0  0  0
  4 94  1  0  0  0
  4 95  1  0  0  0
  5  6  1  0  0  0
  5 26  1  0  0  0
  5 96  1  0  0  0
  6 25  1  0  0  0
  6 97  1  0  0  0
  6 98  1  0  0  0
  7  8  2  0  0  0
  7 26  1  0  0  0
  7 29  1  0  0  0
  8  9  1  0  0  0
  8 22  1  0  0  0
  9 10  1  0  0  0
  9 27  2  0  0  0
 10 11  2  0  0  0
 10 15  1  0  0  0
 11 12  1  0  0  0
 11 99  1  0  0  0
 12 13  2  0  0  0
 12100  1  0  0  0
 13 14  1  0  0  0
 13 31  1  0  0  0
 14 15  2  0  0  0
 14101  1  0  0  0
 15102  1  0  0  0
 16 17  2  0  0  0
 16 21  1  0  0  0
 16 31  1  0  0  0
 17 18  1  0  0  0
 17103  1  0  0  0
 18 19  2  0  0  0
 18104  1  0  0  0
 19 20  1  0  0  0
 19 24  1  0  0  0
 20 21  2  0  0  0
 20105  1  0  0  0
 21 23  1  0  0  0
 22 28  1  0  0  0
 22 32  2  0  0  0
 26 27  1  0  0  0
 28106  1  0  0  0
 28107  1  0  0  0
 29108  1  0  0  0
 29109  1  0  0  0
 33 34  1  0  0  0
 33 66  1  0  0  0
 33 70  2  0  0  0
 34 36  1  0  0  0
 34 59  1  0  0  0
 34110  1  0  0  0
 35 44  2  0  0  0
 35 45  1  0  0  0
 35 68  1  0  0  0
 36 56  1  0  0  0
 36111  1  0  0  0
 37 39  1  0  0  0
 37 47  1  0  0  0
 37 66  1  0  0  0
 37112  1  0  0  0
 38 43  2  0  0  0
 38 46  1  0  0  0
 38 47  1  0  0  0
 39 64  1  0  0  0
 39 67  2  0  0  0
 40 52  1  0  0  0
 40 53  2  0  0  0
 40 58  1  0  0  0
 41113  1  0  0  0
 41114  1  0  0  0
 41115  1  0  0  0
 41 48  1  0  0  0
 42 43  1  0  0  0
 42 66  1  0  0  0
 42116  1  0  0  0
 42117  1  0  0  0
 43 44  1  0  0  0
 44118  1  0  0  0
 45 46  2  0  0  0
 45119  1  0  0  0
 46120  1  0  0  0
 47121  1  0  0  0
 47122  1  0  0  0
 48 56  1  0  0  0
 48 65  1  0  0  0
 48123  1  0  0  0
 49 50  1  0  0  0
 49 53  1  0  0  0
 49 64  1  0  0  0
 49124  1  0  0  0
 50 51  1  0  0  0
 50125  1  0  0  0
 50126  1  0  0  0
 51 52  1  0  0  0
 51127  1  0  0  0
 51128  1  0  0  0
 52129  1  0  0  0
 52130  1  0  0  0
 53 54  1  0  0  0
 54 55  2  0  0  0
 54131  1  0  0  0
 55 57  1  0  0  0
 55132  1  0  0  0
 56 69  2  0  0  0
 57 58  2  0  0  0
 57133  1  0  0  0
 58134  1  0  0  0
 59 60  1  0  0  0
 59 61  1  0  0  0
 59 62  1  0  0  0
 60135  1  0  0  0
 60136  1  0  0  0
 60137  1  0  0  0
 61138  1  0  0  0
 61139  1  0  0  0
 61140  1  0  0  0
 62141  1  0  0  0
 62142  1  0  0  0
 62143  1  0  0  0
 63 65  1  0  0  0
 63144  1  0  0  0
 63145  1  0  0  0
 63146  1  0  0  0
 64147  1  0  0  0
 65148  1  0  0  0
 68 84  1  0  0  0
 71 72  2  0  0  0
 71 73  1  0  0  0
 71149  1  0  0  0
 72 86  1  0  0  0
 72 82  1  0  0  0
 73 87  2  0  0  0
 73 83  1  0  0  0
 74 85  1  0  0  0
 74 86  2  0  0  0
 74 87  1  0  0  0
 75 76  1  0  0  0
 75 82  1  0  0  0
 75150  1  0  0  0
 75151  1  0  0  0
 76 82  1  0  0  0
 76152  1  0  0  0
 76153  1  0  0  0
 77 78  1  0  0  0
 77 83  1  0  0  0
 77154  1  0  0  0
 77155  1  0  0  0
 78 88  1  0  0  0
 78156  1  0  0  0
 78157  1  0  0  0
 79 83  1  0  0  0
 79 88  1  0  0  0
 79158  1  0  0  0
 79159  1  0  0  0
 80 84  1  0  0  0
 80 89  1  0  0  0
 80160  1  0  0  0
 80161  1  0  0  0
 81 84  1  0  0  0
 81 89  1  0  0  0
 81162  1  0  0  0
 81163  1  0  0  0
 82164  1  0  0  0
 83165  1  0  0  0
 84166  1  0  0  0
 85167  1  0  0  0
 85168  1  0  0  0
 85 89  1  0  0  0
 89169  1  0  0  0
M  CHG  1  89   1
M  ISO  4   1 100  68 101  84 101  88 100
M  END
> <chiral flag>
0

> <version>
0

> <s_m_source_file>
/data/baiqing/PycharmProjects/Reinvent-master-3.2/result/LINK_invent/BTK/process_docking_weight1_custom_sum_contain_oxygen_bond_distance_aromatic_linkinvent_7_9_3/rearranged_h_0197.sdf

> <i_m_source_file_index>
14

> <r_mmod_Potential_Energy-OPLS-2005>
-490.819305419922

> <r_mmod_Stretch_Energy-OPLS-2005>
34.0789680480957

> <r_mmod_Bend_Energy-OPLS-2005>
141.099792480469

> <r_mmod_Torsional_Energy-OPLS-2005>
366.802093505859

> <r_mmod_Improper_Torsional_Energy-OPLS-2005>
13.5220193862915

> <r_mmod_Van_der_Waal_Energy-OPLS-2005>
162.784957885742

> <r_mmod_Electrostatic_Energy-OPLS-2005>
-774.90234375

> <r_mmod_Solvation_Energy-OPLS-2005>
-449.925628662109

> <b_mmod_Minimization_Converged-OPLS-2005>
0

> <r_mmod_RMS_Derivative-OPLS-2005>
3.3231143951416

$$$$
14
                    3D
 Structure written by MMmdl.
176187  0  0  1  0            999 V2000
  -30.7210  -14.4456   20.4052 C   0  0  0  0  0  0
  -30.4076  -12.2345   19.4207 C   0  0  0  0  0  0
  -29.4691  -12.3745   18.2021 C   0  0  0  0  0  0
  -27.9933  -12.2937   18.6325 C   0  0  0  0  0  0
  -27.6510  -13.1899   19.8528 C   0  0  2  0  0  0
  -28.7094  -13.0506   20.9745 C   0  0  0  0  0  0
  -25.2590  -13.8139   20.5692 C   0  0  0  0  0  0
  -24.1834  -13.0443   20.9201 C   0  0  0  0  0  0
  -24.6361  -11.6903   20.8807 C   0  0  0  0  0  0
  -23.9038  -10.4295   21.0455 C   0  0  0  0  0  0
  -24.3595   -9.4204   21.9226 C   0  0  0  0  0  0
  -23.6269   -8.2240   22.0776 C   0  0  0  0  0  0
  -22.4263   -8.0281   21.3550 C   0  0  0  0  0  0
  -21.9893   -9.0265   20.4667 C   0  0  0  0  0  0
  -22.7220  -10.2143   20.3090 C   0  0  0  0  0  0
  -21.6848   -6.0728   22.5271 C   0  0  0  0  0  0
  -21.4010   -6.5635   23.8203 C   0  0  0  0  0  0
  -21.3655   -5.6792   24.9167 C   0  0  0  0  0  0
  -21.6042   -4.3056   24.7222 C   0  0  0  0  0  0
  -21.8822   -3.8144   23.4347 C   0  0  0  0  0  0
  -21.9186   -4.6955   22.3399 C   0  0  0  0  0  0
  -22.7860  -13.5255   21.1834 C   0  0  0  0  0  0
  -22.1663   -4.2138   21.0980 F   0  0  0  0  0  0
  -21.5622   -3.4546   25.7738 F   0  0  0  0  0  0
  -30.0347  -13.2768   20.3827 N   0  0  0  0  0  0
  -26.3003  -12.9280   20.3388 N   0  0  0  0  0  0
  -25.9290  -11.6469   20.5897 N   0  0  0  0  0  0
  -22.0490  -12.8257   22.0379 N   0  0  0  0  0  0
  -25.4299  -15.1852   20.4040 N   0  0  0  0  0  0
  -31.9461  -14.5025   20.2949 O   0  0  0  0  0  0
  -21.6637   -6.8874   21.4234 O   0  0  0  0  0  0
  -22.3561  -14.5571   20.6676 O   0  0  0  0  0  0
  -24.6060  -31.8758   23.2148 C   0  0  0  0  0  0
  -25.8968  -32.4875   23.8436 C   0  0  1  0  0  0
  -27.2315  -27.4742   20.0929 C   0  0  0  0  0  0
  -25.5869  -33.8670   24.2376 N   0  0  0  0  0  0
  -23.3944  -30.4963   21.5554 C   0  0  2  0  0  0
  -24.8421  -28.9662   20.1248 C   0  0  0  0  0  0
  -22.7390  -29.4675   22.5037 C   0  0  0  0  0  0
  -18.0263  -28.1353   22.8508 C   0  0  0  0  0  0
  -24.1494  -36.7335   23.2633 C   0  0  0  0  0  0
  -25.9191  -30.8505   21.3653 C   0  0  0  0  0  0
  -25.9988  -29.4824   20.7265 C   0  0  0  0  0  0
  -27.1965  -28.7376   20.7179 C   0  0  0  0  0  0
  -26.0668  -26.9733   19.4767 C   0  0  0  0  0  0
  -24.8669  -27.7070   19.5049 C   0  0  0  0  0  0
  -23.6020  -29.8266   20.1709 C   0  0  0  0  0  0
  -25.4104  -36.3135   24.0341 C   0  0  1  0  0  0
  -20.5861  -28.3638   23.1330 C   0  0  2  0  0  0
  -20.6753  -26.9386   22.5403 C   0  0  0  0  0  0
  -19.5734  -26.6367   21.5205 C   0  0  0  0  0  0
  -18.1906  -26.7904   22.1613 C   0  0  0  0  0  0
  -19.1507  -28.8816   23.2919 C   0  0  0  0  0  0
  -18.9447  -30.1435   23.8918 C   0  0  0  0  0  0
  -17.6443  -30.6574   24.0558 C   0  0  0  0  0  0
  -25.9032  -34.9500   23.5149 C   0  0  0  0  0  0
  -16.5338  -29.9069   23.6332 C   0  0  0  0  0  0
  -16.7244  -28.6479   23.0358 C   0  0  0  0  0  0
  -26.4432  -31.6625   25.0744 C   0  0  0  0  0  0
  -25.3711  -31.3687   26.1507 C   0  0  0  0  0  0
  -27.0281  -30.3082   24.6063 C   0  0  0  0  0  0
  -27.6027  -32.4329   25.7500 C   0  0  0  0  0  0
  -27.5580  -37.1800   24.8460 C   0  0  0  0  0  0
  -21.4124  -29.3040   22.3783 N   0  0  0  0  0  0
  -26.4299  -37.3794   23.9406 N   0  0  0  0  0  0
  -24.6583  -31.0894   22.1030 N   0  0  0  0  0  0
  -23.4197  -28.8182   23.3015 O   0  0  0  0  0  0
  -28.3917  -26.7474   20.0236 O   0  0  0  0  0  0
  -26.5588  -34.8916   22.4697 O   0  0  0  0  0  0
  -23.5258  -32.1452   23.7570 O   0  0  0  0  0  0
  -29.0943  -21.0640   16.8696 C   0  0  0  0  0  0
  -29.4107  -20.3180   14.8055 C   0  0  0  0  0  0
  -29.5989  -18.9539   16.5253 C   0  0  0  0  0  0
  -29.1375  -17.6057   19.3993 C   0  0  0  0  0  0
  -30.0720  -22.4296   18.8538 C   0  0  0  0  0  0
  -28.1937  -21.6463   20.0733 C   0  0  0  0  0  0
  -29.2217  -16.4535   20.4225 C   0  0  0  0  0  0
  -30.5003  -15.9161   18.4915 C   0  0  0  0  0  0
  -27.3978  -23.6468   19.1678 C   0  0  0  0  0  0
  -28.9252  -22.2272   17.8361 C   0  0  2  0  0  0
  -27.6766  -22.1947   18.7448 C   0  0  1  0  0  0
  -29.4789  -16.9455   18.0570 C   0  0  2  0  0  0
  -29.2997  -22.6939   20.1633 C   0  0  2  0  0  0
  -29.5129  -20.5704   13.3157 C   0  0  0  0  0  0
  -28.2517  -24.6908   21.2947 C   0  0  0  0  0  0
  -28.7977  -26.1281   21.2445 C   0  0  0  0  0  0
  -29.1168  -21.3613   15.5735 N   0  0  0  0  0  0
  -29.2953  -19.8749   17.4145 N   0  0  0  0  0  0
  -29.6881  -19.0859   15.2176 N   0  0  0  0  0  0
  -30.0271  -15.4153   19.7792 N   0  0  0  0  0  0
  -30.0573  -17.7569   16.9930 N   0  0  0  0  0  0
  -28.5677  -23.9807   20.0274 N   0  3  2  0  0  0
  -31.4502  -12.3068   19.1043 H   0  0  0  0  0  0
  -30.2948  -11.2494   19.8775 H   0  0  0  0  0  0
  -29.6784  -11.5829   17.4820 H   0  0  0  0  0  0
  -29.6374  -13.3033   17.6683 H   0  0  0  0  0  0
  -27.7891  -11.2501   18.8754 H   0  0  0  0  0  0
  -27.3403  -12.5379   17.7932 H   0  0  0  0  0  0
  -27.6634  -14.2127   19.4833 H   0  0  0  0  0  0
  -28.6727  -12.0554   21.4198 H   0  0  0  0  0  0
  -28.5171  -13.7607   21.7809 H   0  0  0  0  0  0
  -25.2738   -9.5669   22.4813 H   0  0  0  0  0  0
  -23.9969   -7.4625   22.7491 H   0  0  0  0  0  0
  -21.0831   -8.8799   19.8969 H   0  0  0  0  0  0
  -22.3696  -10.9698   19.6209 H   0  0  0  0  0  0
  -21.2017   -7.6146   23.9695 H   0  0  0  0  0  0
  -21.1471   -6.0534   25.9064 H   0  0  0  0  0  0
  -22.0602   -2.7606   23.2856 H   0  0  0  0  0  0
  -22.4085  -11.9901   22.4761 H   0  0  0  0  0  0
  -21.1124  -13.1330   22.2616 H   0  0  0  0  0  0
  -24.6602  -15.8372   20.5099 H   0  0  0  0  0  0
  -26.2825  -15.6266   20.0874 H   0  0  0  0  0  0
  -26.7048  -32.5629   23.1230 H   0  0  0  0  0  0
  -25.0065  -33.9875   25.0550 H   0  0  0  0  0  0
  -22.6772  -31.3082   21.4169 H   0  0  0  0  0  0
  -23.3758  -35.9668   23.3314 H   0  0  0  0  0  0
  -24.3566  -36.8931   22.2039 H   0  0  0  0  0  0
  -23.7243  -37.6534   23.6652 H   0  0  0  0  0  0
  -26.0163  -31.6090   20.5867 H   0  0  0  0  0  0
  -26.8129  -30.9155   21.9753 H   0  0  0  0  0  0
  -28.0955  -29.1345   21.1702 H   0  0  0  0  0  0
  -26.0767  -26.0266   18.9642 H   0  0  0  0  0  0
  -23.9763  -27.3070   19.0383 H   0  0  0  0  0  0
  -23.7005  -30.5938   19.4011 H   0  0  0  0  0  0
  -22.7306  -29.2343   19.8872 H   0  0  0  0  0  0
  -25.1258  -36.2012   25.0828 H   0  0  0  0  0  0
  -20.9949  -28.3187   24.1448 H   0  0  0  0  0  0
  -20.5678  -26.2238   23.3576 H   0  0  0  0  0  0
  -21.6626  -26.7434   22.1203 H   0  0  0  0  0  0
  -19.6904  -25.6284   21.1220 H   0  0  0  0  0  0
  -19.6674  -27.3211   20.6763 H   0  0  0  0  0  0
  -17.4184  -26.6676   21.3996 H   0  0  0  0  0  0
  -18.0297  -26.0038   22.8994 H   0  0  0  0  0  0
  -19.7937  -30.7228   24.2305 H   0  0  0  0  0  0
  -17.5011  -31.6278   24.5117 H   0  0  0  0  0  0
  -15.5335  -30.2949   23.7682 H   0  0  0  0  0  0
  -15.8649  -28.0787   22.7072 H   0  0  0  0  0  0
  -24.5900  -30.7019   25.7834 H   0  0  0  0  0  0
  -24.8887  -32.2827   26.4987 H   0  0  0  0  0  0
  -25.8074  -30.8831   27.0252 H   0  0  0  0  0  0
  -26.2832  -29.6844   24.1122 H   0  0  0  0  0  0
  -27.4082  -29.7294   25.4489 H   0  0  0  0  0  0
  -27.8635  -30.4431   23.9196 H   0  0  0  0  0  0
  -27.2694  -33.3640   26.2086 H   0  0  0  0  0  0
  -28.3859  -32.6844   25.0345 H   0  0  0  0  0  0
  -28.0688  -31.8446   26.5421 H   0  0  0  0  0  0
  -28.2586  -38.0116   24.7534 H   0  0  0  0  0  0
  -28.1095  -36.2630   24.6279 H   0  0  0  0  0  0
  -27.2296  -37.1447   25.8867 H   0  0  0  0  0  0
  -20.9295  -29.8779   21.7018 H   0  0  0  0  0  0
  -26.0207  -38.2868   24.1425 H   0  0  0  0  0  0
  -29.8819  -18.3635   19.6515 H   0  0  0  0  0  0
  -28.1582  -18.0861   19.3908 H   0  0  0  0  0  0
  -30.7578  -23.2306   18.5771 H   0  0  0  0  0  0
  -30.6626  -21.5200   18.9725 H   0  0  0  0  0  0
  -28.5683  -20.6236   20.0154 H   0  0  0  0  0  0
  -27.4653  -21.7120   20.8840 H   0  0  0  0  0  0
  -28.2323  -16.0675   20.6591 H   0  0  0  0  0  0
  -29.6757  -16.7880   21.3565 H   0  0  0  0  0  0
  -31.4731  -16.3935   18.6371 H   0  0  0  0  0  0
  -30.6407  -15.1373   17.7445 H   0  0  0  0  0  0
  -26.4523  -23.7041   19.7081 H   0  0  0  0  0  0
  -27.3311  -24.3193   18.3146 H   0  0  0  0  0  0
  -28.8667  -23.1192   17.2096 H   0  0  0  0  0  0
  -26.8128  -21.6866   18.3139 H   0  0  0  0  0  0
  -28.5953  -16.4354   17.6712 H   0  0  0  0  0  0
  -29.9343  -22.6293   21.0488 H   0  0  0  0  0  0
  -28.8318  -21.3586   12.9970 H   0  0  0  0  0  0
  -29.2752  -19.6726   12.7450 H   0  0  0  0  0  0
  -30.5271  -20.8745   13.0609 H   0  0  0  0  0  0
  -27.1800  -24.7022   21.4927 H   0  0  0  0  0  0
  -28.7035  -24.1818   22.1465 H   0  0  0  0  0  0
  -29.8868  -26.1107   21.2661 H   0  0  0  0  0  0
  -28.4824  -26.6901   22.1251 H   0  0  0  0  0  0
  -30.4181  -17.1959   16.2318 H   0  0  0  0  0  0
  -29.1695  -24.6129   19.5149 H   0  0  0  0  0  0
  1 25  1  0  0  0
  1 30  2  0  0  0
  1 90  1  0  0  0
  2  3  1  0  0  0
  2 25  1  0  0  0
  2 93  1  0  0  0
  2 94  1  0  0  0
  3  4  1  0  0  0
  3 95  1  0  0  0
  3 96  1  0  0  0
  4  5  1  0  0  0
  4 97  1  0  0  0
  4 98  1  0  0  0
  5  6  1  0  0  0
  5 26  1  0  0  0
  5 99  1  0  0  0
  6 25  1  0  0  0
  6100  1  0  0  0
  6101  1  0  0  0
  7  8  2  0  0  0
  7 26  1  0  0  0
  7 29  1  0  0  0
  8  9  1  0  0  0
  8 22  1  0  0  0
  9 10  1  0  0  0
  9 27  2  0  0  0
 10 11  2  0  0  0
 10 15  1  0  0  0
 11 12  1  0  0  0
 11102  1  0  0  0
 12 13  2  0  0  0
 12103  1  0  0  0
 13 14  1  0  0  0
 13 31  1  0  0  0
 14 15  2  0  0  0
 14104  1  0  0  0
 15105  1  0  0  0
 16 17  2  0  0  0
 16 21  1  0  0  0
 16 31  1  0  0  0
 17 18  1  0  0  0
 17106  1  0  0  0
 18 19  2  0  0  0
 18107  1  0  0  0
 19 20  1  0  0  0
 19 24  1  0  0  0
 20 21  2  0  0  0
 20108  1  0  0  0
 21 23  1  0  0  0
 22 28  1  0  0  0
 22 32  2  0  0  0
 26 27  1  0  0  0
 28109  1  0  0  0
 28110  1  0  0  0
 29111  1  0  0  0
 29112  1  0  0  0
 33 34  1  0  0  0
 33 66  1  0  0  0
 33 70  2  0  0  0
 34 36  1  0  0  0
 34 59  1  0  0  0
 34113  1  0  0  0
 35 44  2  0  0  0
 35 45  1  0  0  0
 35 68  1  0  0  0
 36 56  1  0  0  0
 36114  1  0  0  0
 37 39  1  0  0  0
 37 47  1  0  0  0
 37 66  1  0  0  0
 37115  1  0  0  0
 38 43  2  0  0  0
 38 46  1  0  0  0
 38 47  1  0  0  0
 39 64  1  0  0  0
 39 67  2  0  0  0
 40 52  1  0  0  0
 40 53  2  0  0  0
 40 58  1  0  0  0
 41116  1  0  0  0
 41117  1  0  0  0
 41118  1  0  0  0
 41 48  1  0  0  0
 42 43  1  0  0  0
 42 66  1  0  0  0
 42119  1  0  0  0
 42120  1  0  0  0
 43 44  1  0  0  0
 44121  1  0  0  0
 45 46  2  0  0  0
 45122  1  0  0  0
 46123  1  0  0  0
 47124  1  0  0  0
 47125  1  0  0  0
 48 56  1  0  0  0
 48 65  1  0  0  0
 48126  1  0  0  0
 49 50  1  0  0  0
 49 53  1  0  0  0
 49 64  1  0  0  0
 49127  1  0  0  0
 50 51  1  0  0  0
 50128  1  0  0  0
 50129  1  0  0  0
 51 52  1  0  0  0
 51130  1  0  0  0
 51131  1  0  0  0
 52132  1  0  0  0
 52133  1  0  0  0
 53 54  1  0  0  0
 54 55  2  0  0  0
 54134  1  0  0  0
 55 57  1  0  0  0
 55135  1  0  0  0
 56 69  2  0  0  0
 57 58  2  0  0  0
 57136  1  0  0  0
 58137  1  0  0  0
 59 60  1  0  0  0
 59 61  1  0  0  0
 59 62  1  0  0  0
 60138  1  0  0  0
 60139  1  0  0  0
 60140  1  0  0  0
 61141  1  0  0  0
 61142  1  0  0  0
 61143  1  0  0  0
 62144  1  0  0  0
 62145  1  0  0  0
 62146  1  0  0  0
 63 65  1  0  0  0
 63147  1  0  0  0
 63148  1  0  0  0
 63149  1  0  0  0
 64150  1  0  0  0
 65151  1  0  0  0
 68 86  1  0  0  0
 71 87  1  0  0  0
 71 88  2  0  0  0
 71 80  1  0  0  0
 72 84  1  0  0  0
 72 87  2  0  0  0
 72 89  1  0  0  0
 73 88  1  0  0  0
 73 89  2  0  0  0
 73 91  1  0  0  0
 74 77  1  0  0  0
 74 82  1  0  0  0
 74152  1  0  0  0
 74153  1  0  0  0
 75 80  1  0  0  0
 75154  1  0  0  0
 75155  1  0  0  0
 75 83  1  0  0  0
 76 81  1  0  0  0
 76 83  1  0  0  0
 76156  1  0  0  0
 76157  1  0  0  0
 77 90  1  0  0  0
 77158  1  0  0  0
 77159  1  0  0  0
 78 82  1  0  0  0
 78 90  1  0  0  0
 78160  1  0  0  0
 78161  1  0  0  0
 79 92  1  0  0  0
 79162  1  0  0  0
 79163  1  0  0  0
 79 81  1  0  0  0
 80 81  1  0  0  0
 80164  1  0  0  0
 81165  1  0  0  0
 82 91  1  0  0  0
 82166  1  0  0  0
 83 92  1  0  0  0
 83167  1  0  0  0
 84168  1  0  0  0
 84169  1  0  0  0
 84170  1  0  0  0
 85 86  1  0  0  0
 85171  1  0  0  0
 85172  1  0  0  0
 85 92  1  0  0  0
 86173  1  0  0  0
 86174  1  0  0  0
 91175  1  0  0  0
 92176  1  0  0  0
M  CHG  1  92   1
M  ISO  4   1 100  68 101  86 101  90 100
M  END
> <chiral flag>
0

> <version>
0

> <s_m_source_file>
/data/baiqing/PycharmProjects/Reinvent-master-3.2/result/LINK_invent/BTK/process_docking_weight1_custom_sum_contain_oxygen_bond_distance_aromatic_linkinvent_7_9_3/rearranged_h_0197.sdf

> <i_m_source_file_index>
15

> <r_mmod_Potential_Energy-OPLS-2005>
-519.830810546875

> <r_mmod_Stretch_Energy-OPLS-2005>
32.4628753662109

> <r_mmod_Bend_Energy-OPLS-2005>
243.577606201172

> <r_mmod_Torsional_Energy-OPLS-2005>
469.553009033203

> <r_mmod_Improper_Torsional_Energy-OPLS-2005>
35.9731674194336

> <r_mmod_Van_der_Waal_Energy-OPLS-2005>
173.740631103516

> <r_mmod_Electrostatic_Energy-OPLS-2005>
-1069.08630371094

> <r_mmod_Solvation_Energy-OPLS-2005>
-436.748504638672

> <b_mmod_Minimization_Converged-OPLS-2005>
0

> <r_mmod_RMS_Derivative-OPLS-2005>
2.9362576007843

$$$$
15
                    3D
 Structure written by MMmdl.
158167  0  0  1  0            999 V2000
  -30.7159  -14.5803   20.5059 C   0  0  0  0  0  0
  -30.4314  -12.3569   19.4536 C   0  0  0  0  0  0
  -29.5069  -12.4688   18.2240 C   0  0  0  0  0  0
  -28.0313  -12.3044   18.6430 C   0  0  0  0  0  0
  -27.6495  -13.1910   19.8567 C   0  0  2  0  0  0
  -28.7042  -13.1075   20.9868 C   0  0  0  0  0  0
  -25.2605  -13.8102   20.5740 C   0  0  0  0  0  0
  -24.1834  -13.0410   20.9223 C   0  0  0  0  0  0
  -24.6365  -11.6873   20.8769 C   0  0  0  0  0  0
  -23.9020  -10.4284   21.0428 C   0  0  0  0  0  0
  -24.3584   -9.4209   21.9203 C   0  0  0  0  0  0
  -23.6275   -8.2240   22.0765 C   0  0  0  0  0  0
  -22.4257   -8.0280   21.3558 C   0  0  0  0  0  0
  -21.9884   -9.0260   20.4666 C   0  0  0  0  0  0
  -22.7197  -10.2145   20.3082 C   0  0  0  0  0  0
  -21.6856   -6.0740   22.5285 C   0  0  0  0  0  0
  -21.4012   -6.5639   23.8225 C   0  0  0  0  0  0
  -21.3652   -5.6784   24.9181 C   0  0  0  0  0  0
  -21.6040   -4.3050   24.7221 C   0  0  0  0  0  0
  -21.8825   -3.8152   23.4336 C   0  0  0  0  0  0
  -21.9200   -4.6974   22.3398 C   0  0  0  0  0  0
  -22.7871  -13.5273   21.1842 C   0  0  0  0  0  0
  -22.1663   -4.2168   21.0973 F   0  0  0  0  0  0
  -21.5627   -3.4527   25.7726 F   0  0  0  0  0  0
  -30.0224  -13.4035   20.4061 N   0  0  0  0  0  0
  -26.2995  -12.9211   20.3370 N   0  0  0  0  0  0
  -25.9289  -11.6404   20.5812 N   0  0  0  0  0  0
  -22.0449  -12.8333   22.0394 N   0  0  0  0  0  0
  -25.4322  -15.1824   20.4177 N   0  0  0  0  0  0
  -31.9115  -14.6543   20.2158 O   0  0  0  0  0  0
  -21.6638   -6.8870   21.4244 O   0  0  0  0  0  0
  -22.3599  -14.5571   20.6646 O   0  0  0  0  0  0
  -24.6169  -31.8675   23.2101 C   0  0  0  0  0  0
  -25.9042  -32.4823   23.8409 C   0  0  1  0  0  0
  -27.2340  -27.3979   20.1211 C   0  0  0  0  0  0
  -25.5889  -33.8624   24.2342 N   0  0  0  0  0  0
  -23.4070  -30.4938   21.5493 C   0  0  2  0  0  0
  -24.8574  -28.9649   20.1117 C   0  0  0  0  0  0
  -22.7429  -29.4657   22.4951 C   0  0  0  0  0  0
  -18.0274  -28.1376   22.8489 C   0  0  0  0  0  0
  -24.1491  -36.7317   23.2634 C   0  0  0  0  0  0
  -25.9416  -30.8299   21.3667 C   0  0  0  0  0  0
  -26.0221  -29.4643   20.7074 C   0  0  0  0  0  0
  -27.2136  -28.6941   20.6999 C   0  0  0  0  0  0
  -26.0437  -26.9316   19.5064 C   0  0  0  0  0  0
  -24.8663  -27.7005   19.5051 C   0  0  0  0  0  0
  -23.6190  -29.8331   20.1619 C   0  0  0  0  0  0
  -25.4109  -36.3115   24.0340 C   0  0  1  0  0  0
  -20.5871  -28.3671   23.1300 C   0  0  2  0  0  0
  -20.6770  -26.9404   22.5412 C   0  0  0  0  0  0
  -19.5746  -26.6378   21.5212 C   0  0  0  0  0  0
  -18.1919  -26.7926   22.1614 C   0  0  0  0  0  0
  -19.1526  -28.8839   23.2894 C   0  0  0  0  0  0
  -18.9453  -30.1445   23.8904 C   0  0  0  0  0  0
  -17.6458  -30.6585   24.0555 C   0  0  0  0  0  0
  -25.9041  -34.9475   23.5143 C   0  0  0  0  0  0
  -16.5347  -29.9088   23.6319 C   0  0  0  0  0  0
  -16.7266  -28.6501   23.0350 C   0  0  0  0  0  0
  -26.4463  -31.6592   25.0733 C   0  0  0  0  0  0
  -25.3727  -31.3700   26.1478 C   0  0  0  0  0  0
  -27.0286  -30.3028   24.6120 C   0  0  0  0  0  0
  -27.6055  -32.4293   25.7486 C   0  0  0  0  0  0
  -27.5595  -37.1803   24.8456 C   0  0  0  0  0  0
  -21.4154  -29.3044   22.3707 N   0  0  0  0  0  0
  -26.4294  -37.3802   23.9422 N   0  0  0  0  0  0
  -24.6735  -31.0767   22.1003 N   0  0  0  0  0  0
  -23.4193  -28.8180   23.2986 O   0  0  0  0  0  0
  -28.3744  -26.6004   20.1957 O   0  0  0  0  0  0
  -26.5606  -34.8921   22.4708 O   0  0  0  0  0  0
  -23.5354  -32.1424   23.7478 O   0  0  0  0  0  0
  -30.3327  -19.8804   22.3122 C   0  0  0  0  0  0
  -29.9166  -21.1434   22.4362 C   0  0  0  0  0  0
  -29.7931  -20.6111   20.2962 C   0  0  0  0  0  0
  -29.5789  -17.6839   19.3334 C   0  0  0  0  0  0
  -29.1744  -16.2415   19.6364 C   0  0  0  0  0  0
  -30.5118  -16.9301   21.4318 C   0  0  0  0  0  0
  -30.5306  -18.1434   20.4439 C   0  0  2  0  0  0
  -29.2494  -24.2001   20.7482 C   0  0  0  0  0  0
  -28.6477  -22.7720   20.9734 C   0  0  0  0  0  0
  -28.1318  -25.1690   20.2377 C   0  0  0  0  0  0
  -30.2037  -19.5044   20.9811 N   0  0  0  0  0  0
  -29.5441  -21.6055   21.1840 N   0  0  0  0  0  0
  -29.9969  -15.7227   20.7320 N   0  0  0  0  0  0
  -29.6079  -20.6946   19.0787 O   0  0  0  0  0  0
  -31.4771  -12.4485   19.1531 H   0  0  0  0  0  0
  -30.3382  -11.3727   19.9142 H   0  0  0  0  0  0
  -29.7724  -11.7069   17.4898 H   0  0  0  0  0  0
  -29.6568  -13.4305   17.7329 H   0  0  0  0  0  0
  -27.8812  -11.2537   18.8945 H   0  0  0  0  0  0
  -27.3742  -12.5161   17.7985 H   0  0  0  0  0  0
  -27.6306  -14.2002   19.4655 H   0  0  0  0  0  0
  -28.7134  -12.1120   21.4359 H   0  0  0  0  0  0
  -28.4634  -13.8039   21.7921 H   0  0  0  0  0  0
  -25.2726   -9.5711   22.4776 H   0  0  0  0  0  0
  -24.0013   -7.4631   22.7471 H   0  0  0  0  0  0
  -21.0826   -8.8781   19.8955 H   0  0  0  0  0  0
  -22.3656  -10.9703   19.6207 H   0  0  0  0  0  0
  -21.1994   -7.6143   23.9740 H   0  0  0  0  0  0
  -21.1463   -6.0502   25.9089 H   0  0  0  0  0  0
  -22.0600   -2.7618   23.2835 H   0  0  0  0  0  0
  -22.4017  -12.0039   22.4910 H   0  0  0  0  0  0
  -21.1063  -13.1432   22.2481 H   0  0  0  0  0  0
  -24.6719  -15.8387   20.5542 H   0  0  0  0  0  0
  -26.2928  -15.6288   20.1316 H   0  0  0  0  0  0
  -26.7118  -32.5532   23.1177 H   0  0  0  0  0  0
  -24.9996  -33.9793   25.0456 H   0  0  0  0  0  0
  -22.6958  -31.3110   21.4114 H   0  0  0  0  0  0
  -23.3761  -35.9638   23.3271 H   0  0  0  0  0  0
  -24.3602  -36.8959   22.2057 H   0  0  0  0  0  0
  -23.7222  -37.6506   23.6663 H   0  0  0  0  0  0
  -26.0603  -31.6043   20.6068 H   0  0  0  0  0  0
  -26.8250  -30.8771   21.9911 H   0  0  0  0  0  0
  -28.1086  -29.0761   21.1719 H   0  0  0  0  0  0
  -25.9928  -25.9613   19.0359 H   0  0  0  0  0  0
  -23.9684  -27.3094   19.0469 H   0  0  0  0  0  0
  -23.7294  -30.6122   19.4069 H   0  0  0  0  0  0
  -22.7419  -29.2571   19.8605 H   0  0  0  0  0  0
  -25.1283  -36.1983   25.0832 H   0  0  0  0  0  0
  -20.9970  -28.3243   24.1417 H   0  0  0  0  0  0
  -20.5672  -26.2283   23.3606 H   0  0  0  0  0  0
  -21.6641  -26.7441   22.1202 H   0  0  0  0  0  0
  -19.6909  -25.6285   21.1247 H   0  0  0  0  0  0
  -19.6696  -27.3184   20.6738 H   0  0  0  0  0  0
  -17.4204  -26.6686   21.4006 H   0  0  0  0  0  0
  -18.0309  -26.0060   22.9000 H   0  0  0  0  0  0
  -19.7932  -30.7256   24.2284 H   0  0  0  0  0  0
  -17.5013  -31.6275   24.5138 H   0  0  0  0  0  0
  -15.5348  -30.3000   23.7629 H   0  0  0  0  0  0
  -15.8663  -28.0822   22.7069 H   0  0  0  0  0  0
  -24.5860  -30.7107   25.7789 H   0  0  0  0  0  0
  -24.8966  -32.2863   26.4982 H   0  0  0  0  0  0
  -25.8057  -30.8794   27.0204 H   0  0  0  0  0  0
  -26.2840  -29.6801   24.1146 H   0  0  0  0  0  0
  -27.4016  -29.7251   25.4588 H   0  0  0  0  0  0
  -27.8698  -30.4337   23.9306 H   0  0  0  0  0  0
  -27.2681  -33.3545   26.2168 H   0  0  0  0  0  0
  -28.3803  -32.6928   25.0275 H   0  0  0  0  0  0
  -28.0796  -31.8352   26.5311 H   0  0  0  0  0  0
  -28.2584  -38.0129   24.7544 H   0  0  0  0  0  0
  -28.1118  -36.2663   24.6217 H   0  0  0  0  0  0
  -27.2325  -37.1379   25.8859 H   0  0  0  0  0  0
  -20.9304  -29.8800   21.6963 H   0  0  0  0  0  0
  -26.0183  -38.2874   24.1452 H   0  0  0  0  0  0
  -30.6952  -19.1828   23.0529 H   0  0  0  0  0  0
  -29.8259  -21.7784   23.3068 H   0  0  0  0  0  0
  -28.6720  -18.2841   19.2675 H   0  0  0  0  0  0
  -30.0715  -17.7558   18.3620 H   0  0  0  0  0  0
  -29.2421  -15.6407   18.7269 H   0  0  0  0  0  0
  -28.1355  -16.2371   19.9643 H   0  0  0  0  0  0
  -29.8219  -17.1224   22.2536 H   0  0  0  0  0  0
  -31.4939  -16.7575   21.8777 H   0  0  0  0  0  0
  -31.5326  -18.2067   20.0150 H   0  0  0  0  0  0
  -30.0670  -24.1679   20.0280 H   0  0  0  0  0  0
  -29.6663  -24.5728   21.6844 H   0  0  0  0  0  0
  -28.0059  -22.5395   20.1213 H   0  0  0  0  0  0
  -27.9690  -22.8193   21.8261 H   0  0  0  0  0  0
  -27.2630  -24.9945   20.8765 H   0  0  0  0  0  0
  -27.8594  -24.8429   19.2336 H   0  0  0  0  0  0
  1 25  1  0  0  0
  1 30  2  0  0  0
  1 83  1  0  0  0
  2  3  1  0  0  0
  2 25  1  0  0  0
  2 85  1  0  0  0
  2 86  1  0  0  0
  3  4  1  0  0  0
  3 87  1  0  0  0
  3 88  1  0  0  0
  4  5  1  0  0  0
  4 89  1  0  0  0
  4 90  1  0  0  0
  5  6  1  0  0  0
  5 26  1  0  0  0
  5 91  1  0  0  0
  6 25  1  0  0  0
  6 92  1  0  0  0
  6 93  1  0  0  0
  7  8  2  0  0  0
  7 26  1  0  0  0
  7 29  1  0  0  0
  8  9  1  0  0  0
  8 22  1  0  0  0
  9 10  1  0  0  0
  9 27  2  0  0  0
 10 11  2  0  0  0
 10 15  1  0  0  0
 11 12  1  0  0  0
 11 94  1  0  0  0
 12 13  2  0  0  0
 12 95  1  0  0  0
 13 14  1  0  0  0
 13 31  1  0  0  0
 14 15  2  0  0  0
 14 96  1  0  0  0
 15 97  1  0  0  0
 16 17  2  0  0  0
 16 21  1  0  0  0
 16 31  1  0  0  0
 17 18  1  0  0  0
 17 98  1  0  0  0
 18 19  2  0  0  0
 18 99  1  0  0  0
 19 20  1  0  0  0
 19 24  1  0  0  0
 20 21  2  0  0  0
 20100  1  0  0  0
 21 23  1  0  0  0
 22 28  1  0  0  0
 22 32  2  0  0  0
 26 27  1  0  0  0
 28101  1  0  0  0
 28102  1  0  0  0
 29103  1  0  0  0
 29104  1  0  0  0
 33 34  1  0  0  0
 33 66  1  0  0  0
 33 70  2  0  0  0
 34 36  1  0  0  0
 34 59  1  0  0  0
 34105  1  0  0  0
 35 44  2  0  0  0
 35 45  1  0  0  0
 35 68  1  0  0  0
 36 56  1  0  0  0
 36106  1  0  0  0
 37 39  1  0  0  0
 37 47  1  0  0  0
 37 66  1  0  0  0
 37107  1  0  0  0
 38 43  2  0  0  0
 38 46  1  0  0  0
 38 47  1  0  0  0
 39 64  1  0  0  0
 39 67  2  0  0  0
 40 52  1  0  0  0
 40 53  2  0  0  0
 40 58  1  0  0  0
 41108  1  0  0  0
 41109  1  0  0  0
 41110  1  0  0  0
 41 48  1  0  0  0
 42 43  1  0  0  0
 42 66  1  0  0  0
 42111  1  0  0  0
 42112  1  0  0  0
 43 44  1  0  0  0
 44113  1  0  0  0
 45 46  2  0  0  0
 45114  1  0  0  0
 46115  1  0  0  0
 47116  1  0  0  0
 47117  1  0  0  0
 48 56  1  0  0  0
 48 65  1  0  0  0
 48118  1  0  0  0
 49 50  1  0  0  0
 49 53  1  0  0  0
 49 64  1  0  0  0
 49119  1  0  0  0
 50 51  1  0  0  0
 50120  1  0  0  0
 50121  1  0  0  0
 51 52  1  0  0  0
 51122  1  0  0  0
 51123  1  0  0  0
 52124  1  0  0  0
 52125  1  0  0  0
 53 54  1  0  0  0
 54 55  2  0  0  0
 54126  1  0  0  0
 55 57  1  0  0  0
 55127  1  0  0  0
 56 69  2  0  0  0
 57 58  2  0  0  0
 57128  1  0  0  0
 58129  1  0  0  0
 59 60  1  0  0  0
 59 61  1  0  0  0
 59 62  1  0  0  0
 60130  1  0  0  0
 60131  1  0  0  0
 60132  1  0  0  0
 61133  1  0  0  0
 61134  1  0  0  0
 61135  1  0  0  0
 62136  1  0  0  0
 62137  1  0  0  0
 62138  1  0  0  0
 63 65  1  0  0  0
 63139  1  0  0  0
 63140  1  0  0  0
 63141  1  0  0  0
 64142  1  0  0  0
 65143  1  0  0  0
 68 80  1  0  0  0
 71 72  2  0  0  0
 71 81  1  0  0  0
 71144  1  0  0  0
 72 82  1  0  0  0
 72145  1  0  0  0
 73 81  1  0  0  0
 73 82  1  0  0  0
 73 84  2  0  0  0
 74 75  1  0  0  0
 74 77  1  0  0  0
 74146  1  0  0  0
 74147  1  0  0  0
 75 83  1  0  0  0
 75148  1  0  0  0
 75149  1  0  0  0
 76 77  1  0  0  0
 76 83  1  0  0  0
 76150  1  0  0  0
 76151  1  0  0  0
 77 81  1  0  0  0
 77152  1  0  0  0
 78 79  1  0  0  0
 78 80  1  0  0  0
 78153  1  0  0  0
 78154  1  0  0  0
 79 82  1  0  0  0
 79155  1  0  0  0
 79156  1  0  0  0
 80157  1  0  0  0
 80158  1  0  0  0
M  ISO  4   1 100  68 101  80 101  83 100
M  END
> <chiral flag>
0

> <version>
0

> <s_m_source_file>
/data/baiqing/PycharmProjects/Reinvent-master-3.2/result/LINK_invent/BTK/process_docking_weight1_custom_sum_contain_oxygen_bond_distance_aromatic_linkinvent_7_9_3/rearranged_h_0197.sdf

> <i_m_source_file_index>
16

> <r_mmod_Potential_Energy-OPLS-2005>
388.258514404297

> <r_mmod_Stretch_Energy-OPLS-2005>
52.9898796081543

> <r_mmod_Bend_Energy-OPLS-2005>
229.579788208008

> <r_mmod_Torsional_Energy-OPLS-2005>
413.144866943359

> <r_mmod_Improper_Torsional_Energy-OPLS-2005>
9.35972690582275

> <r_mmod_Van_der_Waal_Energy-OPLS-2005>
132.478561401367

> <r_mmod_Electrostatic_Energy-OPLS-2005>
-263.549499511719

> <r_mmod_Solvation_Energy-OPLS-2005>
-221.414535522461

> <b_mmod_Minimization_Converged-OPLS-2005>
0

> <r_mmod_RMS_Derivative-OPLS-2005>
2.16327548027039

$$$$
16
                    3D
 Structure written by MMmdl.
162171  0  0  1  0            999 V2000
  -30.6605  -14.7120   20.4643 C   0  0  0  0  0  0
  -30.4221  -12.4387   19.4710 C   0  0  0  0  0  0
  -29.5061  -12.5046   18.2319 C   0  0  0  0  0  0
  -28.0320  -12.3376   18.6464 C   0  0  0  0  0  0
  -27.6399  -13.2372   19.8496 C   0  0  2  0  0  0
  -28.6864  -13.1866   20.9832 C   0  0  0  0  0  0
  -25.2512  -13.8218   20.5717 C   0  0  0  0  0  0
  -24.1802  -13.0451   20.9200 C   0  0  0  0  0  0
  -24.6401  -11.6927   20.8739 C   0  0  0  0  0  0
  -23.9083  -10.4301   21.0399 C   0  0  0  0  0  0
  -24.3631   -9.4215   21.9182 C   0  0  0  0  0  0
  -23.6306   -8.2246   22.0755 C   0  0  0  0  0  0
  -22.4288   -8.0287   21.3543 C   0  0  0  0  0  0
  -21.9919   -9.0261   20.4649 C   0  0  0  0  0  0
  -22.7249  -10.2140   20.3056 C   0  0  0  0  0  0
  -21.6852   -6.0743   22.5282 C   0  0  0  0  0  0
  -21.4008   -6.5646   23.8218 C   0  0  0  0  0  0
  -21.3657   -5.6792   24.9175 C   0  0  0  0  0  0
  -21.6047   -4.3057   24.7221 C   0  0  0  0  0  0
  -21.8818   -3.8152   23.4339 C   0  0  0  0  0  0
  -21.9192   -4.6970   22.3397 C   0  0  0  0  0  0
  -22.7825  -13.5230   21.1860 C   0  0  0  0  0  0
  -22.1666   -4.2161   21.0972 F   0  0  0  0  0  0
  -21.5628   -3.4537   25.7731 F   0  0  0  0  0  0
  -29.9868  -13.5139   20.3915 N   0  0  0  0  0  0
  -26.2938  -12.9432   20.3296 N   0  0  0  0  0  0
  -25.9338  -11.6569   20.5759 N   0  0  0  0  0  0
  -22.0472  -12.8220   22.0417 N   0  0  0  0  0  0
  -25.4230  -15.1941   20.4180 N   0  0  0  0  0  0
  -31.8574  -14.7498   20.1621 O   0  0  0  0  0  0
  -21.6647   -6.8888   21.4244 O   0  0  0  0  0  0
  -22.3510  -14.5531   20.6699 O   0  0  0  0  0  0
  -24.6300  -31.8567   23.1998 C   0  0  0  0  0  0
  -25.9131  -32.4764   23.8344 C   0  0  1  0  0  0
  -27.2228  -27.2861   20.1083 C   0  0  0  0  0  0
  -25.5937  -33.8567   24.2267 N   0  0  0  0  0  0
  -23.4255  -30.4806   21.5427 C   0  0  2  0  0  0
  -24.8706  -28.9316   20.1067 C   0  0  0  0  0  0
  -22.7500  -29.4617   22.4914 C   0  0  0  0  0  0
  -18.0291  -28.1393   22.8482 C   0  0  0  0  0  0
  -24.1487  -36.7280   23.2637 C   0  0  0  0  0  0
  -25.9702  -30.7745   21.3782 C   0  0  0  0  0  0
  -26.0414  -29.3995   20.7177 C   0  0  0  0  0  0
  -27.2156  -28.5840   20.7182 C   0  0  0  0  0  0
  -26.0201  -26.8701   19.4940 C   0  0  0  0  0  0
  -24.8634  -27.6721   19.4887 C   0  0  0  0  0  0
  -23.6413  -29.8166   20.1576 C   0  0  0  0  0  0
  -25.4109  -36.3073   24.0330 C   0  0  1  0  0  0
  -20.5899  -28.3707   23.1272 C   0  0  2  0  0  0
  -20.6781  -26.9423   22.5417 C   0  0  0  0  0  0
  -19.5758  -26.6391   21.5222 C   0  0  0  0  0  0
  -18.1936  -26.7941   22.1618 C   0  0  0  0  0  0
  -19.1547  -28.8864   23.2873 C   0  0  0  0  0  0
  -18.9463  -30.1463   23.8895 C   0  0  0  0  0  0
  -17.6461  -30.6595   24.0562 C   0  0  0  0  0  0
  -25.9056  -34.9445   23.5101 C   0  0  0  0  0  0
  -16.5354  -29.9088   23.6333 C   0  0  0  0  0  0
  -16.7282  -28.6508   23.0356 C   0  0  0  0  0  0
  -26.4493  -31.6592   25.0737 C   0  0  0  0  0  0
  -25.3712  -31.3751   26.1465 C   0  0  0  0  0  0
  -27.0336  -30.3005   24.6237 C   0  0  0  0  0  0
  -27.6055  -32.4333   25.7500 C   0  0  0  0  0  0
  -27.5588  -37.1781   24.8448 C   0  0  0  0  0  0
  -21.4211  -29.3046   22.3656 N   0  0  0  0  0  0
  -26.4275  -37.3781   23.9433 N   0  0  0  0  0  0
  -24.6942  -31.0556   22.0958 N   0  0  0  0  0  0
  -23.4204  -28.8169   23.3018 O   0  0  0  0  0  0
  -28.3124  -26.3935   20.1904 O   0  0  0  0  0  0
  -26.5635  -34.8918   22.4674 O   0  0  0  0  0  0
  -23.5456  -32.1385   23.7302 O   0  0  0  0  0  0
  -29.0782  -23.0627   18.2215 C   0  0  0  0  0  0
  -28.7842  -23.8929   19.2904 C   0  0  0  0  0  0
  -29.0507  -21.7131   19.9210 C   0  0  0  0  0  0
  -28.9492  -18.1238   19.5845 C   0  0  0  0  0  0
  -29.8335  -18.2807   21.8245 C   0  0  0  0  0  0
  -29.6385  -16.7035   19.4205 C   0  0  0  0  0  0
  -30.5075  -16.8581   21.6749 C   0  0  0  0  0  0
  -29.7116  -19.1088   20.5133 C   0  0  0  0  0  0
  -29.2003  -23.4219   16.7695 C   0  0  0  0  0  0
  -28.4611  -23.3271   21.7730 C   0  0  0  0  0  0
  -28.5817  -25.4521   19.0852 C   0  0  0  0  0  0
  -29.2603  -21.7352   18.6166 N   0  0  0  0  0  0
  -28.7509  -22.9816   20.3951 N   0  0  0  0  0  0
  -29.9674  -15.9111   20.6499 N   0  0  0  0  0  0
  -29.1433  -20.5044   20.6914 N   0  0  0  0  0  0
  -31.4663  -12.5381   19.1706 H   0  0  0  0  0  0
  -30.3472  -11.4661   19.9599 H   0  0  0  0  0  0
  -29.7837  -11.7310   17.5147 H   0  0  0  0  0  0
  -29.6403  -13.4606   17.7220 H   0  0  0  0  0  0
  -27.8805  -11.2893   18.9046 H   0  0  0  0  0  0
  -27.3763  -12.5376   17.7984 H   0  0  0  0  0  0
  -27.6297  -14.2579   19.4675 H   0  0  0  0  0  0
  -28.7142  -12.2009   21.4488 H   0  0  0  0  0  0
  -28.4324  -13.8966   21.7719 H   0  0  0  0  0  0
  -25.2775   -9.5693   22.4758 H   0  0  0  0  0  0
  -24.0021   -7.4632   22.7467 H   0  0  0  0  0  0
  -21.0849   -8.8777   19.8955 H   0  0  0  0  0  0
  -22.3706  -10.9678   19.6164 H   0  0  0  0  0  0
  -21.1999   -7.6157   23.9723 H   0  0  0  0  0  0
  -21.1482   -6.0524   25.9081 H   0  0  0  0  0  0
  -22.0597   -2.7618   23.2828 H   0  0  0  0  0  0
  -22.4088  -11.9879   22.4801 H   0  0  0  0  0  0
  -21.1089  -13.1244   22.2615 H   0  0  0  0  0  0
  -24.6625  -15.8540   20.5418 H   0  0  0  0  0  0
  -26.2908  -15.6352   20.1411 H   0  0  0  0  0  0
  -26.7205  -32.5412   23.1087 H   0  0  0  0  0  0
  -25.0061  -33.9706   25.0398 H   0  0  0  0  0  0
  -22.7215  -31.3033   21.4001 H   0  0  0  0  0  0
  -23.3772  -35.9587   23.3244 H   0  0  0  0  0  0
  -24.3587  -36.8962   22.2065 H   0  0  0  0  0  0
  -23.7210  -37.6451   23.6693 H   0  0  0  0  0  0
  -26.1126  -31.5375   20.6118 H   0  0  0  0  0  0
  -26.8462  -30.8176   22.0138 H   0  0  0  0  0  0
  -28.1091  -28.9352   21.2155 H   0  0  0  0  0  0
  -25.9352  -25.8868   19.0549 H   0  0  0  0  0  0
  -23.9618  -27.2989   19.0219 H   0  0  0  0  0  0
  -23.7611  -30.5943   19.4023 H   0  0  0  0  0  0
  -22.7594  -29.2496   19.8547 H   0  0  0  0  0  0
  -25.1286  -36.1906   25.0824 H   0  0  0  0  0  0
  -20.9990  -28.3285   24.1396 H   0  0  0  0  0  0
  -20.5680  -26.2324   23.3626 H   0  0  0  0  0  0
  -21.6648  -26.7451   22.1213 H   0  0  0  0  0  0
  -19.6917  -25.6299   21.1262 H   0  0  0  0  0  0
  -19.6703  -27.3194   20.6746 H   0  0  0  0  0  0
  -17.4215  -26.6706   21.4006 H   0  0  0  0  0  0
  -18.0306  -26.0086   22.9011 H   0  0  0  0  0  0
  -19.7934  -30.7280   24.2268 H   0  0  0  0  0  0
  -17.5015  -31.6275   24.5167 H   0  0  0  0  0  0
  -15.5349  -30.2984   23.7674 H   0  0  0  0  0  0
  -15.8681  -28.0833   22.7063 H   0  0  0  0  0  0
  -24.5877  -30.7117   25.7789 H   0  0  0  0  0  0
  -24.8917  -32.2925   26.4890 H   0  0  0  0  0  0
  -25.8021  -30.8919   27.0242 H   0  0  0  0  0  0
  -26.2924  -29.6757   24.1245 H   0  0  0  0  0  0
  -27.3987  -29.7275   25.4770 H   0  0  0  0  0  0
  -27.8816  -30.4269   23.9503 H   0  0  0  0  0  0
  -27.2671  -33.3634   26.2074 H   0  0  0  0  0  0
  -28.3854  -32.6897   25.0315 H   0  0  0  0  0  0
  -28.0739  -31.8469   26.5413 H   0  0  0  0  0  0
  -28.2553  -38.0132   24.7576 H   0  0  0  0  0  0
  -28.1142  -36.2673   24.6149 H   0  0  0  0  0  0
  -27.2332  -37.1273   25.8853 H   0  0  0  0  0  0
  -20.9400  -29.8742   21.6837 H   0  0  0  0  0  0
  -26.0148  -38.2846   24.1479 H   0  0  0  0  0  0
  -27.9331  -17.9846   19.9575 H   0  0  0  0  0  0
  -28.8408  -18.5763   18.5980 H   0  0  0  0  0  0
  -30.4071  -18.8534   22.5548 H   0  0  0  0  0  0
  -28.8426  -18.1534   22.2642 H   0  0  0  0  0  0
  -30.5644  -16.8470   18.8599 H   0  0  0  0  0  0
  -29.0078  -16.0881   18.7779 H   0  0  0  0  0  0
  -30.4668  -16.3572   22.6437 H   0  0  0  0  0  0
  -31.5685  -17.0156   21.4726 H   0  0  0  0  0  0
  -30.7143  -19.2475   20.1049 H   0  0  0  0  0  0
  -29.5140  -24.4555   16.6253 H   0  0  0  0  0  0
  -28.2470  -23.2944   16.2549 H   0  0  0  0  0  0
  -29.9306  -22.7934   16.2596 H   0  0  0  0  0  0
  -28.1580  -24.3703   21.8495 H   0  0  0  0  0  0
  -29.3475  -23.1674   22.3871 H   0  0  0  0  0  0
  -27.6501  -22.7012   22.1464 H   0  0  0  0  0  0
  -27.8935  -25.6036   18.2555 H   0  0  0  0  0  0
  -29.5231  -25.8234   18.6796 H   0  0  0  0  0  0
  -28.9054  -20.6800   21.6611 H   0  0  0  0  0  0
  1 25  1  0  0  0
  1 30  2  0  0  0
  1 84  1  0  0  0
  2  3  1  0  0  0
  2 25  1  0  0  0
  2 86  1  0  0  0
  2 87  1  0  0  0
  3  4  1  0  0  0
  3 88  1  0  0  0
  3 89  1  0  0  0
  4  5  1  0  0  0
  4 90  1  0  0  0
  4 91  1  0  0  0
  5  6  1  0  0  0
  5 26  1  0  0  0
  5 92  1  0  0  0
  6 25  1  0  0  0
  6 93  1  0  0  0
  6 94  1  0  0  0
  7  8  2  0  0  0
  7 26  1  0  0  0
  7 29  1  0  0  0
  8  9  1  0  0  0
  8 22  1  0  0  0
  9 10  1  0  0  0
  9 27  2  0  0  0
 10 11  2  0  0  0
 10 15  1  0  0  0
 11 12  1  0  0  0
 11 95  1  0  0  0
 12 13  2  0  0  0
 12 96  1  0  0  0
 13 14  1  0  0  0
 13 31  1  0  0  0
 14 15  2  0  0  0
 14 97  1  0  0  0
 15 98  1  0  0  0
 16 17  2  0  0  0
 16 21  1  0  0  0
 16 31  1  0  0  0
 17 18  1  0  0  0
 17 99  1  0  0  0
 18 19  2  0  0  0
 18100  1  0  0  0
 19 20  1  0  0  0
 19 24  1  0  0  0
 20 21  2  0  0  0
 20101  1  0  0  0
 21 23  1  0  0  0
 22 28  1  0  0  0
 22 32  2  0  0  0
 26 27  1  0  0  0
 28102  1  0  0  0
 28103  1  0  0  0
 29104  1  0  0  0
 29105  1  0  0  0
 33 34  1  0  0  0
 33 66  1  0  0  0
 33 70  2  0  0  0
 34 36  1  0  0  0
 34 59  1  0  0  0
 34106  1  0  0  0
 35 44  2  0  0  0
 35 45  1  0  0  0
 35 68  1  0  0  0
 36 56  1  0  0  0
 36107  1  0  0  0
 37 39  1  0  0  0
 37 47  1  0  0  0
 37 66  1  0  0  0
 37108  1  0  0  0
 38 43  2  0  0  0
 38 46  1  0  0  0
 38 47  1  0  0  0
 39 64  1  0  0  0
 39 67  2  0  0  0
 40 52  1  0  0  0
 40 53  2  0  0  0
 40 58  1  0  0  0
 41109  1  0  0  0
 41110  1  0  0  0
 41111  1  0  0  0
 41 48  1  0  0  0
 42 43  1  0  0  0
 42 66  1  0  0  0
 42112  1  0  0  0
 42113  1  0  0  0
 43 44  1  0  0  0
 44114  1  0  0  0
 45 46  2  0  0  0
 45115  1  0  0  0
 46116  1  0  0  0
 47117  1  0  0  0
 47118  1  0  0  0
 48 56  1  0  0  0
 48 65  1  0  0  0
 48119  1  0  0  0
 49 50  1  0  0  0
 49 53  1  0  0  0
 49 64  1  0  0  0
 49120  1  0  0  0
 50 51  1  0  0  0
 50121  1  0  0  0
 50122  1  0  0  0
 51 52  1  0  0  0
 51123  1  0  0  0
 51124  1  0  0  0
 52125  1  0  0  0
 52126  1  0  0  0
 53 54  1  0  0  0
 54 55  2  0  0  0
 54127  1  0  0  0
 55 57  1  0  0  0
 55128  1  0  0  0
 56 69  2  0  0  0
 57 58  2  0  0  0
 57129  1  0  0  0
 58130  1  0  0  0
 59 60  1  0  0  0
 59 61  1  0  0  0
 59 62  1  0  0  0
 60131  1  0  0  0
 60132  1  0  0  0
 60133  1  0  0  0
 61134  1  0  0  0
 61135  1  0  0  0
 61136  1  0  0  0
 62137  1  0  0  0
 62138  1  0  0  0
 62139  1  0  0  0
 63 65  1  0  0  0
 63140  1  0  0  0
 63141  1  0  0  0
 63142  1  0  0  0
 64143  1  0  0  0
 65144  1  0  0  0
 68 81  1  0  0  0
 71 72  2  0  0  0
 71 79  1  0  0  0
 71 82  1  0  0  0
 72 81  1  0  0  0
 72 83  1  0  0  0
 73 82  2  0  0  0
 73 83  1  0  0  0
 73 85  1  0  0  0
 74 76  1  0  0  0
 74 78  1  0  0  0
 74145  1  0  0  0
 74146  1  0  0  0
 75 77  1  0  0  0
 75 78  1  0  0  0
 75147  1  0  0  0
 75148  1  0  0  0
 76 84  1  0  0  0
 76149  1  0  0  0
 76150  1  0  0  0
 77 84  1  0  0  0
 77151  1  0  0  0
 77152  1  0  0  0
 78 85  1  0  0  0
 78153  1  0  0  0
 79154  1  0  0  0
 79155  1  0  0  0
 79156  1  0  0  0
 80 83  1  0  0  0
 80157  1  0  0  0
 80158  1  0  0  0
 80159  1  0  0  0
 81160  1  0  0  0
 81161  1  0  0  0
 85162  1  0  0  0
M  ISO  4   1 100  68 101  81 101  84 100
M  END
> <chiral flag>
0

> <version>
0

> <s_m_source_file>
/data/baiqing/PycharmProjects/Reinvent-master-3.2/result/LINK_invent/BTK/process_docking_weight1_custom_sum_contain_oxygen_bond_distance_aromatic_linkinvent_7_9_3/rearranged_h_0197.sdf

> <i_m_source_file_index>
17

> <r_mmod_Potential_Energy-OPLS-2005>
248.29216003418

> <r_mmod_Stretch_Energy-OPLS-2005>
103.089874267578

> <r_mmod_Bend_Energy-OPLS-2005>
222.687225341797

> <r_mmod_Torsional_Energy-OPLS-2005>
320.673309326172

> <r_mmod_Improper_Torsional_Energy-OPLS-2005>
10.2138586044312

> <r_mmod_Van_der_Waal_Energy-OPLS-2005>
117.472618103027

> <r_mmod_Electrostatic_Energy-OPLS-2005>
-380.385162353516

> <r_mmod_Solvation_Energy-OPLS-2005>
-221.688034057617

> <b_mmod_Minimization_Converged-OPLS-2005>
0

> <r_mmod_RMS_Derivative-OPLS-2005>
1.40423667430878

$$$$
17
                    3D
 Structure written by MMmdl.
173183  0  0  1  0            999 V2000
  -30.8560  -14.4253   20.6392 C   0  0  0  0  0  0
  -30.4926  -12.4029   19.3219 C   0  0  0  0  0  0
  -29.4196  -12.2335   18.2273 C   0  0  0  0  0  0
  -27.9466  -12.5736   18.5561 C   0  0  0  0  0  0
  -27.6771  -13.2482   19.9275 C   0  0  2  0  0  0
  -28.7810  -12.8899   20.9516 C   0  0  0  0  0  0
  -25.2351  -13.8085   20.5519 C   0  0  0  0  0  0
  -24.1789  -13.0306   20.9293 C   0  0  0  0  0  0
  -24.6492  -11.6819   20.8897 C   0  0  0  0  0  0
  -23.9040  -10.4269   21.0500 C   0  0  0  0  0  0
  -24.3586   -9.4203   21.9252 C   0  0  0  0  0  0
  -23.6299   -8.2257   22.0695 C   0  0  0  0  0  0
  -22.4257   -8.0321   21.3528 C   0  0  0  0  0  0
  -21.9970   -9.0278   20.4560 C   0  0  0  0  0  0
  -22.7265  -10.2174   20.3040 C   0  0  0  0  0  0
  -21.6839   -6.0769   22.5333 C   0  0  0  0  0  0
  -21.4038   -6.5606   23.8311 C   0  0  0  0  0  0
  -21.3716   -5.6723   24.9218 C   0  0  0  0  0  0
  -21.6097   -4.3015   24.7229 C   0  0  0  0  0  0
  -21.8742   -3.8145   23.4315 C   0  0  0  0  0  0
  -21.9166   -4.6992   22.3393 C   0  0  0  0  0  0
  -22.7777  -13.5093   21.1981 C   0  0  0  0  0  0
  -22.1576   -4.2122   21.1003 F   0  0  0  0  0  0
  -21.5695   -3.4537   25.7775 F   0  0  0  0  0  0
  -30.0643  -13.3402   20.3758 N   0  0  0  0  0  0
  -26.3101  -12.9465   20.3839 N   0  0  0  0  0  0
  -25.9499  -11.6516   20.6093 N   0  0  0  0  0  0
  -22.0382  -12.8085   22.0490 N   0  0  0  0  0  0
  -25.3350  -15.1664   20.3211 N   0  0  0  0  0  0
  -32.0199  -14.4487   20.2430 O   0  0  0  0  0  0
  -21.6607   -6.8939   21.4305 O   0  0  0  0  0  0
  -22.3529  -14.5516   20.7016 O   0  0  0  0  0  0
  -24.6122  -31.8767   23.2080 C   0  0  0  0  0  0
  -25.9047  -32.4861   23.8384 C   0  0  1  0  0  0
  -27.2148  -27.4354   20.0693 C   0  0  0  0  0  0
  -25.5907  -33.8623   24.2352 N   0  0  0  0  0  0
  -23.3995  -30.5036   21.5536 C   0  0  2  0  0  0
  -24.8364  -28.9758   20.1175 C   0  0  0  0  0  0
  -22.7380  -29.4723   22.4971 C   0  0  0  0  0  0
  -18.0279  -28.1372   22.8496 C   0  0  0  0  0  0
  -24.1516  -36.7351   23.2614 C   0  0  0  0  0  0
  -25.9311  -30.8412   21.3581 C   0  0  0  0  0  0
  -26.0102  -29.4774   20.6992 C   0  0  0  0  0  0
  -27.2030  -28.7128   20.6696 C   0  0  0  0  0  0
  -26.0213  -26.9631   19.4809 C   0  0  0  0  0  0
  -24.8383  -27.7197   19.5068 C   0  0  0  0  0  0
  -23.6036  -29.8469   20.1681 C   0  0  0  0  0  0
  -25.4112  -36.3114   24.0328 C   0  0  1  0  0  0
  -20.5871  -28.3674   23.1322 C   0  0  2  0  0  0
  -20.6770  -26.9427   22.5399 C   0  0  0  0  0  0
  -19.5745  -26.6402   21.5197 C   0  0  0  0  0  0
  -18.1927  -26.7916   22.1621 C   0  0  0  0  0  0
  -19.1532  -28.8839   23.2917 C   0  0  0  0  0  0
  -18.9440  -30.1438   23.8941 C   0  0  0  0  0  0
  -17.6443  -30.6585   24.0574 C   0  0  0  0  0  0
  -25.9050  -34.9468   23.5132 C   0  0  0  0  0  0
  -16.5339  -29.9088   23.6312 C   0  0  0  0  0  0
  -16.7265  -28.6496   23.0346 C   0  0  0  0  0  0
  -26.4466  -31.6570   25.0658 C   0  0  0  0  0  0
  -25.3745  -31.3654   26.1416 C   0  0  0  0  0  0
  -27.0269  -30.2997   24.5997 C   0  0  0  0  0  0
  -27.6075  -32.4220   25.7420 C   0  0  0  0  0  0
  -27.5594  -37.1819   24.8451 C   0  0  0  0  0  0
  -21.4113  -29.3050   22.3710 N   0  0  0  0  0  0
  -26.4312  -37.3787   23.9395 N   0  0  0  0  0  0
  -24.6676  -31.0875   22.0972 N   0  0  0  0  0  0
  -23.4184  -28.8239   23.2976 O   0  0  0  0  0  0
  -28.3599  -26.6654   20.0672 O   0  0  0  0  0  0
  -26.5598  -34.8915   22.4686 O   0  0  0  0  0  0
  -23.5316  -32.1468   23.7571 O   0  0  0  0  0  0
  -25.6507  -18.8156   17.4753 C   0  0  0  0  0  0
  -25.9720  -17.4515   17.2969 C   0  0  0  0  0  0
  -26.4280  -19.5315   18.4125 C   0  0  0  0  0  0
  -27.6452  -17.6597   18.8086 C   0  0  0  0  0  0
  -24.9132  -15.0965   16.8777 C   0  0  0  0  0  0
  -25.8023  -15.3682   15.6800 C   0  0  0  0  0  0
  -28.1830  -16.8200   20.9746 C   0  0  0  0  0  0
  -29.9657  -17.4722   19.3559 C   0  0  0  0  0  0
  -29.1920  -15.9957   21.8094 C   0  0  0  0  0  0
  -30.9020  -16.8908   20.4244 C   0  0  0  0  0  0
  -25.1761  -16.5200   16.4325 C   0  0  0  0  0  0
  -26.1092  -20.9399   18.8920 C   0  0  0  0  0  0
  -27.2322  -21.9710   18.6134 C   0  0  0  0  0  0
  -28.0255  -24.3151   19.1544 C   0  0  0  0  0  0
  -28.1676  -25.2719   20.3741 C   0  0  0  0  0  0
  -26.9751  -16.8873   17.9764 N   0  0  0  0  0  0
  -27.4277  -18.9395   19.0699 N   0  0  0  0  0  0
  -28.5860  -17.0426   19.5690 N   0  0  0  0  0  0
  -30.3187  -15.6329   20.9513 N   0  0  0  0  0  0
  -27.0980  -23.1823   19.4580 N   0  3  0  0  0  0
  -31.3814  -12.7526   18.7835 H   0  0  0  0  0  0
  -30.8292  -11.4550   19.7564 H   0  0  0  0  0  0
  -29.4137  -11.1596   17.9937 H   0  0  0  0  0  0
  -29.7527  -12.7084   17.3056 H   0  0  0  0  0  0
  -27.3458  -11.6698   18.4376 H   0  0  0  0  0  0
  -27.5414  -13.2380   17.7780 H   0  0  0  0  0  0
  -27.7452  -14.3268   19.7719 H   0  0  0  0  0  0
  -28.8137  -11.8089   21.0617 H   0  0  0  0  0  0
  -28.6136  -13.2217   21.9729 H   0  0  0  0  0  0
  -25.2673   -9.5726   22.4857 H   0  0  0  0  0  0
  -24.0034   -7.4607   22.7294 H   0  0  0  0  0  0
  -21.1056   -8.8835   19.8776 H   0  0  0  0  0  0
  -22.3805  -10.9785   19.6157 H   0  0  0  0  0  0
  -21.1982   -7.6105   23.9778 H   0  0  0  0  0  0
  -21.1662   -6.0482   25.9134 H   0  0  0  0  0  0
  -22.0454   -2.7605   23.2848 H   0  0  0  0  0  0
  -22.3914  -11.9805   22.5061 H   0  0  0  0  0  0
  -21.0946  -13.0870   22.2609 H   0  0  0  0  0  0
  -24.4610  -15.6886   20.3141 H   0  0  0  0  0  0
  -25.9978  -15.4901   19.6229 H   0  0  0  0  0  0
  -26.7108  -32.5559   23.1152 H   0  0  0  0  0  0
  -25.0035  -33.9824   25.0470 H   0  0  0  0  0  0
  -22.6853  -31.3187   21.4200 H   0  0  0  0  0  0
  -23.3780  -35.9702   23.3260 H   0  0  0  0  0  0
  -24.3642  -36.8977   22.2045 H   0  0  0  0  0  0
  -23.7302  -37.6541   23.6650 H   0  0  0  0  0  0
  -26.0403  -31.6242   20.6077 H   0  0  0  0  0  0
  -26.8138  -30.8958   21.9818 H   0  0  0  0  0  0
  -28.0949  -29.1069   21.1335 H   0  0  0  0  0  0
  -25.9705  -26.0077   18.9930 H   0  0  0  0  0  0
  -23.9345  -27.3244   19.0608 H   0  0  0  0  0  0
  -23.7062  -30.6234   19.4075 H   0  0  0  0  0  0
  -22.7261  -29.2700   19.8692 H   0  0  0  0  0  0
  -25.1311  -36.1978   25.0826 H   0  0  0  0  0  0
  -20.9978  -28.3221   24.1445 H   0  0  0  0  0  0
  -20.5688  -26.2272   23.3569 H   0  0  0  0  0  0
  -21.6632  -26.7474   22.1192 H   0  0  0  0  0  0
  -19.6923  -25.6325   21.1195 H   0  0  0  0  0  0
  -19.6679  -27.3233   20.6744 H   0  0  0  0  0  0
  -17.4195  -26.6663   21.4032 H   0  0  0  0  0  0
  -18.0363  -26.0051   22.9011 H   0  0  0  0  0  0
  -19.7920  -30.7233   24.2327 H   0  0  0  0  0  0
  -17.5008  -31.6269   24.5166 H   0  0  0  0  0  0
  -15.5352  -30.3011   23.7612 H   0  0  0  0  0  0
  -15.8651  -28.0830   22.7047 H   0  0  0  0  0  0
  -24.5983  -30.6941   25.7740 H   0  0  0  0  0  0
  -24.8877  -32.2794   26.4799 H   0  0  0  0  0  0
  -25.8112  -30.8853   27.0198 H   0  0  0  0  0  0
  -26.2836  -29.6854   24.0913 H   0  0  0  0  0  0
  -27.3891  -29.7114   25.4448 H   0  0  0  0  0  0
  -27.8731  -30.4301   23.9254 H   0  0  0  0  0  0
  -27.2775  -33.3563   26.1985 H   0  0  0  0  0  0
  -28.3903  -32.6701   25.0231 H   0  0  0  0  0  0
  -28.0739  -31.8313   26.5327 H   0  0  0  0  0  0
  -28.2595  -38.0125   24.7512 H   0  0  0  0  0  0
  -28.1121  -36.2664   24.6292 H   0  0  0  0  0  0
  -27.2318  -37.1464   25.8848 H   0  0  0  0  0  0
  -20.9229  -29.8819   21.6990 H   0  0  0  0  0  0
  -26.0218  -38.2878   24.1349 H   0  0  0  0  0  0
  -24.8188  -19.2516   16.9491 H   0  0  0  0  0  0
  -25.4490  -14.6592   17.7134 H   0  0  0  0  0  0
  -23.8946  -14.7270   16.7377 H   0  0  0  0  0  0
  -25.3947  -15.0981   14.7202 H   0  0  0  0  0  0
  -26.8772  -15.2546   15.7805 H   0  0  0  0  0  0
  -28.0120  -17.7902   21.4367 H   0  0  0  0  0  0
  -27.2367  -16.3127   20.9865 H   0  0  0  0  0  0
  -30.2772  -17.0939   18.3807 H   0  0  0  0  0  0
  -30.0283  -18.5620   19.2959 H   0  0  0  0  0  0
  -29.5590  -16.5991   22.6410 H   0  0  0  0  0  0
  -28.7160  -15.1671   22.3142 H   0  0  0  0  0  0
  -31.0020  -17.6328   21.2236 H   0  0  0  0  0  0
  -31.9122  -16.8116   20.0215 H   0  0  0  0  0  0
  -24.3874  -17.0602   15.9172 H   0  0  0  0  0  0
  -25.9186  -20.8526   19.9599 H   0  0  0  0  0  0
  -25.1646  -21.2715   18.4768 H   0  0  0  0  0  0
  -27.2212  -22.2401   17.5545 H   0  0  0  0  0  0
  -28.1986  -21.5149   18.8241 H   0  0  0  0  0  0
  -29.0130  -23.9265   18.8999 H   0  0  0  0  0  0
  -27.6626  -24.8458   18.2771 H   0  0  0  0  0  0
  -29.0096  -24.9511   20.9875 H   0  0  0  0  0  0
  -27.3054  -25.1818   21.0411 H   0  0  0  0  0  0
  -27.2628  -22.8995   20.4131 H   0  0  0  0  0  0
  -26.1439  -23.5059   19.4155 H   0  0  0  0  0  0
  1 25  1  0  0  0
  1 30  2  0  0  0
  1 89  1  0  0  0
  2  3  1  0  0  0
  2 25  1  0  0  0
  2 91  1  0  0  0
  2 92  1  0  0  0
  3  4  1  0  0  0
  3 93  1  0  0  0
  3 94  1  0  0  0
  4  5  1  0  0  0
  4 95  1  0  0  0
  4 96  1  0  0  0
  5  6  1  0  0  0
  5 26  1  0  0  0
  5 97  1  0  0  0
  6 25  1  0  0  0
  6 98  1  0  0  0
  6 99  1  0  0  0
  7  8  2  0  0  0
  7 26  1  0  0  0
  7 29  1  0  0  0
  8  9  1  0  0  0
  8 22  1  0  0  0
  9 10  1  0  0  0
  9 27  2  0  0  0
 10 11  2  0  0  0
 10 15  1  0  0  0
 11 12  1  0  0  0
 11100  1  0  0  0
 12 13  2  0  0  0
 12101  1  0  0  0
 13 14  1  0  0  0
 13 31  1  0  0  0
 14 15  2  0  0  0
 14102  1  0  0  0
 15103  1  0  0  0
 16 17  2  0  0  0
 16 21  1  0  0  0
 16 31  1  0  0  0
 17 18  1  0  0  0
 17104  1  0  0  0
 18 19  2  0  0  0
 18105  1  0  0  0
 19 20  1  0  0  0
 19 24  1  0  0  0
 20 21  2  0  0  0
 20106  1  0  0  0
 21 23  1  0  0  0
 22 28  1  0  0  0
 22 32  2  0  0  0
 26 27  1  0  0  0
 28107  1  0  0  0
 28108  1  0  0  0
 29109  1  0  0  0
 29110  1  0  0  0
 33 34  1  0  0  0
 33 66  1  0  0  0
 33 70  2  0  0  0
 34 36  1  0  0  0
 34 59  1  0  0  0
 34111  1  0  0  0
 35 44  2  0  0  0
 35 45  1  0  0  0
 35 68  1  0  0  0
 36 56  1  0  0  0
 36112  1  0  0  0
 37 39  1  0  0  0
 37 47  1  0  0  0
 37 66  1  0  0  0
 37113  1  0  0  0
 38 43  2  0  0  0
 38 46  1  0  0  0
 38 47  1  0  0  0
 39 64  1  0  0  0
 39 67  2  0  0  0
 40 52  1  0  0  0
 40 53  2  0  0  0
 40 58  1  0  0  0
 41114  1  0  0  0
 41115  1  0  0  0
 41116  1  0  0  0
 41 48  1  0  0  0
 42 43  1  0  0  0
 42 66  1  0  0  0
 42117  1  0  0  0
 42118  1  0  0  0
 43 44  1  0  0  0
 44119  1  0  0  0
 45 46  2  0  0  0
 45120  1  0  0  0
 46121  1  0  0  0
 47122  1  0  0  0
 47123  1  0  0  0
 48 56  1  0  0  0
 48 65  1  0  0  0
 48124  1  0  0  0
 49 50  1  0  0  0
 49 53  1  0  0  0
 49 64  1  0  0  0
 49125  1  0  0  0
 50 51  1  0  0  0
 50126  1  0  0  0
 50127  1  0  0  0
 51 52  1  0  0  0
 51128  1  0  0  0
 51129  1  0  0  0
 52130  1  0  0  0
 52131  1  0  0  0
 53 54  1  0  0  0
 54 55  2  0  0  0
 54132  1  0  0  0
 55 57  1  0  0  0
 55133  1  0  0  0
 56 69  2  0  0  0
 57 58  2  0  0  0
 57134  1  0  0  0
 58135  1  0  0  0
 59 60  1  0  0  0
 59 61  1  0  0  0
 59 62  1  0  0  0
 60136  1  0  0  0
 60137  1  0  0  0
 60138  1  0  0  0
 61139  1  0  0  0
 61140  1  0  0  0
 61141  1  0  0  0
 62142  1  0  0  0
 62143  1  0  0  0
 62144  1  0  0  0
 63 65  1  0  0  0
 63145  1  0  0  0
 63146  1  0  0  0
 63147  1  0  0  0
 64148  1  0  0  0
 65149  1  0  0  0
 68 85  1  0  0  0
 71 72  2  0  0  0
 71 73  1  0  0  0
 71150  1  0  0  0
 72 86  1  0  0  0
 72 81  1  0  0  0
 73 82  1  0  0  0
 73 87  2  0  0  0
 74 86  2  0  0  0
 74 87  1  0  0  0
 74 88  1  0  0  0
 75 76  1  0  0  0
 75 81  1  0  0  0
 75151  1  0  0  0
 75152  1  0  0  0
 76 81  1  0  0  0
 76153  1  0  0  0
 76154  1  0  0  0
 77 79  1  0  0  0
 77 88  1  0  0  0
 77155  1  0  0  0
 77156  1  0  0  0
 78 80  1  0  0  0
 78 88  1  0  0  0
 78157  1  0  0  0
 78158  1  0  0  0
 79 89  1  0  0  0
 79159  1  0  0  0
 79160  1  0  0  0
 80 89  1  0  0  0
 80161  1  0  0  0
 80162  1  0  0  0
 81163  1  0  0  0
 82 83  1  0  0  0
 82164  1  0  0  0
 82165  1  0  0  0
 83 90  1  0  0  0
 83166  1  0  0  0
 83167  1  0  0  0
 84 85  1  0  0  0
 84 90  1  0  0  0
 84168  1  0  0  0
 84169  1  0  0  0
 85170  1  0  0  0
 85171  1  0  0  0
 90172  1  0  0  0
 90173  1  0  0  0
M  CHG  1  90   1
M  ISO  4   1 100  68 101  85 101  89 100
M  END
> <chiral flag>
0

> <version>
0

> <s_m_source_file>
/data/baiqing/PycharmProjects/Reinvent-master-3.2/result/LINK_invent/BTK/process_docking_weight1_custom_sum_contain_oxygen_bond_distance_aromatic_linkinvent_7_9_3/rearranged_h_0197.sdf

> <i_m_source_file_index>
18

> <r_mmod_Potential_Energy-OPLS-2005>
-365.677001953125

> <r_mmod_Stretch_Energy-OPLS-2005>
44.2527351379395

> <r_mmod_Bend_Energy-OPLS-2005>
152.648574829102

> <r_mmod_Torsional_Energy-OPLS-2005>
421.626800537109

> <r_mmod_Improper_Torsional_Energy-OPLS-2005>
19.779598236084

> <r_mmod_Van_der_Waal_Energy-OPLS-2005>
193.684585571289

> <r_mmod_Electrostatic_Energy-OPLS-2005>
-773.214965820312

> <r_mmod_Solvation_Energy-OPLS-2005>
-471.400970458984

> <b_mmod_Minimization_Converged-OPLS-2005>
0

> <r_mmod_RMS_Derivative-OPLS-2005>
16.1433849334717

$$$$
18
                    3D
 Structure written by MMmdl.
171181  0  0  1  0            999 V2000
  -30.7062  -14.4494   20.5433 C   0  0  0  0  0  0
  -30.4188  -12.2818   19.4166 C   0  0  0  0  0  0
  -29.4980  -12.4991   18.1988 C   0  0  0  0  0  0
  -28.0141  -12.3795   18.6089 C   0  0  0  0  0  0
  -27.6630  -13.2070   19.8760 C   0  0  2  0  0  0
  -28.7098  -12.9828   20.9912 C   0  0  0  0  0  0
  -25.2601  -13.8159   20.5695 C   0  0  0  0  0  0
  -24.1860  -13.0426   20.9179 C   0  0  0  0  0  0
  -24.6417  -11.6894   20.8733 C   0  0  0  0  0  0
  -23.9075  -10.4275   21.0400 C   0  0  0  0  0  0
  -24.3625   -9.4187   21.9183 C   0  0  0  0  0  0
  -23.6296   -8.2225   22.0747 C   0  0  0  0  0  0
  -22.4275   -8.0275   21.3542 C   0  0  0  0  0  0
  -21.9908   -9.0241   20.4633 C   0  0  0  0  0  0
  -22.7247  -10.2118   20.3034 C   0  0  0  0  0  0
  -21.6836   -6.0732   22.5288 C   0  0  0  0  0  0
  -21.4001   -6.5634   23.8221 C   0  0  0  0  0  0
  -21.3667   -5.6792   24.9186 C   0  0  0  0  0  0
  -21.6054   -4.3054   24.7232 C   0  0  0  0  0  0
  -21.8821   -3.8143   23.4356 C   0  0  0  0  0  0
  -21.9186   -4.6960   22.3409 C   0  0  0  0  0  0
  -22.7881  -13.5215   21.1845 C   0  0  0  0  0  0
  -22.1648   -4.2152   21.0990 F   0  0  0  0  0  0
  -21.5642   -3.4535   25.7742 F   0  0  0  0  0  0
  -30.0380  -13.2730   20.4302 N   0  0  0  0  0  0
  -26.3050  -12.9329   20.3394 N   0  0  0  0  0  0
  -25.9347  -11.6482   20.5777 N   0  0  0  0  0  0
  -22.0514  -12.8187   22.0396 N   0  0  0  0  0  0
  -25.4300  -15.1888   20.4117 N   0  0  0  0  0  0
  -31.8582  -14.6157   20.1295 O   0  0  0  0  0  0
  -21.6628   -6.8874   21.4248 O   0  0  0  0  0  0
  -22.3552  -14.5517   20.6694 O   0  0  0  0  0  0
  -24.6116  -31.8682   23.2099 C   0  0  0  0  0  0
  -25.9009  -32.4829   23.8390 C   0  0  1  0  0  0
  -27.2454  -27.4604   20.0845 C   0  0  0  0  0  0
  -25.5857  -33.8624   24.2321 N   0  0  0  0  0  0
  -23.4011  -30.4901   21.5497 C   0  0  2  0  0  0
  -24.8530  -28.9567   20.1131 C   0  0  0  0  0  0
  -22.7390  -29.4657   22.4986 C   0  0  0  0  0  0
  -18.0266  -28.1399   22.8487 C   0  0  0  0  0  0
  -24.1482  -36.7323   23.2640 C   0  0  0  0  0  0
  -25.9277  -30.8385   21.3642 C   0  0  0  0  0  0
  -26.0096  -29.4753   20.7101 C   0  0  0  0  0  0
  -27.2088  -28.7295   20.7025 C   0  0  0  0  0  0
  -26.0738  -26.9454   19.4951 C   0  0  0  0  0  0
  -24.8777  -27.6885   19.5047 C   0  0  0  0  0  0
  -23.6111  -29.8196   20.1639 C   0  0  0  0  0  0
  -25.4106  -36.3118   24.0335 C   0  0  1  0  0  0
  -20.5852  -28.3672   23.1325 C   0  0  2  0  0  0
  -20.6749  -26.9408   22.5427 C   0  0  0  0  0  0
  -19.5735  -26.6398   21.5213 C   0  0  0  0  0  0
  -18.1915  -26.7947   22.1624 C   0  0  0  0  0  0
  -19.1513  -28.8853   23.2908 C   0  0  0  0  0  0
  -18.9447  -30.1462   23.8919 C   0  0  0  0  0  0
  -17.6450  -30.6593   24.0582 C   0  0  0  0  0  0
  -25.9028  -34.9479   23.5138 C   0  0  0  0  0  0
  -16.5340  -29.9103   23.6330 C   0  0  0  0  0  0
  -16.7262  -28.6527   23.0338 C   0  0  0  0  0  0
  -26.4453  -31.6612   25.0720 C   0  0  0  0  0  0
  -25.3721  -31.3705   26.1466 C   0  0  0  0  0  0
  -27.0285  -30.3050   24.6099 C   0  0  0  0  0  0
  -27.6015  -32.4337   25.7485 C   0  0  0  0  0  0
  -27.5586  -37.1823   24.8460 C   0  0  0  0  0  0
  -21.4116  -29.3042   22.3721 N   0  0  0  0  0  0
  -26.4302  -37.3800   23.9402 N   0  0  0  0  0  0
  -24.6649  -31.0784   22.1009 N   0  0  0  0  0  0
  -23.4153  -28.8199   23.3037 O   0  0  0  0  0  0
  -28.3860  -26.6954   20.1132 O   0  0  0  0  0  0
  -26.5605  -34.8927   22.4707 O   0  0  0  0  0  0
  -23.5304  -32.1423   23.7500 O   0  0  0  0  0  0
  -29.0661  -19.7389   19.7655 C   0  0  0  0  0  0
  -29.3836  -21.1129   19.6652 C   0  0  0  0  0  0
  -29.7089  -19.0182   20.7975 C   0  0  0  0  0  0
  -30.7872  -20.9295   21.4631 C   0  0  0  0  0  0
  -29.9403  -22.1488   17.4253 C   0  0  0  0  0  0
  -29.5970  -16.5052   19.9091 C   0  0  0  0  0  0
  -30.5076  -16.6216   21.7181 C   0  0  0  0  0  0
  -30.2802  -23.6390   17.3571 C   0  0  0  0  0  0
  -28.4496  -23.4231   18.8888 C   0  0  0  0  0  0
  -28.8775  -21.9884   18.5149 C   0  0  2  0  0  0
  -29.4740  -17.5226   21.0385 C   0  0  0  0  0  0
  -30.8582  -22.1119   23.6902 C   0  0  0  0  0  0
  -31.6676  -21.6266   22.4814 C   0  0  0  0  0  0
  -29.0171  -25.6991   17.9610 C   0  0  0  0  0  0
  -29.2501  -26.8209   18.9897 C   0  0  0  0  0  0
  -30.2633  -21.6914   20.5080 N   0  0  0  0  0  0
  -30.5447  -19.6371   21.6587 N   0  0  0  0  0  0
  -29.9559  -15.5015   20.9293 N   0  0  0  0  0  0
  -29.5016  -24.3517   18.4009 N   0  3  2  0  0  0
  -27.9594  -18.9734   18.6735 Cl  0  0  0  0  0  0
  -31.4675  -12.3614   19.1253 H   0  0  0  0  0  0
  -30.2952  -11.2717   19.8120 H   0  0  0  0  0  0
  -29.7279  -11.7729   17.4183 H   0  0  0  0  0  0
  -29.6894  -13.4816   17.7641 H   0  0  0  0  0  0
  -27.8073  -11.3244   18.7899 H   0  0  0  0  0  0
  -27.3715  -12.6741   17.7785 H   0  0  0  0  0  0
  -27.7000  -14.2547   19.5865 H   0  0  0  0  0  0
  -28.6809  -11.9486   21.3367 H   0  0  0  0  0  0
  -28.4955  -13.5967   21.8670 H   0  0  0  0  0  0
  -25.2766   -9.5652   22.4768 H   0  0  0  0  0  0
  -23.9996   -7.4603   22.7453 H   0  0  0  0  0  0
  -21.0838   -8.8748   19.8939 H   0  0  0  0  0  0
  -22.3705  -10.9650   19.6125 H   0  0  0  0  0  0
  -21.1970   -7.6138   23.9729 H   0  0  0  0  0  0
  -21.1498   -6.0519   25.9095 H   0  0  0  0  0  0
  -22.0592   -2.7604   23.2862 H   0  0  0  0  0  0
  -22.4081  -11.9837   22.4810 H   0  0  0  0  0  0
  -21.1132  -13.1220   22.2576 H   0  0  0  0  0  0
  -24.6644  -15.8442   20.5254 H   0  0  0  0  0  0
  -26.2904  -15.6323   20.1186 H   0  0  0  0  0  0
  -26.7087  -32.5544   23.1163 H   0  0  0  0  0  0
  -24.9956  -33.9793   25.0423 H   0  0  0  0  0  0
  -22.6915  -31.3073   21.4085 H   0  0  0  0  0  0
  -23.3739  -35.9661   23.3319 H   0  0  0  0  0  0
  -24.3581  -36.8920   22.2050 H   0  0  0  0  0  0
  -23.7238  -37.6533   23.6651 H   0  0  0  0  0  0
  -26.0408  -31.6067   20.5977 H   0  0  0  0  0  0
  -26.8119  -30.8893   21.9863 H   0  0  0  0  0  0
  -28.0982  -29.1204   21.1763 H   0  0  0  0  0  0
  -26.0804  -25.9664   19.0391 H   0  0  0  0  0  0
  -23.9863  -27.2793   19.0482 H   0  0  0  0  0  0
  -23.7204  -30.5942   19.4047 H   0  0  0  0  0  0
  -22.7364  -29.2387   19.8657 H   0  0  0  0  0  0
  -25.1301  -36.2000   25.0834 H   0  0  0  0  0  0
  -20.9951  -28.3254   24.1443 H   0  0  0  0  0  0
  -20.5650  -26.2281   23.3619 H   0  0  0  0  0  0
  -21.6629  -26.7461   22.1227 H   0  0  0  0  0  0
  -19.6893  -25.6312   21.1242 H   0  0  0  0  0  0
  -19.6696  -27.3213   20.6750 H   0  0  0  0  0  0
  -17.4187  -26.6702   21.4022 H   0  0  0  0  0  0
  -18.0321  -26.0092   22.9028 H   0  0  0  0  0  0
  -19.7924  -30.7276   24.2291 H   0  0  0  0  0  0
  -17.5005  -31.6269   24.5192 H   0  0  0  0  0  0
  -15.5345  -30.3018   23.7640 H   0  0  0  0  0  0
  -15.8658  -28.0865   22.7030 H   0  0  0  0  0  0
  -24.5883  -30.7080   25.7793 H   0  0  0  0  0  0
  -24.8933  -32.2855   26.4952 H   0  0  0  0  0  0
  -25.8064  -30.8837   27.0199 H   0  0  0  0  0  0
  -26.2834  -29.6821   24.1136 H   0  0  0  0  0  0
  -27.4024  -29.7295   25.4574 H   0  0  0  0  0  0
  -27.8686  -30.4369   23.9274 H   0  0  0  0  0  0
  -27.2613  -33.3616   26.2093 H   0  0  0  0  0  0
  -28.3805  -32.6921   25.0305 H   0  0  0  0  0  0
  -28.0697  -31.8441   26.5375 H   0  0  0  0  0  0
  -28.2609  -38.0120   24.7506 H   0  0  0  0  0  0
  -28.1080  -36.2642   24.6300 H   0  0  0  0  0  0
  -27.2297  -37.1491   25.8864 H   0  0  0  0  0  0
  -20.9255  -29.8775   21.6969 H   0  0  0  0  0  0
  -26.0193  -38.2882   24.1401 H   0  0  0  0  0  0
  -30.8298  -21.5504   17.6285 H   0  0  0  0  0  0
  -29.5460  -21.8115   16.4660 H   0  0  0  0  0  0
  -30.3987  -16.7419   19.2027 H   0  0  0  0  0  0
  -28.6631  -16.3223   19.3779 H   0  0  0  0  0  0
  -30.3700  -16.5462   22.7968 H   0  0  0  0  0  0
  -31.5413  -16.8807   21.4725 H   0  0  0  0  0  0
  -30.0392  -24.0021   16.3564 H   0  0  0  0  0  0
  -31.3465  -23.8092   17.5115 H   0  0  0  0  0  0
  -28.2502  -23.5460   19.9549 H   0  0  0  0  0  0
  -27.5124  -23.6341   18.3742 H   0  0  0  0  0  0
  -28.0025  -21.5087   18.0825 H   0  0  0  0  0  0
  -28.5049  -17.4176   21.5302 H   0  0  0  0  0  0
  -31.4954  -22.6297   24.4053 H   0  0  0  0  0  0
  -30.3913  -21.2707   24.2025 H   0  0  0  0  0  0
  -30.0663  -22.7957   23.3811 H   0  0  0  0  0  0
  -32.1700  -22.4702   22.0057 H   0  0  0  0  0  0
  -32.4564  -20.9469   22.8045 H   0  0  0  0  0  0
  -29.5728  -26.0034   17.0738 H   0  0  0  0  0  0
  -27.9759  -25.6743   17.6412 H   0  0  0  0  0  0
  -29.1066  -27.7891   18.5075 H   0  0  0  0  0  0
  -30.2847  -26.8157   19.3365 H   0  0  0  0  0  0
  -30.1385  -24.4784   19.1762 H   0  0  0  0  0  0
  1 25  1  0  0  0
  1 30  2  0  0  0
  1 88  1  0  0  0
  2  3  1  0  0  0
  2 25  1  0  0  0
  2 91  1  0  0  0
  2 92  1  0  0  0
  3  4  1  0  0  0
  3 93  1  0  0  0
  3 94  1  0  0  0
  4  5  1  0  0  0
  4 95  1  0  0  0
  4 96  1  0  0  0
  5  6  1  0  0  0
  5 26  1  0  0  0
  5 97  1  0  0  0
  6 25  1  0  0  0
  6 98  1  0  0  0
  6 99  1  0  0  0
  7  8  2  0  0  0
  7 26  1  0  0  0
  7 29  1  0  0  0
  8  9  1  0  0  0
  8 22  1  0  0  0
  9 10  1  0  0  0
  9 27  2  0  0  0
 10 11  2  0  0  0
 10 15  1  0  0  0
 11 12  1  0  0  0
 11100  1  0  0  0
 12 13  2  0  0  0
 12101  1  0  0  0
 13 14  1  0  0  0
 13 31  1  0  0  0
 14 15  2  0  0  0
 14102  1  0  0  0
 15103  1  0  0  0
 16 17  2  0  0  0
 16 21  1  0  0  0
 16 31  1  0  0  0
 17 18  1  0  0  0
 17104  1  0  0  0
 18 19  2  0  0  0
 18105  1  0  0  0
 19 20  1  0  0  0
 19 24  1  0  0  0
 20 21  2  0  0  0
 20106  1  0  0  0
 21 23  1  0  0  0
 22 28  1  0  0  0
 22 32  2  0  0  0
 26 27  1  0  0  0
 28107  1  0  0  0
 28108  1  0  0  0
 29109  1  0  0  0
 29110  1  0  0  0
 33 34  1  0  0  0
 33 66  1  0  0  0
 33 70  2  0  0  0
 34 36  1  0  0  0
 34 59  1  0  0  0
 34111  1  0  0  0
 35 44  2  0  0  0
 35 45  1  0  0  0
 35 68  1  0  0  0
 36 56  1  0  0  0
 36112  1  0  0  0
 37 39  1  0  0  0
 37 47  1  0  0  0
 37 66  1  0  0  0
 37113  1  0  0  0
 38 43  2  0  0  0
 38 46  1  0  0  0
 38 47  1  0  0  0
 39 64  1  0  0  0
 39 67  2  0  0  0
 40 52  1  0  0  0
 40 53  2  0  0  0
 40 58  1  0  0  0
 41114  1  0  0  0
 41115  1  0  0  0
 41116  1  0  0  0
 41 48  1  0  0  0
 42 43  1  0  0  0
 42 66  1  0  0  0
 42117  1  0  0  0
 42118  1  0  0  0
 43 44  1  0  0  0
 44119  1  0  0  0
 45 46  2  0  0  0
 45120  1  0  0  0
 46121  1  0  0  0
 47122  1  0  0  0
 47123  1  0  0  0
 48 56  1  0  0  0
 48 65  1  0  0  0
 48124  1  0  0  0
 49 50  1  0  0  0
 49 53  1  0  0  0
 49 64  1  0  0  0
 49125  1  0  0  0
 50 51  1  0  0  0
 50126  1  0  0  0
 50127  1  0  0  0
 51 52  1  0  0  0
 51128  1  0  0  0
 51129  1  0  0  0
 52130  1  0  0  0
 52131  1  0  0  0
 53 54  1  0  0  0
 54 55  2  0  0  0
 54132  1  0  0  0
 55 57  1  0  0  0
 55133  1  0  0  0
 56 69  2  0  0  0
 57 58  2  0  0  0
 57134  1  0  0  0
 58135  1  0  0  0
 59 60  1  0  0  0
 59 61  1  0  0  0
 59 62  1  0  0  0
 60136  1  0  0  0
 60137  1  0  0  0
 60138  1  0  0  0
 61139  1  0  0  0
 61140  1  0  0  0
 61141  1  0  0  0
 62142  1  0  0  0
 62143  1  0  0  0
 62144  1  0  0  0
 63 65  1  0  0  0
 63145  1  0  0  0
 63146  1  0  0  0
 63147  1  0  0  0
 64148  1  0  0  0
 65149  1  0  0  0
 68 85  1  0  0  0
 71 72  2  0  0  0
 71 73  1  0  0  0
 71 90  1  0  0  0
 72 86  1  0  0  0
 72 80  1  0  0  0
 73 87  2  0  0  0
 73 81  1  0  0  0
 74 83  1  0  0  0
 74 86  2  0  0  0
 74 87  1  0  0  0
 75 78  1  0  0  0
 75 80  1  0  0  0
 75150  1  0  0  0
 75151  1  0  0  0
 76 81  1  0  0  0
 76 88  1  0  0  0
 76152  1  0  0  0
 76153  1  0  0  0
 77 81  1  0  0  0
 77 88  1  0  0  0
 77154  1  0  0  0
 77155  1  0  0  0
 78 89  1  0  0  0
 78156  1  0  0  0
 78157  1  0  0  0
 79 80  1  0  0  0
 79 89  1  0  0  0
 79158  1  0  0  0
 79159  1  0  0  0
 80160  1  0  0  0
 81161  1  0  0  0
 82 83  1  0  0  0
 82162  1  0  0  0
 82163  1  0  0  0
 82164  1  0  0  0
 83165  1  0  0  0
 83166  1  0  0  0
 84 85  1  0  0  0
 84167  1  0  0  0
 84168  1  0  0  0
 84 89  1  0  0  0
 85169  1  0  0  0
 85170  1  0  0  0
 89171  1  0  0  0
M  CHG  1  89   1
M  ISO  4   1 100  68 101  85 101  88 100
M  END
> <chiral flag>
0

> <version>
0

> <s_m_source_file>
/data/baiqing/PycharmProjects/Reinvent-master-3.2/result/LINK_invent/BTK/process_docking_weight1_custom_sum_contain_oxygen_bond_distance_aromatic_linkinvent_7_9_3/rearranged_h_0197.sdf

> <i_m_source_file_index>
19

> <r_mmod_Potential_Energy-OPLS-2005>
-322.340850830078

> <r_mmod_Stretch_Energy-OPLS-2005>
36.2119331359863

> <r_mmod_Bend_Energy-OPLS-2005>
119.305030822754

> <r_mmod_Torsional_Energy-OPLS-2005>
381.808441162109

> <r_mmod_Improper_Torsional_Energy-OPLS-2005>
13.4679374694824

> <r_mmod_Van_der_Waal_Energy-OPLS-2005>
153.71923828125

> <r_mmod_Electrostatic_Energy-OPLS-2005>
-618.92431640625

> <r_mmod_Solvation_Energy-OPLS-2005>
-420.292785644531

> <b_mmod_Minimization_Converged-OPLS-2005>
0

> <r_mmod_RMS_Derivative-OPLS-2005>
2.50226497650146

$$$$
19
                    3D
 Structure written by MMmdl.
170180  0  0  1  0            999 V2000
  -30.6278  -14.7741   20.4126 C   0  0  0  0  0  0
  -30.4460  -12.4611   19.4884 C   0  0  0  0  0  0
  -29.5238  -12.4383   18.2529 C   0  0  0  0  0  0
  -28.0442  -12.3096   18.6609 C   0  0  0  0  0  0
  -27.6438  -13.2363   19.8396 C   0  0  2  0  0  0
  -28.6919  -13.2098   20.9749 C   0  0  0  0  0  0
  -25.2559  -13.8254   20.5711 C   0  0  0  0  0  0
  -24.1854  -13.0492   20.9256 C   0  0  0  0  0  0
  -24.6461  -11.6980   20.8793 C   0  0  0  0  0  0
  -23.9166  -10.4329   21.0418 C   0  0  0  0  0  0
  -24.3679   -9.4217   21.9202 C   0  0  0  0  0  0
  -23.6328   -8.2259   22.0758 C   0  0  0  0  0  0
  -22.4315   -8.0294   21.3540 C   0  0  0  0  0  0
  -21.9994   -9.0291   20.4628 C   0  0  0  0  0  0
  -22.7355  -10.2164   20.3039 C   0  0  0  0  0  0
  -21.6882   -6.0746   22.5290 C   0  0  0  0  0  0
  -21.4049   -6.5630   23.8237 C   0  0  0  0  0  0
  -21.3684   -5.6758   24.9176 C   0  0  0  0  0  0
  -21.6064   -4.3029   24.7206 C   0  0  0  0  0  0
  -21.8818   -3.8136   23.4316 C   0  0  0  0  0  0
  -21.9208   -4.6974   22.3385 C   0  0  0  0  0  0
  -22.7845  -13.5237   21.1867 C   0  0  0  0  0  0
  -22.1641   -4.2170   21.0955 F   0  0  0  0  0  0
  -21.5626   -3.4497   25.7705 F   0  0  0  0  0  0
  -29.9851  -13.5515   20.3744 N   0  0  0  0  0  0
  -26.2977  -12.9458   20.3257 N   0  0  0  0  0  0
  -25.9370  -11.6608   20.5768 N   0  0  0  0  0  0
  -22.0449  -12.8227   22.0413 N   0  0  0  0  0  0
  -25.4346  -15.1964   20.4113 N   0  0  0  0  0  0
  -31.8515  -14.8111   20.2602 O   0  0  0  0  0  0
  -21.6663   -6.8892   21.4249 O   0  0  0  0  0  0
  -22.3512  -14.5526   20.6676 O   0  0  0  0  0  0
  -24.6253  -31.8652   23.1983 C   0  0  0  0  0  0
  -25.9059  -32.4836   23.8327 C   0  0  1  0  0  0
  -27.2122  -27.2564   20.1589 C   0  0  0  0  0  0
  -25.5878  -33.8630   24.2281 N   0  0  0  0  0  0
  -23.4223  -30.4770   21.5523 C   0  0  2  0  0  0
  -24.8669  -28.9215   20.1204 C   0  0  0  0  0  0
  -22.7506  -29.4580   22.5046 C   0  0  0  0  0  0
  -18.0292  -28.1371   22.8574 C   0  0  0  0  0  0
  -24.1500  -36.7338   23.2634 C   0  0  0  0  0  0
  -25.9632  -30.7758   21.3695 C   0  0  0  0  0  0
  -26.0399  -29.3921   20.7275 C   0  0  0  0  0  0
  -27.2122  -28.5726   20.7348 C   0  0  0  0  0  0
  -26.0207  -26.8589   19.5085 C   0  0  0  0  0  0
  -24.8649  -27.6619   19.4989 C   0  0  0  0  0  0
  -23.6403  -29.8109   20.1691 C   0  0  0  0  0  0
  -25.4125  -36.3147   24.0340 C   0  0  1  0  0  0
  -20.5899  -28.3631   23.1402 C   0  0  2  0  0  0
  -20.6798  -26.9394   22.5453 C   0  0  0  0  0  0
  -19.5743  -26.6394   21.5296 C   0  0  0  0  0  0
  -18.1916  -26.7926   22.1681 C   0  0  0  0  0  0
  -19.1539  -28.8827   23.2970 C   0  0  0  0  0  0
  -18.9446  -30.1450   23.8936 C   0  0  0  0  0  0
  -17.6441  -30.6571   24.0580 C   0  0  0  0  0  0
  -25.9060  -34.9509   23.5148 C   0  0  0  0  0  0
  -16.5339  -29.9072   23.6351 C   0  0  0  0  0  0
  -16.7267  -28.6485   23.0384 C   0  0  0  0  0  0
  -26.4354  -31.6611   25.0680 C   0  0  0  0  0  0
  -25.3525  -31.3779   26.1366 C   0  0  0  0  0  0
  -27.0117  -30.3039   24.6036 C   0  0  0  0  0  0
  -27.5942  -32.4280   25.7452 C   0  0  0  0  0  0
  -27.5618  -37.1856   24.8461 C   0  0  0  0  0  0
  -21.4217  -29.2963   22.3789 N   0  0  0  0  0  0
  -26.4332  -37.3824   23.9412 N   0  0  0  0  0  0
  -24.6926  -31.0571   22.0977 N   0  0  0  0  0  0
  -23.4233  -28.8169   23.3150 O   0  0  0  0  0  0
  -28.3140  -26.3685   20.1980 O   0  0  0  0  0  0
  -26.5650  -34.8960   22.4714 O   0  0  0  0  0  0
  -23.5425  -32.1461   23.7285 O   0  0  0  0  0  0
  -27.9499  -18.4920   20.6785 C   0  0  0  0  0  0
  -29.3423  -18.6836   20.5943 C   0  0  0  0  0  0
  -27.5588  -20.8037   20.7527 C   0  0  0  0  0  0
  -28.9585  -21.1074   20.7134 C   0  0  0  0  0  0
  -30.6476  -17.2895   18.8586 C   0  0  0  0  0  0
  -31.6440  -23.3672   20.4126 C   0  0  0  0  0  0
  -29.5280  -16.2515   18.8465 C   0  0  0  0  0  0
  -30.8711  -22.4924   21.3959 C   0  0  0  0  0  0
  -30.3218  -17.4359   20.3407 C   0  0  2  0  0  0
  -30.6586  -24.5116   20.1895 C   0  0  1  0  0  0
  -29.2638  -23.8063   20.1665 C   0  0  2  0  0  0
  -25.9145  -22.2172   19.4580 C   0  0  0  0  0  0
  -26.4706  -21.8602   20.8433 C   0  0  0  0  0  0
  -28.1081  -24.9024   20.5329 C   0  0  0  0  0  0
  -27.0794  -19.5290   20.7359 N   0  0  0  0  0  0
  -29.8175  -19.9997   20.6136 N   0  0  0  0  0  0
  -29.4833  -22.4678   20.9156 N   0  0  0  0  0  0
  -29.8680  -15.9449   20.2519 N   0  0  0  0  0  0
  -30.7997  -25.5311   21.2618 N   0  3  0  0  0  0
  -31.4779  -12.6002   19.1638 H   0  0  0  0  0  0
  -30.4179  -11.5022   20.0130 H   0  0  0  0  0  0
  -29.8003  -11.6068   17.6017 H   0  0  0  0  0  0
  -29.6686  -13.3347   17.6556 H   0  0  0  0  0  0
  -27.8943  -11.2709   18.9545 H   0  0  0  0  0  0
  -27.4014  -12.4804   17.7982 H   0  0  0  0  0  0
  -27.6235  -14.2506   19.4406 H   0  0  0  0  0  0
  -28.7416  -12.2310   21.4583 H   0  0  0  0  0  0
  -28.4253  -13.9278   21.7489 H   0  0  0  0  0  0
  -25.2810   -9.5677   22.4784 H   0  0  0  0  0  0
  -24.0041   -7.4661   22.7464 H   0  0  0  0  0  0
  -21.0951   -8.8855   19.8891 H   0  0  0  0  0  0
  -22.3885  -10.9706   19.6114 H   0  0  0  0  0  0
  -21.2056   -7.6138   23.9775 H   0  0  0  0  0  0
  -21.1505   -6.0447   25.9097 H   0  0  0  0  0  0
  -22.0583   -2.7600   23.2794 H   0  0  0  0  0  0
  -22.3990  -11.9884   22.4843 H   0  0  0  0  0  0
  -21.1036  -13.1240   22.2514 H   0  0  0  0  0  0
  -24.6921  -15.8696   20.5647 H   0  0  0  0  0  0
  -26.2957  -15.6180   20.0883 H   0  0  0  0  0  0
  -26.7132  -32.5503   23.1098 H   0  0  0  0  0  0
  -24.9950  -33.9746   25.0375 H   0  0  0  0  0  0
  -22.7134  -31.2970   21.4162 H   0  0  0  0  0  0
  -23.3793  -35.9642   23.3263 H   0  0  0  0  0  0
  -24.3635  -36.8963   22.2063 H   0  0  0  0  0  0
  -23.7185  -37.6516   23.6644 H   0  0  0  0  0  0
  -26.0757  -31.5264   20.5861 H   0  0  0  0  0  0
  -26.8535  -30.8531   21.9812 H   0  0  0  0  0  0
  -28.1045  -28.9376   21.2279 H   0  0  0  0  0  0
  -25.9647  -25.9037   19.0053 H   0  0  0  0  0  0
  -23.9655  -27.2989   19.0173 H   0  0  0  0  0  0
  -23.7600  -30.5930   19.4164 H   0  0  0  0  0  0
  -22.7541  -29.2485   19.8727 H   0  0  0  0  0  0
  -25.1313  -36.2050   25.0840 H   0  0  0  0  0  0
  -20.9960  -28.3160   24.1544 H   0  0  0  0  0  0
  -20.5874  -26.2210   23.3607 H   0  0  0  0  0  0
  -21.6644  -26.7549   22.1145 H   0  0  0  0  0  0
  -19.6907  -25.6345   21.1247 H   0  0  0  0  0  0
  -19.6662  -27.3274   20.6900 H   0  0  0  0  0  0
  -17.4248  -26.6794   21.4012 H   0  0  0  0  0  0
  -18.0211  -26.0026   22.9018 H   0  0  0  0  0  0
  -19.7908  -30.7286   24.2297 H   0  0  0  0  0  0
  -17.4972  -31.6247   24.5170 H   0  0  0  0  0  0
  -15.5332  -30.2949   23.7626 H   0  0  0  0  0  0
  -15.8693  -28.0772   22.7087 H   0  0  0  0  0  0
  -24.5704  -30.7129   25.7677 H   0  0  0  0  0  0
  -24.8654  -32.2957   26.4706 H   0  0  0  0  0  0
  -25.7755  -30.9005   27.0214 H   0  0  0  0  0  0
  -26.2645  -29.6906   24.0981 H   0  0  0  0  0  0
  -27.3776  -29.7155   25.4459 H   0  0  0  0  0  0
  -27.8531  -30.4366   23.9227 H   0  0  0  0  0  0
  -27.2593  -33.3602   26.2023 H   0  0  0  0  0  0
  -28.3736  -32.6808   25.0245 H   0  0  0  0  0  0
  -28.0586  -31.8369   26.5364 H   0  0  0  0  0  0
  -28.2645  -38.0157   24.7564 H   0  0  0  0  0  0
  -28.1121  -36.2707   24.6238 H   0  0  0  0  0  0
  -27.2360  -37.1432   25.8866 H   0  0  0  0  0  0
  -20.9433  -29.8605   21.6915 H   0  0  0  0  0  0
  -26.0246  -38.2930   24.1346 H   0  0  0  0  0  0
  -27.5226  -17.4998   20.6499 H   0  0  0  0  0  0
  -30.4689  -18.1738   18.2446 H   0  0  0  0  0  0
  -31.6291  -16.8581   18.6498 H   0  0  0  0  0  0
  -31.8091  -22.8296   19.4779 H   0  0  0  0  0  0
  -32.6203  -23.6885   20.7774 H   0  0  0  0  0  0
  -29.6939  -15.4540   18.1256 H   0  0  0  0  0  0
  -28.5340  -16.6706   18.7094 H   0  0  0  0  0  0
  -30.8837  -22.9416   22.3885 H   0  0  0  0  0  0
  -31.3601  -21.5274   21.5201 H   0  0  0  0  0  0
  -31.2324  -17.5650   20.9266 H   0  0  0  0  0  0
  -30.8564  -25.0056   19.2374 H   0  0  0  0  0  0
  -29.0826  -23.5173   19.1286 H   0  0  0  0  0  0
  -25.1762  -23.0182   19.5170 H   0  0  0  0  0  0
  -25.4241  -21.3553   19.0067 H   0  0  0  0  0  0
  -26.7092  -22.5328   18.7810 H   0  0  0  0  0  0
  -26.8428  -22.7270   21.3827 H   0  0  0  0  0  0
  -25.6421  -21.4820   21.4482 H   0  0  0  0  0  0
  -27.9284  -24.8591   21.6079 H   0  0  0  0  0  0
  -27.1851  -24.5555   20.0840 H   0  0  0  0  0  0
  -30.6413  -25.1403   22.1782 H   0  0  0  0  0  0
  -30.1243  -26.2609   21.1090 H   0  0  0  0  0  0
  -31.7120  -25.9575   21.2412 H   0  0  0  0  0  0
  1 25  1  0  0  0
  1 30  2  0  0  0
  1 88  1  0  0  0
  2  3  1  0  0  0
  2 25  1  0  0  0
  2 90  1  0  0  0
  2 91  1  0  0  0
  3  4  1  0  0  0
  3 92  1  0  0  0
  3 93  1  0  0  0
  4  5  1  0  0  0
  4 94  1  0  0  0
  4 95  1  0  0  0
  5  6  1  0  0  0
  5 26  1  0  0  0
  5 96  1  0  0  0
  6 25  1  0  0  0
  6 97  1  0  0  0
  6 98  1  0  0  0
  7  8  2  0  0  0
  7 26  1  0  0  0
  7 29  1  0  0  0
  8  9  1  0  0  0
  8 22  1  0  0  0
  9 10  1  0  0  0
  9 27  2  0  0  0
 10 11  2  0  0  0
 10 15  1  0  0  0
 11 12  1  0  0  0
 11 99  1  0  0  0
 12 13  2  0  0  0
 12100  1  0  0  0
 13 14  1  0  0  0
 13 31  1  0  0  0
 14 15  2  0  0  0
 14101  1  0  0  0
 15102  1  0  0  0
 16 17  2  0  0  0
 16 21  1  0  0  0
 16 31  1  0  0  0
 17 18  1  0  0  0
 17103  1  0  0  0
 18 19  2  0  0  0
 18104  1  0  0  0
 19 20  1  0  0  0
 19 24  1  0  0  0
 20 21  2  0  0  0
 20105  1  0  0  0
 21 23  1  0  0  0
 22 28  1  0  0  0
 22 32  2  0  0  0
 26 27  1  0  0  0
 28106  1  0  0  0
 28107  1  0  0  0
 29108  1  0  0  0
 29109  1  0  0  0
 33 34  1  0  0  0
 33 66  1  0  0  0
 33 70  2  0  0  0
 34 36  1  0  0  0
 34 59  1  0  0  0
 34110  1  0  0  0
 35 44  2  0  0  0
 35 45  1  0  0  0
 35 68  1  0  0  0
 36 56  1  0  0  0
 36111  1  0  0  0
 37 39  1  0  0  0
 37 47  1  0  0  0
 37 66  1  0  0  0
 37112  1  0  0  0
 38 43  2  0  0  0
 38 46  1  0  0  0
 38 47  1  0  0  0
 39 64  1  0  0  0
 39 67  2  0  0  0
 40 52  1  0  0  0
 40 53  2  0  0  0
 40 58  1  0  0  0
 41113  1  0  0  0
 41114  1  0  0  0
 41115  1  0  0  0
 41 48  1  0  0  0
 42 43  1  0  0  0
 42 66  1  0  0  0
 42116  1  0  0  0
 42117  1  0  0  0
 43 44  1  0  0  0
 44118  1  0  0  0
 45 46  2  0  0  0
 45119  1  0  0  0
 46120  1  0  0  0
 47121  1  0  0  0
 47122  1  0  0  0
 48 56  1  0  0  0
 48 65  1  0  0  0
 48123  1  0  0  0
 49 50  1  0  0  0
 49 53  1  0  0  0
 49 64  1  0  0  0
 49124  1  0  0  0
 50 51  1  0  0  0
 50125  1  0  0  0
 50126  1  0  0  0
 51 52  1  0  0  0
 51127  1  0  0  0
 51128  1  0  0  0
 52129  1  0  0  0
 52130  1  0  0  0
 53 54  1  0  0  0
 54 55  2  0  0  0
 54131  1  0  0  0
 55 57  1  0  0  0
 55132  1  0  0  0
 56 69  2  0  0  0
 57 58  2  0  0  0
 57133  1  0  0  0
 58134  1  0  0  0
 59 60  1  0  0  0
 59 61  1  0  0  0
 59 62  1  0  0  0
 60135  1  0  0  0
 60136  1  0  0  0
 60137  1  0  0  0
 61138  1  0  0  0
 61139  1  0  0  0
 61140  1  0  0  0
 62141  1  0  0  0
 62142  1  0  0  0
 62143  1  0  0  0
 63 65  1  0  0  0
 63144  1  0  0  0
 63145  1  0  0  0
 63146  1  0  0  0
 64147  1  0  0  0
 65148  1  0  0  0
 68 84  1  0  0  0
 71 72  2  0  0  0
 71 85  1  0  0  0
 71149  1  0  0  0
 72 86  1  0  0  0
 72 79  1  0  0  0
 73 74  1  0  0  0
 73 83  1  0  0  0
 73 85  2  0  0  0
 74 86  2  0  0  0
 74 87  1  0  0  0
 75 77  1  0  0  0
 75 79  1  0  0  0
 75150  1  0  0  0
 75151  1  0  0  0
 76 78  1  0  0  0
 76 80  1  0  0  0
 76152  1  0  0  0
 76153  1  0  0  0
 77 88  1  0  0  0
 77154  1  0  0  0
 77155  1  0  0  0
 78 87  1  0  0  0
 78156  1  0  0  0
 78157  1  0  0  0
 79 88  1  0  0  0
 79158  1  0  0  0
 80 81  1  0  0  0
 80 89  1  0  0  0
 80159  1  0  0  0
 81 84  1  0  0  0
 81 87  1  0  0  0
 81160  1  0  0  0
 82 83  1  0  0  0
 82161  1  0  0  0
 82162  1  0  0  0
 82163  1  0  0  0
 83164  1  0  0  0
 83165  1  0  0  0
 84166  1  0  0  0
 84167  1  0  0  0
 89168  1  0  0  0
 89169  1  0  0  0
 89170  1  0  0  0
M  CHG  1  89   1
M  ISO  4   1 100  68 101  84 101  88 100
M  END
> <chiral flag>
0

> <version>
0

> <s_m_source_file>
/data/baiqing/PycharmProjects/Reinvent-master-3.2/result/LINK_invent/BTK/process_docking_weight1_custom_sum_contain_oxygen_bond_distance_aromatic_linkinvent_7_9_3/rearranged_h_0197.sdf

> <i_m_source_file_index>
20

> <r_mmod_Potential_Energy-OPLS-2005>
273.438262939453

> <r_mmod_Stretch_Energy-OPLS-2005>
163.879241943359

> <r_mmod_Bend_Energy-OPLS-2005>
258.068084716797

> <r_mmod_Torsional_Energy-OPLS-2005>
378.481811523438

> <r_mmod_Improper_Torsional_Energy-OPLS-2005>
21.0438575744629

> <r_mmod_Van_der_Waal_Energy-OPLS-2005>
153.180145263672

> <r_mmod_Electrostatic_Energy-OPLS-2005>
-327.423522949219

> <r_mmod_Solvation_Energy-OPLS-2005>
-473.5693359375

> <b_mmod_Minimization_Converged-OPLS-2005>
0

> <r_mmod_RMS_Derivative-OPLS-2005>
6.56619071960449

$$$$
20
                    3D
 Structure written by MMmdl.
155165  0  0  1  0            999 V2000
  -30.6458  -14.6600   20.4102 C   0  0  0  0  0  0
  -30.4285  -12.3895   19.4469 C   0  0  0  0  0  0
  -29.4984  -12.4697   18.2182 C   0  0  0  0  0  0
  -28.0225  -12.3200   18.6414 C   0  0  0  0  0  0
  -27.6401  -13.2093   19.8562 C   0  0  2  0  0  0
  -28.6987  -13.1409   20.9774 C   0  0  0  0  0  0
  -25.2535  -13.8134   20.5742 C   0  0  0  0  0  0
  -24.1797  -13.0408   20.9221 C   0  0  0  0  0  0
  -24.6364  -11.6878   20.8775 C   0  0  0  0  0  0
  -23.9040  -10.4272   21.0425 C   0  0  0  0  0  0
  -24.3599   -9.4191   21.9197 C   0  0  0  0  0  0
  -23.6281   -8.2225   22.0755 C   0  0  0  0  0  0
  -22.4265   -8.0268   21.3545 C   0  0  0  0  0  0
  -21.9899   -9.0240   20.4647 C   0  0  0  0  0  0
  -22.7220  -10.2122   20.3065 C   0  0  0  0  0  0
  -21.6848   -6.0734   22.5282 C   0  0  0  0  0  0
  -21.4010   -6.5641   23.8213 C   0  0  0  0  0  0
  -21.3658   -5.6795   24.9176 C   0  0  0  0  0  0
  -21.6042   -4.3056   24.7230 C   0  0  0  0  0  0
  -21.8818   -3.8150   23.4350 C   0  0  0  0  0  0
  -21.9193   -4.6964   22.3407 C   0  0  0  0  0  0
  -22.7828  -13.5215   21.1875 C   0  0  0  0  0  0
  -22.1665   -4.2150   21.0985 F   0  0  0  0  0  0
  -21.5622   -3.4541   25.7742 F   0  0  0  0  0  0
  -30.0019  -13.4513   20.3750 N   0  0  0  0  0  0
  -26.2940  -12.9283   20.3384 N   0  0  0  0  0  0
  -25.9293  -11.6452   20.5822 N   0  0  0  0  0  0
  -22.0471  -12.8204   22.0426 N   0  0  0  0  0  0
  -25.4267  -15.1857   20.4165 N   0  0  0  0  0  0
  -31.8656  -14.7405   20.2434 O   0  0  0  0  0  0
  -21.6628   -6.8870   21.4241 O   0  0  0  0  0  0
  -22.3523  -14.5530   20.6730 O   0  0  0  0  0  0
  -24.6252  -31.8604   23.2036 C   0  0  0  0  0  0
  -25.9105  -32.4781   23.8359 C   0  0  1  0  0  0
  -27.2272  -27.3321   20.1126 C   0  0  0  0  0  0
  -25.5926  -33.8580   24.2291 N   0  0  0  0  0  0
  -23.4179  -30.4849   21.5459 C   0  0  2  0  0  0
  -24.8641  -28.9408   20.1119 C   0  0  0  0  0  0
  -22.7467  -29.4632   22.4941 C   0  0  0  0  0  0
  -18.0285  -28.1383   22.8486 C   0  0  0  0  0  0
  -24.1489  -36.7295   23.2640 C   0  0  0  0  0  0
  -25.9579  -30.7956   21.3724 C   0  0  0  0  0  0
  -26.0327  -29.4242   20.7136 C   0  0  0  0  0  0
  -27.2168  -28.6316   20.7035 C   0  0  0  0  0  0
  -26.0331  -26.8957   19.4926 C   0  0  0  0  0  0
  -24.8651  -27.6808   19.4945 C   0  0  0  0  0  0
  -23.6318  -29.8201   20.1611 C   0  0  0  0  0  0
  -25.4113  -36.3085   24.0331 C   0  0  1  0  0  0
  -20.5884  -28.3688   23.1286 C   0  0  2  0  0  0
  -20.6777  -26.9412   22.5411 C   0  0  0  0  0  0
  -19.5756  -26.6388   21.5208 C   0  0  0  0  0  0
  -18.1935  -26.7929   22.1621 C   0  0  0  0  0  0
  -19.1536  -28.8850   23.2883 C   0  0  0  0  0  0
  -18.9462  -30.1452   23.8901 C   0  0  0  0  0  0
  -17.6462  -30.6589   24.0562 C   0  0  0  0  0  0
  -25.9047  -34.9452   23.5111 C   0  0  0  0  0  0
  -16.5353  -29.9088   23.6329 C   0  0  0  0  0  0
  -16.7272  -28.6503   23.0353 C   0  0  0  0  0  0
  -26.4498  -31.6585   25.0722 C   0  0  0  0  0  0
  -25.3741  -31.3712   26.1455 C   0  0  0  0  0  0
  -27.0346  -30.3013   24.6167 C   0  0  0  0  0  0
  -27.6060  -32.4320   25.7493 C   0  0  0  0  0  0
  -27.5578  -37.1804   24.8466 C   0  0  0  0  0  0
  -21.4183  -29.3042   22.3678 N   0  0  0  0  0  0
  -26.4293  -37.3777   23.9407 N   0  0  0  0  0  0
  -24.6858  -31.0631   22.0978 N   0  0  0  0  0  0
  -23.4193  -28.8173   23.3020 O   0  0  0  0  0  0
  -28.3565  -26.5010   20.1628 O   0  0  0  0  0  0
  -26.5613  -34.8918   22.4675 O   0  0  0  0  0  0
  -23.5420  -32.1392   23.7380 O   0  0  0  0  0  0
  -28.9692  -20.2389   21.3550 C   0  0  0  0  0  0
  -29.6592  -19.7718   20.2098 C   0  0  0  0  0  0
  -29.0791  -22.4234   20.5516 C   0  0  0  0  0  0
  -29.1791  -17.6505   18.7980 C   0  0  0  0  0  0
  -27.5008  -24.4361   21.1403 C   0  0  0  0  0  0
  -29.5611  -16.1641   18.8406 C   0  0  0  0  0  0
  -30.0240  -17.1062   20.9496 C   0  0  0  0  0  0
  -30.0280  -18.2738   19.8894 C   0  0  2  0  0  0
  -28.9007  -23.9507   20.8212 C   0  0  1  0  0  0
  -28.1848  -25.0446   19.9459 C   0  0  1  0  0  0
  -28.6900  -21.5688   21.5199 N   0  0  0  0  0  0
  -30.0213  -20.7041   19.2776 N   0  0  0  0  0  0
  -29.7437  -22.0202   19.4481 N   0  0  0  0  0  0
  -29.8644  -15.7868   20.2382 N   0  0  0  0  0  0
  -31.4702  -12.5019   19.1408 H   0  0  0  0  0  0
  -30.3560  -11.4120   19.9266 H   0  0  0  0  0  0
  -29.7585  -11.6914   17.4994 H   0  0  0  0  0  0
  -29.6429  -13.4183   17.7000 H   0  0  0  0  0  0
  -27.8644  -11.2709   18.8942 H   0  0  0  0  0  0
  -27.3637  -12.5293   17.7980 H   0  0  0  0  0  0
  -27.6141  -14.2296   19.4930 H   0  0  0  0  0  0
  -28.7171  -12.1527   21.4391 H   0  0  0  0  0  0
  -28.4617  -13.8529   21.7697 H   0  0  0  0  0  0
  -25.2747   -9.5665   22.4769 H   0  0  0  0  0  0
  -23.9993   -7.4615   22.7472 H   0  0  0  0  0  0
  -21.0830   -8.8759   19.8953 H   0  0  0  0  0  0
  -22.3685  -10.9663   19.6172 H   0  0  0  0  0  0
  -21.2002   -7.6149   23.9715 H   0  0  0  0  0  0
  -21.1480   -6.0528   25.9077 H   0  0  0  0  0  0
  -22.0598   -2.7613   23.2853 H   0  0  0  0  0  0
  -22.4086  -11.9855   22.4799 H   0  0  0  0  0  0
  -21.1090  -13.1229   22.2642 H   0  0  0  0  0  0
  -24.6648  -15.8450   20.5315 H   0  0  0  0  0  0
  -26.2913  -15.6248   20.1260 H   0  0  0  0  0  0
  -26.7169  -32.5453   23.1107 H   0  0  0  0  0  0
  -25.0080  -33.9725   25.0439 H   0  0  0  0  0  0
  -22.7117  -31.3054   21.4038 H   0  0  0  0  0  0
  -23.3749  -35.9629   23.3308 H   0  0  0  0  0  0
  -24.3581  -36.8908   22.2054 H   0  0  0  0  0  0
  -23.7245  -37.6500   23.6657 H   0  0  0  0  0  0
  -26.0888  -31.5613   20.6067 H   0  0  0  0  0  0
  -26.8386  -30.8427   22.0014 H   0  0  0  0  0  0
  -28.1143  -28.9992   21.1811 H   0  0  0  0  0  0
  -25.9722  -25.9321   19.0102 H   0  0  0  0  0  0
  -23.9677  -27.3033   19.0242 H   0  0  0  0  0  0
  -23.7512  -30.5966   19.4046 H   0  0  0  0  0  0
  -22.7521  -29.2496   19.8585 H   0  0  0  0  0  0
  -25.1296  -36.1940   25.0824 H   0  0  0  0  0  0
  -20.9977  -28.3264   24.1404 H   0  0  0  0  0  0
  -20.5681  -26.2294   23.3607 H   0  0  0  0  0  0
  -21.6646  -26.7448   22.1204 H   0  0  0  0  0  0
  -19.6922  -25.6302   21.1232 H   0  0  0  0  0  0
  -19.6696  -27.3202   20.6741 H   0  0  0  0  0  0
  -17.4204  -26.6669   21.4026 H   0  0  0  0  0  0
  -18.0340  -26.0068   22.9016 H   0  0  0  0  0  0
  -19.7936  -30.7266   24.2276 H   0  0  0  0  0  0
  -17.5018  -31.6270   24.5162 H   0  0  0  0  0  0
  -15.5354  -30.2994   23.7653 H   0  0  0  0  0  0
  -15.8669  -28.0825   22.7073 H   0  0  0  0  0  0
  -24.5919  -30.7058   25.7784 H   0  0  0  0  0  0
  -24.8929  -32.2872   26.4891 H   0  0  0  0  0  0
  -25.8076  -30.8883   27.0222 H   0  0  0  0  0  0
  -26.2917  -29.6756   24.1207 H   0  0  0  0  0  0
  -27.4069  -29.7275   25.4665 H   0  0  0  0  0  0
  -27.8774  -30.4307   23.9374 H   0  0  0  0  0  0
  -27.2672  -33.3618   26.2076 H   0  0  0  0  0  0
  -28.3869  -32.6884   25.0321 H   0  0  0  0  0  0
  -28.0731  -31.8441   26.5406 H   0  0  0  0  0  0
  -28.2603  -38.0095   24.7507 H   0  0  0  0  0  0
  -28.1070  -36.2626   24.6303 H   0  0  0  0  0  0
  -27.2295  -37.1467   25.8869 H   0  0  0  0  0  0
  -20.9359  -29.8755   21.6881 H   0  0  0  0  0  0
  -26.0177  -38.2854   24.1400 H   0  0  0  0  0  0
  -28.6457  -19.5603   22.1306 H   0  0  0  0  0  0
  -28.1205  -17.7691   19.0352 H   0  0  0  0  0  0
  -29.3527  -18.1009   17.8195 H   0  0  0  0  0  0
  -26.6760  -23.7547   20.9410 H   0  0  0  0  0  0
  -27.3915  -25.0396   22.0385 H   0  0  0  0  0  0
  -30.4507  -16.0138   18.2235 H   0  0  0  0  0  0
  -28.7783  -15.5614   18.3885 H   0  0  0  0  0  0
  -29.1705  -17.2098   21.6199 H   0  0  0  0  0  0
  -30.9227  -17.1302   21.5688 H   0  0  0  0  0  0
  -31.0489  -18.3171   19.5054 H   0  0  0  0  0  0
  -29.7110  -24.2989   21.4573 H   0  0  0  0  0  0
  -27.8792  -24.7657   18.9393 H   0  0  0  0  0  0
  1 25  1  0  0  0
  1 30  2  0  0  0
  1 84  1  0  0  0
  2  3  1  0  0  0
  2 25  1  0  0  0
  2 85  1  0  0  0
  2 86  1  0  0  0
  3  4  1  0  0  0
  3 87  1  0  0  0
  3 88  1  0  0  0
  4  5  1  0  0  0
  4 89  1  0  0  0
  4 90  1  0  0  0
  5  6  1  0  0  0
  5 26  1  0  0  0
  5 91  1  0  0  0
  6 25  1  0  0  0
  6 92  1  0  0  0
  6 93  1  0  0  0
  7  8  2  0  0  0
  7 26  1  0  0  0
  7 29  1  0  0  0
  8  9  1  0  0  0
  8 22  1  0  0  0
  9 10  1  0  0  0
  9 27  2  0  0  0
 10 11  2  0  0  0
 10 15  1  0  0  0
 11 12  1  0  0  0
 11 94  1  0  0  0
 12 13  2  0  0  0
 12 95  1  0  0  0
 13 14  1  0  0  0
 13 31  1  0  0  0
 14 15  2  0  0  0
 14 96  1  0  0  0
 15 97  1  0  0  0
 16 17  2  0  0  0
 16 21  1  0  0  0
 16 31  1  0  0  0
 17 18  1  0  0  0
 17 98  1  0  0  0
 18 19  2  0  0  0
 18 99  1  0  0  0
 19 20  1  0  0  0
 19 24  1  0  0  0
 20 21  2  0  0  0
 20100  1  0  0  0
 21 23  1  0  0  0
 22 28  1  0  0  0
 22 32  2  0  0  0
 26 27  1  0  0  0
 28101  1  0  0  0
 28102  1  0  0  0
 29103  1  0  0  0
 29104  1  0  0  0
 33 34  1  0  0  0
 33 66  1  0  0  0
 33 70  2  0  0  0
 34 36  1  0  0  0
 34 59  1  0  0  0
 34105  1  0  0  0
 35 44  2  0  0  0
 35 45  1  0  0  0
 35 68  1  0  0  0
 36 56  1  0  0  0
 36106  1  0  0  0
 37 39  1  0  0  0
 37 47  1  0  0  0
 37 66  1  0  0  0
 37107  1  0  0  0
 38 43  2  0  0  0
 38 46  1  0  0  0
 38 47  1  0  0  0
 39 64  1  0  0  0
 39 67  2  0  0  0
 40 52  1  0  0  0
 40 53  2  0  0  0
 40 58  1  0  0  0
 41108  1  0  0  0
 41109  1  0  0  0
 41110  1  0  0  0
 41 48  1  0  0  0
 42 43  1  0  0  0
 42 66  1  0  0  0
 42111  1  0  0  0
 42112  1  0  0  0
 43 44  1  0  0  0
 44113  1  0  0  0
 45 46  2  0  0  0
 45114  1  0  0  0
 46115  1  0  0  0
 47116  1  0  0  0
 47117  1  0  0  0
 48 56  1  0  0  0
 48 65  1  0  0  0
 48118  1  0  0  0
 49 50  1  0  0  0
 49 53  1  0  0  0
 49 64  1  0  0  0
 49119  1  0  0  0
 50 51  1  0  0  0
 50120  1  0  0  0
 50121  1  0  0  0
 51 52  1  0  0  0
 51122  1  0  0  0
 51123  1  0  0  0
 52124  1  0  0  0
 52125  1  0  0  0
 53 54  1  0  0  0
 54 55  2  0  0  0
 54126  1  0  0  0
 55 57  1  0  0  0
 55127  1  0  0  0
 56 69  2  0  0  0
 57 58  2  0  0  0
 57128  1  0  0  0
 58129  1  0  0  0
 59 60  1  0  0  0
 59 61  1  0  0  0
 59 62  1  0  0  0
 60130  1  0  0  0
 60131  1  0  0  0
 60132  1  0  0  0
 61133  1  0  0  0
 61134  1  0  0  0
 61135  1  0  0  0
 62136  1  0  0  0
 62137  1  0  0  0
 62138  1  0  0  0
 63 65  1  0  0  0
 63139  1  0  0  0
 63140  1  0  0  0
 63141  1  0  0  0
 64142  1  0  0  0
 65143  1  0  0  0
 68 80  1  0  0  0
 71 72  2  0  0  0
 71 81  1  0  0  0
 71144  1  0  0  0
 72 82  1  0  0  0
 72 78  1  0  0  0
 73 81  2  0  0  0
 73 83  1  0  0  0
 73 79  1  0  0  0
 74 76  1  0  0  0
 74 78  1  0  0  0
 74145  1  0  0  0
 74146  1  0  0  0
 75 79  1  0  0  0
 75 80  1  0  0  0
 75147  1  0  0  0
 75148  1  0  0  0
 76 84  1  0  0  0
 76149  1  0  0  0
 76150  1  0  0  0
 77 78  1  0  0  0
 77 84  1  0  0  0
 77151  1  0  0  0
 77152  1  0  0  0
 78153  1  0  0  0
 79 80  1  0  0  0
 79154  1  0  0  0
 80155  1  0  0  0
 82 83  2  0  0  0
M  ISO  4   1 100  68 101  80 101  84 100
M  END
> <chiral flag>
0

> <version>
0

> <s_m_source_file>
/data/baiqing/PycharmProjects/Reinvent-master-3.2/result/LINK_invent/BTK/process_docking_weight1_custom_sum_contain_oxygen_bond_distance_aromatic_linkinvent_7_9_3/rearranged_h_0197.sdf

> <i_m_source_file_index>
21

> <r_mmod_Potential_Energy-OPLS-2005>
290.532501220703

> <r_mmod_Stretch_Energy-OPLS-2005>
81.8355407714844

> <r_mmod_Bend_Energy-OPLS-2005>
179.829071044922

> <r_mmod_Torsional_Energy-OPLS-2005>
331.60107421875

> <r_mmod_Improper_Torsional_Energy-OPLS-2005>
15.1964416503906

> <r_mmod_Van_der_Waal_Energy-OPLS-2005>
142.406097412109

> <r_mmod_Electrostatic_Energy-OPLS-2005>
-289.336334228516

> <r_mmod_Solvation_Energy-OPLS-2005>
-228.612014770508

> <b_mmod_Minimization_Converged-OPLS-2005>
0

> <r_mmod_RMS_Derivative-OPLS-2005>
0.66466224193573

$$$$
21
                    3D
 Structure written by MMmdl.
175185  0  0  1  0            999 V2000
  -30.7108  -14.3259   20.6444 C   0  0  0  0  0  0
  -30.4279  -12.2584   19.3622 C   0  0  0  0  0  0
  -29.4746  -12.5208   18.1732 C   0  0  0  0  0  0
  -27.9908  -12.3955   18.5870 C   0  0  0  0  0  0
  -27.6589  -13.1686   19.8865 C   0  0  2  0  0  0
  -28.7062  -12.8572   20.9794 C   0  0  0  0  0  0
  -25.2579  -13.8077   20.5662 C   0  0  0  0  0  0
  -24.1768  -13.0429   20.9203 C   0  0  0  0  0  0
  -24.6273  -11.6877   20.8809 C   0  0  0  0  0  0
  -23.8961  -10.4242   21.0454 C   0  0  0  0  0  0
  -24.3528   -9.4177   21.9217 C   0  0  0  0  0  0
  -23.6218   -8.2218   22.0768 C   0  0  0  0  0  0
  -22.4236   -8.0246   21.3533 C   0  0  0  0  0  0
  -21.9847   -9.0229   20.4659 C   0  0  0  0  0  0
  -22.7167  -10.2111   20.3074 C   0  0  0  0  0  0
  -21.6839   -6.0719   22.5274 C   0  0  0  0  0  0
  -21.3985   -6.5620   23.8211 C   0  0  0  0  0  0
  -21.3625   -5.6761   24.9172 C   0  0  0  0  0  0
  -21.6028   -4.3031   24.7203 C   0  0  0  0  0  0
  -21.8836   -3.8135   23.4329 C   0  0  0  0  0  0
  -21.9185   -4.6947   22.3393 C   0  0  0  0  0  0
  -22.7810  -13.5294   21.1824 C   0  0  0  0  0  0
  -22.1673   -4.2135   21.0967 F   0  0  0  0  0  0
  -21.5626   -3.4524   25.7727 F   0  0  0  0  0  0
  -30.0410  -13.1723   20.4404 N   0  0  0  0  0  0
  -26.2987  -12.9146   20.3431 N   0  0  0  0  0  0
  -25.9184  -11.6368   20.5829 N   0  0  0  0  0  0
  -22.0405  -12.8305   22.0367 N   0  0  0  0  0  0
  -25.4310  -15.1765   20.4013 N   0  0  0  0  0  0
  -31.8472  -14.5479   20.2108 O   0  0  0  0  0  0
  -21.6606   -6.8861   21.4246 O   0  0  0  0  0  0
  -22.3539  -14.5601   20.6660 O   0  0  0  0  0  0
  -24.6161  -31.8723   23.2157 C   0  0  0  0  0  0
  -25.9021  -32.4889   23.8478 C   0  0  1  0  0  0
  -27.2267  -27.4513   20.0799 C   0  0  0  0  0  0
  -25.5873  -33.8678   24.2404 N   0  0  0  0  0  0
  -23.4005  -30.5072   21.5520 C   0  0  2  0  0  0
  -24.8460  -28.9777   20.1159 C   0  0  0  0  0  0
  -22.7362  -29.4738   22.4992 C   0  0  0  0  0  0
  -18.0307  -28.1378   22.8545 C   0  0  0  0  0  0
  -24.1507  -36.7376   23.2629 C   0  0  0  0  0  0
  -25.9309  -30.8408   21.3688 C   0  0  0  0  0  0
  -26.0044  -29.4720   20.7309 C   0  0  0  0  0  0
  -27.1885  -28.7058   20.7271 C   0  0  0  0  0  0
  -26.0599  -27.0150   19.4035 C   0  0  0  0  0  0
  -24.8670  -27.7490   19.4480 C   0  0  0  0  0  0
  -23.6132  -29.8457   20.1669 C   0  0  0  0  0  0
  -25.4114  -36.3139   24.0345 C   0  0  1  0  0  0
  -20.5888  -28.3701   23.1343 C   0  0  2  0  0  0
  -20.6754  -26.9391   22.5584 C   0  0  0  0  0  0
  -19.5755  -26.6142   21.5410 C   0  0  0  0  0  0
  -18.1953  -26.7815   22.1910 C   0  0  0  0  0  0
  -19.1558  -28.8898   23.2870 C   0  0  0  0  0  0
  -18.9471  -30.1578   23.8798 C   0  0  0  0  0  0
  -17.6483  -30.6709   24.0475 C   0  0  0  0  0  0
  -25.9062  -34.9496   23.5164 C   0  0  0  0  0  0
  -16.5409  -29.9138   23.6311 C   0  0  0  0  0  0
  -16.7284  -28.6476   23.0457 C   0  0  0  0  0  0
  -26.4494  -31.6604   25.0715 C   0  0  0  0  0  0
  -25.3812  -31.3638   26.1497 C   0  0  0  0  0  0
  -27.0272  -30.3061   24.5969 C   0  0  0  0  0  0
  -27.6121  -32.4282   25.7453 C   0  0  0  0  0  0
  -27.5594  -37.1861   24.8455 C   0  0  0  0  0  0
  -21.4084  -29.3047   22.3646 N   0  0  0  0  0  0
  -26.4292  -37.3834   23.9406 N   0  0  0  0  0  0
  -24.6668  -31.0825   22.1072 N   0  0  0  0  0  0
  -23.4154  -28.8277   23.2978 O   0  0  0  0  0  0
  -28.3994  -26.7210   20.0856 O   0  0  0  0  0  0
  -26.5588  -34.8903   22.4709 O   0  0  0  0  0  0
  -23.5328  -32.1456   23.7519 O   0  0  0  0  0  0
  -27.3335  -24.5119   20.1740 C   0  0  0  0  0  0
  -27.2516  -23.2284   19.6138 C   0  0  0  0  0  0
  -28.3716  -22.7662   18.8834 C   0  0  0  0  0  0
  -28.3977  -25.3622   19.8212 C   0  0  0  0  0  0
  -29.4763  -23.6420   18.7253 C   0  0  0  0  0  0
  -29.7080  -18.5818   16.5974 C   0  0  0  0  0  0
  -28.3573  -18.6046   17.2981 C   0  0  0  0  0  0
  -30.3881  -17.6927   21.4723 C   0  0  0  0  0  0
  -30.4163  -16.2867   22.1209 C   0  0  0  0  0  0
  -29.3901  -16.1527   20.0361 C   0  0  0  0  0  0
  -30.5822  -17.8781   17.6243 C   0  0  0  0  0  0
  -30.3699  -17.3142   19.9956 C   0  0  1  0  0  0
  -28.7158  -18.8378   18.7892 C   0  0  2  0  0  0
  -25.6360  -22.1817   21.2707 C   0  0  0  0  0  0
  -25.9437  -22.4671   19.7930 C   0  0  0  0  0  0
  -28.3828  -21.3777   18.2589 C   0  0  0  0  0  0
  -28.6477  -20.2926   19.3051 C   0  0  0  0  0  0
  -29.4733  -24.9242   19.1427 N   0  0  0  0  0  0
  -29.9355  -15.3280   21.1029 N   0  0  0  0  0  0
  -30.1043  -18.3324   18.9555 N   0  3  2  0  0  0
  -30.9241  -23.1108   17.9499 Cl  0  0  0  0  0  0
  -31.4645  -12.4059   19.0472 H   0  0  0  0  0  0
  -30.3658  -11.2197   19.6997 H   0  0  0  0  0  0
  -29.6933  -11.8255   17.3651 H   0  0  0  0  0  0
  -29.6586  -13.5216   17.7716 H   0  0  0  0  0  0
  -27.7608  -11.3376   18.7136 H   0  0  0  0  0  0
  -27.3516  -12.7580   17.7779 H   0  0  0  0  0  0
  -27.7033  -14.2248   19.6457 H   0  0  0  0  0  0
  -28.6733  -11.7982   21.2309 H   0  0  0  0  0  0
  -28.4946  -13.3815   21.9109 H   0  0  0  0  0  0
  -25.2722   -9.5645   22.4753 H   0  0  0  0  0  0
  -23.9962   -7.4574   22.7459 H   0  0  0  0  0  0
  -21.0797   -8.8733   19.8929 H   0  0  0  0  0  0
  -22.3678  -10.9632   19.6124 H   0  0  0  0  0  0
  -21.1987   -7.6125   23.9723 H   0  0  0  0  0  0
  -21.1423   -6.0479   25.9057 H   0  0  0  0  0  0
  -22.0653   -2.7604   23.2836 H   0  0  0  0  0  0
  -22.4006  -11.9987   22.4784 H   0  0  0  0  0  0
  -21.0975  -13.1311   22.2516 H   0  0  0  0  0  0
  -24.6727  -15.8438   20.5116 H   0  0  0  0  0  0
  -26.2866  -15.6030   20.0805 H   0  0  0  0  0  0
  -26.7002  -32.5638   23.1182 H   0  0  0  0  0  0
  -24.9954  -33.9815   25.0506 H   0  0  0  0  0  0
  -22.6905  -31.3232   21.4093 H   0  0  0  0  0  0
  -23.3758  -35.9745   23.3318 H   0  0  0  0  0  0
  -24.3641  -36.8953   22.2039 H   0  0  0  0  0  0
  -23.7228  -37.6588   23.6628 H   0  0  0  0  0  0
  -26.0208  -31.5945   20.5821 H   0  0  0  0  0  0
  -26.8299  -30.9317   21.9677 H   0  0  0  0  0  0
  -28.0769  -29.0703   21.2192 H   0  0  0  0  0  0
  -26.0458  -26.1041   18.8287 H   0  0  0  0  0  0
  -23.9942  -27.3810   18.9272 H   0  0  0  0  0  0
  -23.7268  -30.6197   19.4079 H   0  0  0  0  0  0
  -22.7483  -29.2604   19.8588 H   0  0  0  0  0  0
  -25.1290  -36.2048   25.0851 H   0  0  0  0  0  0
  -20.9933  -28.3358   24.1452 H   0  0  0  0  0  0
  -20.5622  -26.2428   23.3937 H   0  0  0  0  0  0
  -21.6582  -26.7274   22.1377 H   0  0  0  0  0  0
  -19.6959  -25.5961   21.1656 H   0  0  0  0  0  0
  -19.6642  -27.2826   20.6853 H   0  0  0  0  0  0
  -17.4029  -26.6245   21.4548 H   0  0  0  0  0  0
  -18.0605  -26.0211   22.9591 H   0  0  0  0  0  0
  -19.7930  -30.7471   24.2141 H   0  0  0  0  0  0
  -17.5002  -31.6383   24.5093 H   0  0  0  0  0  0
  -15.5389  -30.2994   23.7711 H   0  0  0  0  0  0
  -15.8657  -28.0718   22.7382 H   0  0  0  0  0  0
  -24.6019  -30.6930   25.7869 H   0  0  0  0  0  0
  -24.8895  -32.2705   26.5004 H   0  0  0  0  0  0
  -25.8221  -30.8764   27.0210 H   0  0  0  0  0  0
  -26.2714  -29.6849   24.1081 H   0  0  0  0  0  0
  -27.4159  -29.7260   25.4355 H   0  0  0  0  0  0
  -27.8595  -30.4464   23.9074 H   0  0  0  0  0  0
  -27.2835  -33.3598   26.2152 H   0  0  0  0  0  0
  -28.3907  -32.6806   25.0225 H   0  0  0  0  0  0
  -28.0873  -31.8254   26.5223 H   0  0  0  0  0  0
  -28.2617  -38.0159   24.7514 H   0  0  0  0  0  0
  -28.1041  -36.2660   24.6260 H   0  0  0  0  0  0
  -27.2312  -37.1550   25.8860 H   0  0  0  0  0  0
  -20.9201  -29.8668   21.6823 H   0  0  0  0  0  0
  -26.0196  -38.2933   24.1383 H   0  0  0  0  0  0
  -26.5005  -24.8846   20.7493 H   0  0  0  0  0  0
  -30.0815  -19.5905   16.4110 H   0  0  0  0  0  0
  -29.6695  -18.0536   15.6434 H   0  0  0  0  0  0
  -27.8946  -17.6204   17.1938 H   0  0  0  0  0  0
  -27.6481  -19.2943   16.8470 H   0  0  0  0  0  0
  -31.2401  -18.3006   21.7819 H   0  0  0  0  0  0
  -29.4760  -18.2162   21.7635 H   0  0  0  0  0  0
  -29.7818  -16.2494   23.0031 H   0  0  0  0  0  0
  -31.4232  -16.0212   22.4488 H   0  0  0  0  0  0
  -28.3928  -16.4444   20.3653 H   0  0  0  0  0  0
  -29.2893  -15.6629   19.0673 H   0  0  0  0  0  0
  -31.6487  -18.0546   17.4890 H   0  0  0  0  0  0
  -30.4234  -16.8027   17.5144 H   0  0  0  0  0  0
  -31.3799  -16.9602   19.7730 H   0  0  0  0  0  0
  -28.0023  -18.2708   19.3821 H   0  0  0  0  0  0
  -25.4730  -23.1019   21.8255 H   0  0  0  0  0  0
  -26.4656  -21.6641   21.7508 H   0  0  0  0  0  0
  -24.7445  -21.5646   21.3790 H   0  0  0  0  0  0
  -25.9081  -21.5428   19.2200 H   0  0  0  0  0  0
  -25.1434  -23.0827   19.3762 H   0  0  0  0  0  0
  -29.1324  -21.3211   17.4733 H   0  0  0  0  0  0
  -27.4384  -21.2183   17.7460 H   0  0  0  0  0  0
  -29.5808  -20.5544   19.8065 H   0  0  0  0  0  0
  -27.8997  -20.3480   20.0925 H   0  0  0  0  0  0
  -30.6749  -19.1262   19.1944 H   0  0  0  0  0  0
  1 25  1  0  0  0
  1 30  2  0  0  0
  1 89  1  0  0  0
  2  3  1  0  0  0
  2 25  1  0  0  0
  2 92  1  0  0  0
  2 93  1  0  0  0
  3  4  1  0  0  0
  3 94  1  0  0  0
  3 95  1  0  0  0
  4  5  1  0  0  0
  4 96  1  0  0  0
  4 97  1  0  0  0
  5  6  1  0  0  0
  5 26  1  0  0  0
  5 98  1  0  0  0
  6 25  1  0  0  0
  6 99  1  0  0  0
  6100  1  0  0  0
  7  8  2  0  0  0
  7 26  1  0  0  0
  7 29  1  0  0  0
  8  9  1  0  0  0
  8 22  1  0  0  0
  9 10  1  0  0  0
  9 27  2  0  0  0
 10 11  2  0  0  0
 10 15  1  0  0  0
 11 12  1  0  0  0
 11101  1  0  0  0
 12 13  2  0  0  0
 12102  1  0  0  0
 13 14  1  0  0  0
 13 31  1  0  0  0
 14 15  2  0  0  0
 14103  1  0  0  0
 15104  1  0  0  0
 16 17  2  0  0  0
 16 21  1  0  0  0
 16 31  1  0  0  0
 17 18  1  0  0  0
 17105  1  0  0  0
 18 19  2  0  0  0
 18106  1  0  0  0
 19 20  1  0  0  0
 19 24  1  0  0  0
 20 21  2  0  0  0
 20107  1  0  0  0
 21 23  1  0  0  0
 22 28  1  0  0  0
 22 32  2  0  0  0
 26 27  1  0  0  0
 28108  1  0  0  0
 28109  1  0  0  0
 29110  1  0  0  0
 29111  1  0  0  0
 33 34  1  0  0  0
 33 66  1  0  0  0
 33 70  2  0  0  0
 34 36  1  0  0  0
 34 59  1  0  0  0
 34112  1  0  0  0
 35 44  2  0  0  0
 35 45  1  0  0  0
 35 68  1  0  0  0
 36 56  1  0  0  0
 36113  1  0  0  0
 37 39  1  0  0  0
 37 47  1  0  0  0
 37 66  1  0  0  0
 37114  1  0  0  0
 38 43  2  0  0  0
 38 46  1  0  0  0
 38 47  1  0  0  0
 39 64  1  0  0  0
 39 67  2  0  0  0
 40 52  1  0  0  0
 40 53  2  0  0  0
 40 58  1  0  0  0
 41115  1  0  0  0
 41116  1  0  0  0
 41117  1  0  0  0
 41 48  1  0  0  0
 42 43  1  0  0  0
 42 66  1  0  0  0
 42118  1  0  0  0
 42119  1  0  0  0
 43 44  1  0  0  0
 44120  1  0  0  0
 45 46  2  0  0  0
 45121  1  0  0  0
 46122  1  0  0  0
 47123  1  0  0  0
 47124  1  0  0  0
 48 56  1  0  0  0
 48 65  1  0  0  0
 48125  1  0  0  0
 49 50  1  0  0  0
 49 53  1  0  0  0
 49 64  1  0  0  0
 49126  1  0  0  0
 50 51  1  0  0  0
 50127  1  0  0  0
 50128  1  0  0  0
 51 52  1  0  0  0
 51129  1  0  0  0
 51130  1  0  0  0
 52131  1  0  0  0
 52132  1  0  0  0
 53 54  1  0  0  0
 54 55  2  0  0  0
 54133  1  0  0  0
 55 57  1  0  0  0
 55134  1  0  0  0
 56 69  2  0  0  0
 57 58  2  0  0  0
 57135  1  0  0  0
 58136  1  0  0  0
 59 60  1  0  0  0
 59 61  1  0  0  0
 59 62  1  0  0  0
 60137  1  0  0  0
 60138  1  0  0  0
 60139  1  0  0  0
 61140  1  0  0  0
 61141  1  0  0  0
 61142  1  0  0  0
 62143  1  0  0  0
 62144  1  0  0  0
 62145  1  0  0  0
 63 65  1  0  0  0
 63146  1  0  0  0
 63147  1  0  0  0
 63148  1  0  0  0
 64149  1  0  0  0
 65150  1  0  0  0
 68 74  1  0  0  0
 71 72  2  0  0  0
 71 74  1  0  0  0
 71151  1  0  0  0
 72 73  1  0  0  0
 72 85  1  0  0  0
 73 75  2  0  0  0
 73 86  1  0  0  0
 74 88  2  0  0  0
 75 88  1  0  0  0
 75 91  1  0  0  0
 76 77  1  0  0  0
 76 81  1  0  0  0
 76152  1  0  0  0
 76153  1  0  0  0
 77 83  1  0  0  0
 77154  1  0  0  0
 77155  1  0  0  0
 78 79  1  0  0  0
 78156  1  0  0  0
 78157  1  0  0  0
 78 82  1  0  0  0
 79 89  1  0  0  0
 79158  1  0  0  0
 79159  1  0  0  0
 80 82  1  0  0  0
 80 89  1  0  0  0
 80160  1  0  0  0
 80161  1  0  0  0
 81162  1  0  0  0
 81163  1  0  0  0
 81 90  1  0  0  0
 82 90  1  0  0  0
 82164  1  0  0  0
 83 87  1  0  0  0
 83 90  1  0  0  0
 83165  1  0  0  0
 84 85  1  0  0  0
 84166  1  0  0  0
 84167  1  0  0  0
 84168  1  0  0  0
 85169  1  0  0  0
 85170  1  0  0  0
 86 87  1  0  0  0
 86171  1  0  0  0
 86172  1  0  0  0
 87173  1  0  0  0
 87174  1  0  0  0
 90175  1  0  0  0
M  CHG  1  90   1
M  ISO  4   1 100  68 101  74 101  89 100
M  END
> <chiral flag>
0

> <version>
0

> <s_m_source_file>
/data/baiqing/PycharmProjects/Reinvent-master-3.2/result/LINK_invent/BTK/process_docking_weight1_custom_sum_contain_oxygen_bond_distance_aromatic_linkinvent_7_9_3/rearranged_h_0197.sdf

> <i_m_source_file_index>
22

> <r_mmod_Potential_Energy-OPLS-2005>
115.568382263184

> <r_mmod_Stretch_Energy-OPLS-2005>
35.1310386657715

> <r_mmod_Bend_Energy-OPLS-2005>
192.944854736328

> <r_mmod_Torsional_Energy-OPLS-2005>
416.904266357422

> <r_mmod_Improper_Torsional_Energy-OPLS-2005>
12.7337160110474

> <r_mmod_Van_der_Waal_Energy-OPLS-2005>
188.085144042969

> <r_mmod_Electrostatic_Energy-OPLS-2005>
-322.468994140625

> <r_mmod_Solvation_Energy-OPLS-2005>
-423.874542236328

> <b_mmod_Minimization_Converged-OPLS-2005>
0

> <r_mmod_RMS_Derivative-OPLS-2005>
10.2589025497437

$$$$
22
                    3D
 Structure written by MMmdl.
169179  0  0  1  0            999 V2000
  -30.7214  -14.4814   20.5677 C   0  0  0  0  0  0
  -30.4128  -12.3126   19.4171 C   0  0  0  0  0  0
  -29.4870  -12.4888   18.1966 C   0  0  0  0  0  0
  -28.0121  -12.3180   18.6146 C   0  0  0  0  0  0
  -27.6492  -13.1729   19.8533 C   0  0  2  0  0  0
  -28.6972  -13.0073   20.9825 C   0  0  0  0  0  0
  -25.2564  -13.8063   20.5588 C   0  0  0  0  0  0
  -24.1792  -13.0409   20.9150 C   0  0  0  0  0  0
  -24.6311  -11.6872   20.8739 C   0  0  0  0  0  0
  -23.8982  -10.4291   21.0413 C   0  0  0  0  0  0
  -24.3577   -9.4220   21.9176 C   0  0  0  0  0  0
  -23.6284   -8.2247   22.0760 C   0  0  0  0  0  0
  -22.4256   -8.0277   21.3568 C   0  0  0  0  0  0
  -21.9881   -9.0234   20.4667 C   0  0  0  0  0  0
  -22.7177  -10.2113   20.3069 C   0  0  0  0  0  0
  -21.6858   -6.0729   22.5272 C   0  0  0  0  0  0
  -21.4014   -6.5623   23.8207 C   0  0  0  0  0  0
  -21.3649   -5.6766   24.9157 C   0  0  0  0  0  0
  -21.6040   -4.3034   24.7209 C   0  0  0  0  0  0
  -21.8830   -3.8143   23.4326 C   0  0  0  0  0  0
  -21.9189   -4.6960   22.3389 C   0  0  0  0  0  0
  -22.7843  -13.5288   21.1794 C   0  0  0  0  0  0
  -22.1675   -4.2153   21.0974 F   0  0  0  0  0  0
  -21.5634   -3.4532   25.7732 F   0  0  0  0  0  0
  -30.0212  -13.3150   20.4222 N   0  0  0  0  0  0
  -26.2939  -12.9159   20.3254 N   0  0  0  0  0  0
  -25.9214  -11.6364   20.5727 N   0  0  0  0  0  0
  -22.0428  -12.8351   22.0346 N   0  0  0  0  0  0
  -25.4275  -15.1781   20.3924 N   0  0  0  0  0  0
  -31.8607  -14.6106   20.1121 O   0  0  0  0  0  0
  -21.6643   -6.8865   21.4243 O   0  0  0  0  0  0
  -22.3596  -14.5598   20.6597 O   0  0  0  0  0  0
  -24.6144  -31.8705   23.2128 C   0  0  0  0  0  0
  -25.9049  -32.4832   23.8405 C   0  0  1  0  0  0
  -27.2077  -27.4179   20.0861 C   0  0  0  0  0  0
  -25.5894  -33.8630   24.2300 N   0  0  0  0  0  0
  -23.3983  -30.4998   21.5569 C   0  0  2  0  0  0
  -24.8392  -28.9747   20.1105 C   0  0  0  0  0  0
  -22.7397  -29.4681   22.5001 C   0  0  0  0  0  0
  -18.0264  -28.1380   22.8511 C   0  0  0  0  0  0
  -24.1485  -36.7337   23.2630 C   0  0  0  0  0  0
  -25.9341  -30.8273   21.3757 C   0  0  0  0  0  0
  -26.0059  -29.4673   20.7101 C   0  0  0  0  0  0
  -27.1960  -28.6974   20.6922 C   0  0  0  0  0  0
  -26.0244  -26.9613   19.4580 C   0  0  0  0  0  0
  -24.8451  -27.7218   19.4808 C   0  0  0  0  0  0
  -23.6044  -29.8439   20.1682 C   0  0  0  0  0  0
  -25.4108  -36.3110   24.0311 C   0  0  1  0  0  0
  -20.5859  -28.3671   23.1341 C   0  0  2  0  0  0
  -20.6763  -26.9403   22.5441 C   0  0  0  0  0  0
  -19.5732  -26.6380   21.5244 C   0  0  0  0  0  0
  -18.1903  -26.7934   22.1639 C   0  0  0  0  0  0
  -19.1515  -28.8843   23.2927 C   0  0  0  0  0  0
  -18.9431  -30.1448   23.8933 C   0  0  0  0  0  0
  -17.6436  -30.6602   24.0567 C   0  0  0  0  0  0
  -25.9037  -34.9472   23.5105 C   0  0  0  0  0  0
  -16.5329  -29.9105   23.6323 C   0  0  0  0  0  0
  -16.7254  -28.6514   23.0364 C   0  0  0  0  0  0
  -26.4452  -31.6638   25.0764 C   0  0  0  0  0  0
  -25.3671  -31.3845   26.1503 C   0  0  0  0  0  0
  -27.0247  -30.3022   24.6236 C   0  0  0  0  0  0
  -27.5994  -32.4399   25.7534 C   0  0  0  0  0  0
  -27.5580  -37.1811   24.8437 C   0  0  0  0  0  0
  -21.4120  -29.3047   22.3754 N   0  0  0  0  0  0
  -26.4291  -37.3795   23.9403 N   0  0  0  0  0  0
  -24.6670  -31.0796   22.1055 N   0  0  0  0  0  0
  -23.4183  -28.8205   23.3018 O   0  0  0  0  0  0
  -28.3440  -26.6307   20.1068 O   0  0  0  0  0  0
  -26.5602  -34.8920   22.4663 O   0  0  0  0  0  0
  -23.5338  -32.1499   23.7501 O   0  0  0  0  0  0
  -30.6289  -24.8283   20.6314 C   0  0  0  0  0  0
  -30.1860  -22.1708   20.2133 C   0  0  0  0  0  0
  -31.4999  -22.6918   20.3925 C   0  0  0  0  0  0
  -29.3272  -24.3304   20.4070 C   0  0  0  0  0  0
  -29.9627  -20.6842   20.0092 C   0  0  0  0  0  0
  -33.9623  -22.2542   19.5487 C   0  0  0  0  0  0
  -33.1281  -21.0903   19.0970 C   0  0  0  0  0  0
  -28.7407  -17.6853   20.6458 C   0  0  0  0  0  0
  -30.4831  -17.7917   22.3656 C   0  0  0  0  0  0
  -28.9398  -16.1577   20.5379 C   0  0  0  0  0  0
  -30.9143  -16.3228   22.1626 C   0  0  0  0  0  0
  -32.7467  -21.8415   20.3571 C   0  0  0  0  0  0
  -29.9979  -18.4395   21.0607 C   0  0  0  0  0  0
  -29.3310  -20.4998   22.3830 C   0  0  0  0  0  0
  -28.1021  -25.2383   20.4247 C   0  0  0  0  0  0
  -31.7119  -24.0139   20.6222 N   0  0  0  0  0  0
  -29.1064  -23.0015   20.2001 N   0  0  0  0  0  0
  -30.1095  -15.5230   21.2054 N   0  0  0  0  0  0
  -29.7819  -19.9102   21.1143 N   0  0  0  0  0  0
  -30.0488  -20.2144   18.8686 O   0  0  0  0  0  0
  -31.4569  -12.3998   19.1175 H   0  0  0  0  0  0
  -30.3163  -11.3058   19.8311 H   0  0  0  0  0  0
  -29.7476  -11.7655   17.4205 H   0  0  0  0  0  0
  -29.6322  -13.4734   17.7545 H   0  0  0  0  0  0
  -27.8375  -11.2634   18.8250 H   0  0  0  0  0  0
  -27.3574  -12.5675   17.7787 H   0  0  0  0  0  0
  -27.6559  -14.1875   19.4777 H   0  0  0  0  0  0
  -28.6865  -11.9834   21.3641 H   0  0  0  0  0  0
  -28.4597  -13.6339   21.8419 H   0  0  0  0  0  0
  -25.2706   -9.5767   22.4735 H   0  0  0  0  0  0
  -24.0012   -7.4666   22.7485 H   0  0  0  0  0  0
  -21.0815   -8.8758   19.8985 H   0  0  0  0  0  0
  -22.3621  -10.9663   19.6219 H   0  0  0  0  0  0
  -21.2023   -7.6130   23.9717 H   0  0  0  0  0  0
  -21.1457   -6.0482   25.9049 H   0  0  0  0  0  0
  -22.0622   -2.7617   23.2797 H   0  0  0  0  0  0
  -22.4014  -12.0058   22.4832 H   0  0  0  0  0  0
  -21.1071  -13.1503   22.2540 H   0  0  0  0  0  0
  -24.6636  -15.8358   20.4889 H   0  0  0  0  0  0
  -26.2703  -15.6022   20.0301 H   0  0  0  0  0  0
  -26.7117  -32.5508   23.1155 H   0  0  0  0  0  0
  -24.9960  -33.9813   25.0388 H   0  0  0  0  0  0
  -22.6849  -31.3177   21.4269 H   0  0  0  0  0  0
  -23.3733  -35.9682   23.3292 H   0  0  0  0  0  0
  -24.3578  -36.8978   22.2046 H   0  0  0  0  0  0
  -23.7258  -37.6542   23.6672 H   0  0  0  0  0  0
  -26.0622  -31.6015   20.6178 H   0  0  0  0  0  0
  -26.8165  -30.8602   22.0047 H   0  0  0  0  0  0
  -28.0970  -29.0703   21.1610 H   0  0  0  0  0  0
  -25.9844  -26.0254   18.9225 H   0  0  0  0  0  0
  -23.9530  -27.3457   19.0001 H   0  0  0  0  0  0
  -23.7070  -30.6262   19.4151 H   0  0  0  0  0  0
  -22.7257  -29.2673   19.8734 H   0  0  0  0  0  0
  -25.1281  -36.1946   25.0801 H   0  0  0  0  0  0
  -20.9945  -28.3232   24.1466 H   0  0  0  0  0  0
  -20.5705  -26.2252   23.3624 H   0  0  0  0  0  0
  -21.6626  -26.7474   22.1205 H   0  0  0  0  0  0
  -19.6882  -25.6285   21.1285 H   0  0  0  0  0  0
  -19.6680  -27.3191   20.6774 H   0  0  0  0  0  0
  -17.4183  -26.6722   21.4026 H   0  0  0  0  0  0
  -18.0261  -26.0067   22.9015 H   0  0  0  0  0  0
  -19.7910  -30.7253   24.2318 H   0  0  0  0  0  0
  -17.5001  -31.6294   24.5148 H   0  0  0  0  0  0
  -15.5334  -30.3025   23.7625 H   0  0  0  0  0  0
  -15.8655  -28.0849   22.7066 H   0  0  0  0  0  0
  -24.5752  -30.7310   25.7856 H   0  0  0  0  0  0
  -24.8981  -32.3061   26.4961 H   0  0  0  0  0  0
  -25.7955  -30.8975   27.0271 H   0  0  0  0  0  0
  -26.2839  -29.6866   24.1128 H   0  0  0  0  0  0
  -27.3739  -29.7207   25.4789 H   0  0  0  0  0  0
  -27.8812  -30.4272   23.9602 H   0  0  0  0  0  0
  -27.2531  -33.3631   26.2214 H   0  0  0  0  0  0
  -28.3738  -32.7116   25.0343 H   0  0  0  0  0  0
  -28.0759  -31.8503   26.5382 H   0  0  0  0  0  0
  -28.2569  -38.0134   24.7478 H   0  0  0  0  0  0
  -28.1091  -36.2645   24.6234 H   0  0  0  0  0  0
  -27.2304  -37.1452   25.8845 H   0  0  0  0  0  0
  -20.9240  -29.8776   21.7016 H   0  0  0  0  0  0
  -26.0156  -38.2864   24.1426 H   0  0  0  0  0  0
  -30.7995  -25.8807   20.8107 H   0  0  0  0  0  0
  -33.9028  -23.1666   18.9562 H   0  0  0  0  0  0
  -34.9460  -22.0220   19.9533 H   0  0  0  0  0  0
  -33.5557  -20.0971   19.2151 H   0  0  0  0  0  0
  -32.5196  -21.2351   18.2045 H   0  0  0  0  0  0
  -27.9408  -17.8957   21.3567 H   0  0  0  0  0  0
  -28.3739  -18.0629   19.6900 H   0  0  0  0  0  0
  -31.3232  -18.3499   22.7792 H   0  0  0  0  0  0
  -29.6940  -17.8115   23.1159 H   0  0  0  0  0  0
  -28.9684  -15.9228   19.4709 H   0  0  0  0  0  0
  -28.0409  -15.7053   20.9505 H   0  0  0  0  0  0
  -30.8908  -15.8095   23.1245 H   0  0  0  0  0  0
  -31.9656  -16.3308   21.8715 H   0  0  0  0  0  0
  -32.9129  -21.3326   21.3069 H   0  0  0  0  0  0
  -30.7766  -18.2420   20.3211 H   0  0  0  0  0  0
  -30.1639  -20.9729   22.9042 H   0  0  0  0  0  0
  -28.8650  -19.7757   23.0483 H   0  0  0  0  0  0
  -28.5605  -21.2555   22.2148 H   0  0  0  0  0  0
  -27.6415  -25.1707   21.4129 H   0  0  0  0  0  0
  -27.4044  -24.7778   19.7288 H   0  0  0  0  0  0
  1 25  1  0  0  0
  1 30  2  0  0  0
  1 88  1  0  0  0
  2  3  1  0  0  0
  2 25  1  0  0  0
  2 91  1  0  0  0
  2 92  1  0  0  0
  3  4  1  0  0  0
  3 93  1  0  0  0
  3 94  1  0  0  0
  4  5  1  0  0  0
  4 95  1  0  0  0
  4 96  1  0  0  0
  5  6  1  0  0  0
  5 26  1  0  0  0
  5 97  1  0  0  0
  6 25  1  0  0  0
  6 98  1  0  0  0
  6 99  1  0  0  0
  7  8  2  0  0  0
  7 26  1  0  0  0
  7 29  1  0  0  0
  8  9  1  0  0  0
  8 22  1  0  0  0
  9 10  1  0  0  0
  9 27  2  0  0  0
 10 11  2  0  0  0
 10 15  1  0  0  0
 11 12  1  0  0  0
 11100  1  0  0  0
 12 13  2  0  0  0
 12101  1  0  0  0
 13 14  1  0  0  0
 13 31  1  0  0  0
 14 15  2  0  0  0
 14102  1  0  0  0
 15103  1  0  0  0
 16 17  2  0  0  0
 16 21  1  0  0  0
 16 31  1  0  0  0
 17 18  1  0  0  0
 17104  1  0  0  0
 18 19  2  0  0  0
 18105  1  0  0  0
 19 20  1  0  0  0
 19 24  1  0  0  0
 20 21  2  0  0  0
 20106  1  0  0  0
 21 23  1  0  0  0
 22 28  1  0  0  0
 22 32  2  0  0  0
 26 27  1  0  0  0
 28107  1  0  0  0
 28108  1  0  0  0
 29109  1  0  0  0
 29110  1  0  0  0
 33 34  1  0  0  0
 33 66  1  0  0  0
 33 70  2  0  0  0
 34 36  1  0  0  0
 34 59  1  0  0  0
 34111  1  0  0  0
 35 44  2  0  0  0
 35 45  1  0  0  0
 35 68  1  0  0  0
 36 56  1  0  0  0
 36112  1  0  0  0
 37 39  1  0  0  0
 37 47  1  0  0  0
 37 66  1  0  0  0
 37113  1  0  0  0
 38 43  2  0  0  0
 38 46  1  0  0  0
 38 47  1  0  0  0
 39 64  1  0  0  0
 39 67  2  0  0  0
 40 52  1  0  0  0
 40 53  2  0  0  0
 40 58  1  0  0  0
 41114  1  0  0  0
 41115  1  0  0  0
 41116  1  0  0  0
 41 48  1  0  0  0
 42 43  1  0  0  0
 42 66  1  0  0  0
 42117  1  0  0  0
 42118  1  0  0  0
 43 44  1  0  0  0
 44119  1  0  0  0
 45 46  2  0  0  0
 45120  1  0  0  0
 46121  1  0  0  0
 47122  1  0  0  0
 47123  1  0  0  0
 48 56  1  0  0  0
 48 65  1  0  0  0
 48124  1  0  0  0
 49 50  1  0  0  0
 49 53  1  0  0  0
 49 64  1  0  0  0
 49125  1  0  0  0
 50 51  1  0  0  0
 50126  1  0  0  0
 50127  1  0  0  0
 51 52  1  0  0  0
 51128  1  0  0  0
 51129  1  0  0  0
 52130  1  0  0  0
 52131  1  0  0  0
 53 54  1  0  0  0
 54 55  2  0  0  0
 54132  1  0  0  0
 55 57  1  0  0  0
 55133  1  0  0  0
 56 69  2  0  0  0
 57 58  2  0  0  0
 57134  1  0  0  0
 58135  1  0  0  0
 59 60  1  0  0  0
 59 61  1  0  0  0
 59 62  1  0  0  0
 60136  1  0  0  0
 60137  1  0  0  0
 60138  1  0  0  0
 61139  1  0  0  0
 61140  1  0  0  0
 61141  1  0  0  0
 62142  1  0  0  0
 62143  1  0  0  0
 62144  1  0  0  0
 63 65  1  0  0  0
 63145  1  0  0  0
 63146  1  0  0  0
 63147  1  0  0  0
 64148  1  0  0  0
 65149  1  0  0  0
 68 85  1  0  0  0
 71 74  2  0  0  0
 71 86  1  0  0  0
 71150  1  0  0  0
 72 73  1  0  0  0
 72 75  1  0  0  0
 72 87  2  0  0  0
 73 86  2  0  0  0
 73 82  1  0  0  0
 74 85  1  0  0  0
 74 87  1  0  0  0
 75 89  1  0  0  0
 75 90  2  0  0  0
 76 77  1  0  0  0
 76 82  1  0  0  0
 76151  1  0  0  0
 76152  1  0  0  0
 77 82  1  0  0  0
 77153  1  0  0  0
 77154  1  0  0  0
 78 80  1  0  0  0
 78 83  1  0  0  0
 78155  1  0  0  0
 78156  1  0  0  0
 79 81  1  0  0  0
 79 83  1  0  0  0
 79157  1  0  0  0
 79158  1  0  0  0
 80 88  1  0  0  0
 80159  1  0  0  0
 80160  1  0  0  0
 81 88  1  0  0  0
 81161  1  0  0  0
 81162  1  0  0  0
 82163  1  0  0  0
 83 89  1  0  0  0
 83164  1  0  0  0
 84 89  1  0  0  0
 84165  1  0  0  0
 84166  1  0  0  0
 84167  1  0  0  0
 85168  1  0  0  0
 85169  1  0  0  0
M  ISO  4   1 100  68 101  85 101  88 100
M  END
> <chiral flag>
0

> <version>
0

> <s_m_source_file>
/data/baiqing/PycharmProjects/Reinvent-master-3.2/result/LINK_invent/BTK/process_docking_weight1_custom_sum_contain_oxygen_bond_distance_aromatic_linkinvent_7_9_3/rearranged_h_0197.sdf

> <i_m_source_file_index>
23

> <r_mmod_Potential_Energy-OPLS-2005>
490.137786865234

> <r_mmod_Stretch_Energy-OPLS-2005>
50.1633033752441

> <r_mmod_Bend_Energy-OPLS-2005>
117.327239990234

> <r_mmod_Torsional_Energy-OPLS-2005>
439.733337402344

> <r_mmod_Improper_Torsional_Energy-OPLS-2005>
4.31444358825684

> <r_mmod_Van_der_Waal_Energy-OPLS-2005>
179.470397949219

> <r_mmod_Electrostatic_Energy-OPLS-2005>
-102.152908325195

> <r_mmod_Solvation_Energy-OPLS-2005>
-217.738204956055

> <b_mmod_Minimization_Converged-OPLS-2005>
0

> <r_mmod_RMS_Derivative-OPLS-2005>
4.67302656173706

$$$$
23
                    3D
 Structure written by MMmdl.
172183  0  0  1  0            999 V2000
  -30.7248  -14.4217   20.5833 C   0  0  0  0  0  0
  -30.4159  -12.2804   19.4123 C   0  0  0  0  0  0
  -29.4887  -12.5086   18.2017 C   0  0  0  0  0  0
  -28.0105  -12.3621   18.6130 C   0  0  0  0  0  0
  -27.6594  -13.1917   19.8762 C   0  0  2  0  0  0
  -28.7035  -12.9720   20.9957 C   0  0  0  0  0  0
  -25.2611  -13.8123   20.5705 C   0  0  0  0  0  0
  -24.1842  -13.0422   20.9174 C   0  0  0  0  0  0
  -24.6364  -11.6882   20.8728 C   0  0  0  0  0  0
  -23.9019  -10.4287   21.0410 C   0  0  0  0  0  0
  -24.3579   -9.4208   21.9189 C   0  0  0  0  0  0
  -23.6264   -8.2242   22.0757 C   0  0  0  0  0  0
  -22.4251   -8.0275   21.3545 C   0  0  0  0  0  0
  -21.9886   -9.0236   20.4641 C   0  0  0  0  0  0
  -22.7204  -10.2123   20.3051 C   0  0  0  0  0  0
  -21.6842   -6.0735   22.5274 C   0  0  0  0  0  0
  -21.4005   -6.5636   23.8211 C   0  0  0  0  0  0
  -21.3657   -5.6779   24.9168 C   0  0  0  0  0  0
  -21.6045   -4.3048   24.7215 C   0  0  0  0  0  0
  -21.8824   -3.8142   23.4335 C   0  0  0  0  0  0
  -21.9197   -4.6962   22.3394 C   0  0  0  0  0  0
  -22.7880  -13.5250   21.1840 C   0  0  0  0  0  0
  -22.1674   -4.2150   21.0968 F   0  0  0  0  0  0
  -21.5623   -3.4533   25.7732 F   0  0  0  0  0  0
  -30.0390  -13.2580   20.4420 N   0  0  0  0  0  0
  -26.3015  -12.9244   20.3387 N   0  0  0  0  0  0
  -25.9282  -11.6421   20.5761 N   0  0  0  0  0  0
  -22.0514  -12.8227   22.0379 N   0  0  0  0  0  0
  -25.4391  -15.1837   20.4151 N   0  0  0  0  0  0
  -31.8702  -14.5907   20.1541 O   0  0  0  0  0  0
  -21.6618   -6.8871   21.4229 O   0  0  0  0  0  0
  -22.3587  -14.5580   20.6735 O   0  0  0  0  0  0
  -24.6142  -31.8708   23.2131 C   0  0  0  0  0  0
  -25.9054  -32.4830   23.8420 C   0  0  1  0  0  0
  -27.2279  -27.4559   20.0951 C   0  0  0  0  0  0
  -25.5936  -33.8627   24.2359 N   0  0  0  0  0  0
  -23.3997  -30.4958   21.5535 C   0  0  2  0  0  0
  -24.8446  -28.9662   20.1159 C   0  0  0  0  0  0
  -22.7396  -29.4695   22.5011 C   0  0  0  0  0  0
  -18.0267  -28.1394   22.8514 C   0  0  0  0  0  0
  -24.1476  -36.7280   23.2640 C   0  0  0  0  0  0
  -25.9271  -30.8439   21.3635 C   0  0  0  0  0  0
  -26.0051  -29.4823   20.7068 C   0  0  0  0  0  0
  -27.2037  -28.7352   20.6903 C   0  0  0  0  0  0
  -26.0543  -26.9522   19.4946 C   0  0  0  0  0  0
  -24.8630  -27.6993   19.5071 C   0  0  0  0  0  0
  -23.6049  -29.8287   20.1683 C   0  0  0  0  0  0
  -25.4106  -36.3105   24.0351 C   0  0  1  0  0  0
  -20.5855  -28.3686   23.1326 C   0  0  2  0  0  0
  -20.6756  -26.9422   22.5427 C   0  0  0  0  0  0
  -19.5733  -26.6395   21.5231 C   0  0  0  0  0  0
  -18.1896  -26.7959   22.1617 C   0  0  0  0  0  0
  -19.1517  -28.8856   23.2917 C   0  0  0  0  0  0
  -18.9441  -30.1463   23.8920 C   0  0  0  0  0  0
  -17.6447  -30.6608   24.0573 C   0  0  0  0  0  0
  -25.9052  -34.9475   23.5140 C   0  0  0  0  0  0
  -16.5341  -29.9105   23.6352 C   0  0  0  0  0  0
  -16.7257  -28.6521   23.0378 C   0  0  0  0  0  0
  -26.4483  -31.6603   25.0734 C   0  0  0  0  0  0
  -25.3745  -31.3656   26.1470 C   0  0  0  0  0  0
  -27.0362  -30.3063   24.6120 C   0  0  0  0  0  0
  -27.6055  -32.4330   25.7501 C   0  0  0  0  0  0
  -27.5591  -37.1777   24.8464 C   0  0  0  0  0  0
  -21.4130  -29.3053   22.3740 N   0  0  0  0  0  0
  -26.4278  -37.3806   23.9449 N   0  0  0  0  0  0
  -24.6650  -31.0843   22.1016 N   0  0  0  0  0  0
  -23.4175  -28.8246   23.3063 O   0  0  0  0  0  0
  -28.3740  -26.6970   20.1279 O   0  0  0  0  0  0
  -26.5590  -34.8923   22.4688 O   0  0  0  0  0  0
  -23.5341  -32.1450   23.7545 O   0  0  0  0  0  0
  -29.6522  -19.0841   18.6599 C   0  0  0  0  0  0
  -30.0855  -18.8102   19.9646 C   0  0  0  0  0  0
  -30.2609  -19.9219   20.8146 C   0  0  0  0  0  0
  -29.6215  -21.3150   19.1007 C   0  0  0  0  0  0
  -31.5708  -20.8872   22.8973 C   0  0  0  0  0  0
  -32.1492  -19.5378   22.5698 C   0  0  0  0  0  0
  -30.7255  -23.3971   17.9526 C   0  0  0  0  0  0
  -30.5789  -16.6839   21.6728 C   0  0  0  0  0  0
  -29.2610  -16.3157   20.1429 C   0  0  0  0  0  0
  -30.3050  -24.6292   18.7400 C   0  0  0  0  0  0
  -30.3632  -17.3535   20.3129 C   0  0  0  0  0  0
  -30.6997  -19.8286   22.2473 C   0  0  0  0  0  0
  -29.4923  -22.7242   18.5489 C   0  0  2  0  0  0
  -29.3608  -25.5351   22.0133 C   0  0  0  0  0  0
  -28.2089  -24.2307   20.0734 C   0  0  0  0  0  0
  -28.2652  -25.5135   20.9373 C   0  0  2  0  0  0
  -29.4286  -20.3347   18.2322 N   0  0  0  0  0  0
  -30.0259  -21.1753   20.3628 N   0  0  0  0  0  0
  -30.0092  -15.4566   21.0741 N   0  0  0  0  0  0
  -29.5267  -23.7368   19.6012 N   0  3  2  0  0  0
  -31.4621  -12.3690   19.1127 H   0  0  0  0  0  0
  -30.2987  -11.2660   19.7961 H   0  0  0  0  0  0
  -29.7268  -11.8060   17.4020 H   0  0  0  0  0  0
  -29.6578  -13.5055   17.7922 H   0  0  0  0  0  0
  -27.8193  -11.3040   18.7967 H   0  0  0  0  0  0
  -27.3611  -12.6508   17.7855 H   0  0  0  0  0  0
  -27.6926  -14.2355   19.5777 H   0  0  0  0  0  0
  -28.6689  -11.9415   21.3517 H   0  0  0  0  0  0
  -28.4736  -13.5912   21.8649 H   0  0  0  0  0  0
  -25.2720   -9.5692   22.4762 H   0  0  0  0  0  0
  -23.9974   -7.4637   22.7484 H   0  0  0  0  0  0
  -21.0821   -8.8742   19.8943 H   0  0  0  0  0  0
  -22.3658  -10.9654   19.6154 H   0  0  0  0  0  0
  -21.1993   -7.6143   23.9709 H   0  0  0  0  0  0
  -21.1479   -6.0515   25.9068 H   0  0  0  0  0  0
  -22.0606   -2.7609   23.2830 H   0  0  0  0  0  0
  -22.4129  -11.9861   22.4712 H   0  0  0  0  0  0
  -21.1144  -13.1276   22.2601 H   0  0  0  0  0  0
  -24.6858  -15.8499   20.5452 H   0  0  0  0  0  0
  -26.3099  -15.6186   20.1391 H   0  0  0  0  0  0
  -26.7133  -32.5559   23.1197 H   0  0  0  0  0  0
  -25.0173  -33.9804   25.0558 H   0  0  0  0  0  0
  -22.6887  -31.3126   21.4159 H   0  0  0  0  0  0
  -23.3794  -35.9553   23.3235 H   0  0  0  0  0  0
  -24.3577  -36.8968   22.2070 H   0  0  0  0  0  0
  -23.7143  -37.6424   23.6700 H   0  0  0  0  0  0
  -26.0401  -31.6136   20.5992 H   0  0  0  0  0  0
  -26.8138  -30.8917   21.9834 H   0  0  0  0  0  0
  -28.0997  -29.1264   21.1514 H   0  0  0  0  0  0
  -26.0472  -25.9819   19.0226 H   0  0  0  0  0  0
  -23.9696  -27.2945   19.0518 H   0  0  0  0  0  0
  -23.7088  -30.6023   19.4073 H   0  0  0  0  0  0
  -22.7286  -29.2469   19.8765 H   0  0  0  0  0  0
  -25.1264  -36.1964   25.0843 H   0  0  0  0  0  0
  -20.9950  -28.3251   24.1449 H   0  0  0  0  0  0
  -20.5690  -26.2292   23.3616 H   0  0  0  0  0  0
  -21.6619  -26.7475   22.1206 H   0  0  0  0  0  0
  -19.6883  -25.6305   21.1264 H   0  0  0  0  0  0
  -19.6677  -27.3211   20.6762 H   0  0  0  0  0  0
  -17.4186  -26.6786   21.3977 H   0  0  0  0  0  0
  -18.0224  -26.0075   22.8970 H   0  0  0  0  0  0
  -19.7908  -30.7289   24.2295 H   0  0  0  0  0  0
  -17.4990  -31.6293   24.5171 H   0  0  0  0  0  0
  -15.5342  -30.3013   23.7666 H   0  0  0  0  0  0
  -15.8655  -28.0846   22.7098 H   0  0  0  0  0  0
  -24.5982  -30.6943   25.7776 H   0  0  0  0  0  0
  -24.8856  -32.2778   26.4898 H   0  0  0  0  0  0
  -25.8107  -30.8847   27.0236 H   0  0  0  0  0  0
  -26.2923  -29.6770   24.1227 H   0  0  0  0  0  0
  -27.4202  -29.7355   25.4586 H   0  0  0  0  0  0
  -27.8707  -30.4410   23.9234 H   0  0  0  0  0  0
  -27.2691  -33.3644   26.2070 H   0  0  0  0  0  0
  -28.3865  -32.6878   25.0320 H   0  0  0  0  0  0
  -28.0729  -31.8462   26.5419 H   0  0  0  0  0  0
  -28.2548  -38.0138   24.7641 H   0  0  0  0  0  0
  -28.1154  -36.2678   24.6138 H   0  0  0  0  0  0
  -27.2325  -37.1244   25.8865 H   0  0  0  0  0  0
  -20.9298  -29.8757   21.6941 H   0  0  0  0  0  0
  -26.0161  -38.2862   24.1546 H   0  0  0  0  0  0
  -29.5002  -18.2911   17.9416 H   0  0  0  0  0  0
  -31.8868  -21.7356   22.2931 H   0  0  0  0  0  0
  -31.3958  -21.1038   23.9497 H   0  0  0  0  0  0
  -32.3564  -18.8669   23.4003 H   0  0  0  0  0  0
  -32.8484  -19.4839   21.7369 H   0  0  0  0  0  0
  -31.6619  -22.9581   18.3028 H   0  0  0  0  0  0
  -30.7056  -23.5054   16.8681 H   0  0  0  0  0  0
  -29.9627  -17.0747   22.4844 H   0  0  0  0  0  0
  -31.6263  -16.6199   21.9741 H   0  0  0  0  0  0
  -29.1715  -15.9518   19.1166 H   0  0  0  0  0  0
  -28.2923  -16.6328   20.5317 H   0  0  0  0  0  0
  -29.6843  -25.3143   18.1594 H   0  0  0  0  0  0
  -31.1181  -25.1479   19.2495 H   0  0  0  0  0  0
  -31.2089  -17.0941   19.6698 H   0  0  0  0  0  0
  -29.9277  -19.3794   22.8688 H   0  0  0  0  0  0
  -28.6204  -22.8288   17.8995 H   0  0  0  0  0  0
  -29.2963  -24.6618   22.6627 H   0  0  0  0  0  0
  -29.2501  -26.4183   22.6432 H   0  0  0  0  0  0
  -30.3602  -25.5695   21.5818 H   0  0  0  0  0  0
  -27.5394  -24.3774   19.2275 H   0  0  0  0  0  0
  -27.7656  -23.4302   20.6671 H   0  0  0  0  0  0
  -27.3220  -25.5391   21.4892 H   0  0  0  0  0  0
  -30.0680  -23.2929   20.3351 H   0  0  0  0  0  0
  1 25  1  0  0  0
  1 30  2  0  0  0
  1 89  1  0  0  0
  2  3  1  0  0  0
  2 25  1  0  0  0
  2 91  1  0  0  0
  2 92  1  0  0  0
  3  4  1  0  0  0
  3 93  1  0  0  0
  3 94  1  0  0  0
  4  5  1  0  0  0
  4 95  1  0  0  0
  4 96  1  0  0  0
  5  6  1  0  0  0
  5 26  1  0  0  0
  5 97  1  0  0  0
  6 25  1  0  0  0
  6 98  1  0  0  0
  6 99  1  0  0  0
  7  8  2  0  0  0
  7 26  1  0  0  0
  7 29  1  0  0  0
  8  9  1  0  0  0
  8 22  1  0  0  0
  9 10  1  0  0  0
  9 27  2  0  0  0
 10 11  2  0  0  0
 10 15  1  0  0  0
 11 12  1  0  0  0
 11100  1  0  0  0
 12 13  2  0  0  0
 12101  1  0  0  0
 13 14  1  0  0  0
 13 31  1  0  0  0
 14 15  2  0  0  0
 14102  1  0  0  0
 15103  1  0  0  0
 16 17  2  0  0  0
 16 21  1  0  0  0
 16 31  1  0  0  0
 17 18  1  0  0  0
 17104  1  0  0  0
 18 19  2  0  0  0
 18105  1  0  0  0
 19 20  1  0  0  0
 19 24  1  0  0  0
 20 21  2  0  0  0
 20106  1  0  0  0
 21 23  1  0  0  0
 22 28  1  0  0  0
 22 32  2  0  0  0
 26 27  1  0  0  0
 28107  1  0  0  0
 28108  1  0  0  0
 29109  1  0  0  0
 29110  1  0  0  0
 33 34  1  0  0  0
 33 66  1  0  0  0
 33 70  2  0  0  0
 34 36  1  0  0  0
 34 59  1  0  0  0
 34111  1  0  0  0
 35 44  2  0  0  0
 35 45  1  0  0  0
 35 68  1  0  0  0
 36 56  1  0  0  0
 36112  1  0  0  0
 37 39  1  0  0  0
 37 47  1  0  0  0
 37 66  1  0  0  0
 37113  1  0  0  0
 38 43  2  0  0  0
 38 46  1  0  0  0
 38 47  1  0  0  0
 39 64  1  0  0  0
 39 67  2  0  0  0
 40 52  1  0  0  0
 40 53  2  0  0  0
 40 58  1  0  0  0
 41114  1  0  0  0
 41115  1  0  0  0
 41116  1  0  0  0
 41 48  1  0  0  0
 42 43  1  0  0  0
 42 66  1  0  0  0
 42117  1  0  0  0
 42118  1  0  0  0
 43 44  1  0  0  0
 44119  1  0  0  0
 45 46  2  0  0  0
 45120  1  0  0  0
 46121  1  0  0  0
 47122  1  0  0  0
 47123  1  0  0  0
 48 56  1  0  0  0
 48 65  1  0  0  0
 48124  1  0  0  0
 49 50  1  0  0  0
 49 53  1  0  0  0
 49 64  1  0  0  0
 49125  1  0  0  0
 50 51  1  0  0  0
 50126  1  0  0  0
 50127  1  0  0  0
 51 52  1  0  0  0
 51128  1  0  0  0
 51129  1  0  0  0
 52130  1  0  0  0
 52131  1  0  0  0
 53 54  1  0  0  0
 54 55  2  0  0  0
 54132  1  0  0  0
 55 57  1  0  0  0
 55133  1  0  0  0
 56 69  2  0  0  0
 57 58  2  0  0  0
 57134  1  0  0  0
 58135  1  0  0  0
 59 60  1  0  0  0
 59 61  1  0  0  0
 59 62  1  0  0  0
 60136  1  0  0  0
 60137  1  0  0  0
 60138  1  0  0  0
 61139  1  0  0  0
 61140  1  0  0  0
 61141  1  0  0  0
 62142  1  0  0  0
 62143  1  0  0  0
 62144  1  0  0  0
 63 65  1  0  0  0
 63145  1  0  0  0
 63146  1  0  0  0
 63147  1  0  0  0
 64148  1  0  0  0
 65149  1  0  0  0
 68 86  1  0  0  0
 71 72  2  0  0  0
 71 87  1  0  0  0
 71150  1  0  0  0
 72 73  1  0  0  0
 72 81  1  0  0  0
 73 88  2  0  0  0
 73 82  1  0  0  0
 74 87  2  0  0  0
 74 88  1  0  0  0
 74 83  1  0  0  0
 75 76  1  0  0  0
 75 82  1  0  0  0
 75151  1  0  0  0
 75152  1  0  0  0
 76 82  1  0  0  0
 76153  1  0  0  0
 76154  1  0  0  0
 77 80  1  0  0  0
 77 83  1  0  0  0
 77155  1  0  0  0
 77156  1  0  0  0
 78 81  1  0  0  0
 78 89  1  0  0  0
 78157  1  0  0  0
 78158  1  0  0  0
 79 81  1  0  0  0
 79 89  1  0  0  0
 79159  1  0  0  0
 79160  1  0  0  0
 80 90  1  0  0  0
 80161  1  0  0  0
 80162  1  0  0  0
 81163  1  0  0  0
 82164  1  0  0  0
 83 90  1  0  0  0
 83165  1  0  0  0
 84166  1  0  0  0
 84167  1  0  0  0
 84168  1  0  0  0
 84 86  1  0  0  0
 85 86  1  0  0  0
 85169  1  0  0  0
 85170  1  0  0  0
 85 90  1  0  0  0
 86171  1  0  0  0
 90172  1  0  0  0
M  CHG  1  90   1
M  ISO  4   1 100  68 101  86 101  89 100
M  END
> <chiral flag>
0

> <version>
0

> <s_m_source_file>
/data/baiqing/PycharmProjects/Reinvent-master-3.2/result/LINK_invent/BTK/process_docking_weight1_custom_sum_contain_oxygen_bond_distance_aromatic_linkinvent_7_9_3/rearranged_h_0197.sdf

> <i_m_source_file_index>
24

> <r_mmod_Potential_Energy-OPLS-2005>
-540.463562011719

> <r_mmod_Stretch_Energy-OPLS-2005>
34.5476226806641

> <r_mmod_Bend_Energy-OPLS-2005>
131.15739440918

> <r_mmod_Torsional_Energy-OPLS-2005>
332.216613769531

> <r_mmod_Improper_Torsional_Energy-OPLS-2005>
11.2614507675171

> <r_mmod_Van_der_Waal_Energy-OPLS-2005>
162.007675170898

> <r_mmod_Electrostatic_Energy-OPLS-2005>
-810.830139160156

> <r_mmod_Solvation_Energy-OPLS-2005>
-413.079193115234

> <b_mmod_Minimization_Converged-OPLS-2005>
0

> <r_mmod_RMS_Derivative-OPLS-2005>
1.87839007377625

$$$$
24
                    3D
 Structure written by MMmdl.
149158  0  0  1  0            999 V2000
  -30.5942  -14.9943   20.4152 C   0  0  0  0  0  0
  -30.4197  -12.6289   19.5015 C   0  0  0  0  0  0
  -29.5121  -12.5281   18.2572 C   0  0  0  0  0  0
  -28.0506  -12.3098   18.6833 C   0  0  0  0  0  0
  -27.6187  -13.2631   19.8290 C   0  0  2  0  0  0
  -28.6620  -13.3582   20.9623 C   0  0  0  0  0  0
  -25.2421  -13.8248   20.5747 C   0  0  0  0  0  0
  -24.1753  -13.0449   20.9246 C   0  0  0  0  0  0
  -24.6392  -11.6941   20.8766 C   0  0  0  0  0  0
  -23.9085  -10.4300   21.0410 C   0  0  0  0  0  0
  -24.3633   -9.4211   21.9185 C   0  0  0  0  0  0
  -23.6304   -8.2247   22.0753 C   0  0  0  0  0  0
  -22.4285   -8.0286   21.3545 C   0  0  0  0  0  0
  -21.9925   -9.0260   20.4646 C   0  0  0  0  0  0
  -22.7258  -10.2139   20.3057 C   0  0  0  0  0  0
  -21.6857   -6.0740   22.5279 C   0  0  0  0  0  0
  -21.4016   -6.5642   23.8212 C   0  0  0  0  0  0
  -21.3658   -5.6794   24.9174 C   0  0  0  0  0  0
  -21.6043   -4.3057   24.7223 C   0  0  0  0  0  0
  -21.8819   -3.8149   23.4345 C   0  0  0  0  0  0
  -21.9194   -4.6967   22.3402 C   0  0  0  0  0  0
  -22.7771  -13.5206   21.1892 C   0  0  0  0  0  0
  -22.1662   -4.2153   21.0980 F   0  0  0  0  0  0
  -21.5627   -3.4540   25.7736 F   0  0  0  0  0  0
  -29.9228  -13.7691   20.3349 N   0  0  0  0  0  0
  -26.2846  -12.9507   20.3257 N   0  0  0  0  0  0
  -25.9328  -11.6621   20.5756 N   0  0  0  0  0  0
  -22.0429  -12.8186   22.0446 N   0  0  0  0  0  0
  -25.4091  -15.1974   20.4183 N   0  0  0  0  0  0
  -31.8071  -14.9400   20.1854 O   0  0  0  0  0  0
  -21.6646   -6.8884   21.4241 O   0  0  0  0  0  0
  -22.3449  -14.5507   20.6733 O   0  0  0  0  0  0
  -24.6484  -31.8407   23.1866 C   0  0  0  0  0  0
  -25.9238  -32.4676   23.8265 C   0  0  1  0  0  0
  -27.2049  -27.0854   20.1518 C   0  0  0  0  0  0
  -25.5970  -33.8484   24.2174 N   0  0  0  0  0  0
  -23.4538  -30.4615   21.5332 C   0  0  2  0  0  0
  -24.9028  -28.8871   20.1073 C   0  0  0  0  0  0
  -22.7593  -29.4533   22.4839 C   0  0  0  0  0  0
  -18.0310  -28.1399   22.8475 C   0  0  0  0  0  0
  -24.1490  -36.7241   23.2642 C   0  0  0  0  0  0
  -26.0154  -30.6966   21.3961 C   0  0  0  0  0  0
  -26.0833  -29.3051   20.7347 C   0  0  0  0  0  0
  -27.2344  -28.4205   20.7427 C   0  0  0  0  0  0
  -26.0014  -26.7958   19.4671 C   0  0  0  0  0  0
  -24.8785  -27.6479   19.4564 C   0  0  0  0  0  0
  -23.6828  -29.7950   20.1517 C   0  0  0  0  0  0
  -25.4125  -36.3018   24.0312 C   0  0  1  0  0  0
  -20.5926  -28.3732   23.1219 C   0  0  2  0  0  0
  -20.6792  -26.9429   22.5398 C   0  0  0  0  0  0
  -19.5762  -26.6380   21.5211 C   0  0  0  0  0  0
  -18.1946  -26.7935   22.1626 C   0  0  0  0  0  0
  -19.1568  -28.8884   23.2838 C   0  0  0  0  0  0
  -18.9483  -30.1478   23.8866 C   0  0  0  0  0  0
  -17.6479  -30.6594   24.0559 C   0  0  0  0  0  0
  -25.9082  -34.9396   23.5052 C   0  0  0  0  0  0
  -16.5369  -29.9085   23.6341 C   0  0  0  0  0  0
  -16.7293  -28.6504   23.0361 C   0  0  0  0  0  0
  -26.4538  -31.6561   25.0727 C   0  0  0  0  0  0
  -25.3707  -31.3772   26.1413 C   0  0  0  0  0  0
  -27.0408  -30.2944   24.6355 C   0  0  0  0  0  0
  -27.6061  -32.4337   25.7512 C   0  0  0  0  0  0
  -27.5573  -37.1776   24.8465 C   0  0  0  0  0  0
  -21.4280  -29.3053   22.3588 N   0  0  0  0  0  0
  -26.4281  -37.3739   23.9412 N   0  0  0  0  0  0
  -24.7260  -31.0218   22.0929 N   0  0  0  0  0  0
  -23.4215  -28.8075   23.3001 O   0  0  0  0  0  0
  -28.2108  -26.0355   20.2458 O   0  0  0  0  0  0
  -26.5669  -34.8901   22.4632 O   0  0  0  0  0  0
  -23.5590  -32.1310   23.7052 O   0  0  0  0  0  0
  -29.5834  -21.0361   19.4052 C   0  0  0  0  0  0
  -29.1944  -20.1336   20.4490 C   0  0  0  0  0  0
  -28.4625  -20.9201   21.4011 C   0  0  0  0  0  0
  -28.5691  -23.0605   20.2687 C   0  0  0  0  0  0
  -28.8340  -17.1365   20.8397 C   0  0  0  0  0  0
  -30.5307  -17.5798   19.7141 C   0  0  0  0  0  0
  -29.6331  -18.5170   20.6214 C   0  0  0  0  0  0
  -27.8170  -24.5332   19.9632 C   0  0  0  0  0  0
  -29.2732  -22.3968   19.3149 N   0  0  0  0  0  0
  -28.1638  -22.2800   21.3004 N   0  0  0  0  0  0
  -29.9804  -16.2962   20.3086 N   0  0  0  0  0  0
  -27.8836  -20.1274   22.8207 Cl  0  0  0  0  0  0
  -31.4549  -12.7608   19.1836 H   0  0  0  0  0  0
  -30.4045  -11.6977   20.0703 H   0  0  0  0  0  0
  -29.8406  -11.7135   17.6103 H   0  0  0  0  0  0
  -29.5925  -13.4426   17.6674 H   0  0  0  0  0  0
  -27.9594  -11.2743   19.0133 H   0  0  0  0  0  0
  -27.3837  -12.4157   17.8268 H   0  0  0  0  0  0
  -27.5623  -14.2519   19.3721 H   0  0  0  0  0  0
  -28.7674  -12.4097   21.4906 H   0  0  0  0  0  0
  -28.3548  -14.1001   21.7012 H   0  0  0  0  0  0
  -25.2775   -9.5687   22.4765 H   0  0  0  0  0  0
  -24.0011   -7.4639   22.7475 H   0  0  0  0  0  0
  -21.0856   -8.8783   19.8951 H   0  0  0  0  0  0
  -22.3715  -10.9680   19.6169 H   0  0  0  0  0  0
  -21.2009   -7.6150   23.9716 H   0  0  0  0  0  0
  -21.1479   -6.0524   25.9076 H   0  0  0  0  0  0
  -22.0598   -2.7612   23.2845 H   0  0  0  0  0  0
  -22.4063  -11.9856   22.4836 H   0  0  0  0  0  0
  -21.1040  -13.1192   22.2649 H   0  0  0  0  0  0
  -24.6436  -15.8525   20.5342 H   0  0  0  0  0  0
  -26.2614  -15.6344   20.0938 H   0  0  0  0  0  0
  -26.7302  -32.5261   23.0986 H   0  0  0  0  0  0
  -25.0096  -33.9593   25.0308 H   0  0  0  0  0  0
  -22.7587  -31.2895   21.3786 H   0  0  0  0  0  0
  -23.3764  -35.9560   23.3282 H   0  0  0  0  0  0
  -24.3576  -36.8897   22.2061 H   0  0  0  0  0  0
  -23.7232  -37.6423   23.6697 H   0  0  0  0  0  0
  -26.1812  -31.4496   20.6245 H   0  0  0  0  0  0
  -26.8820  -30.7440   22.0437 H   0  0  0  0  0  0
  -28.1268  -28.7313   21.2676 H   0  0  0  0  0  0
  -25.8743  -25.8584   18.9487 H   0  0  0  0  0  0
  -23.9813  -27.3261   18.9454 H   0  0  0  0  0  0
  -23.8243  -30.5717   19.3993 H   0  0  0  0  0  0
  -22.7959  -29.2422   19.8370 H   0  0  0  0  0  0
  -25.1313  -36.1837   25.0803 H   0  0  0  0  0  0
  -21.0018  -28.3324   24.1341 H   0  0  0  0  0  0
  -20.5686  -26.2346   23.3623 H   0  0  0  0  0  0
  -21.6656  -26.7429   22.1195 H   0  0  0  0  0  0
  -19.6924  -25.6284   21.1259 H   0  0  0  0  0  0
  -19.6696  -27.3175   20.6728 H   0  0  0  0  0  0
  -17.4211  -26.6675   21.4034 H   0  0  0  0  0  0
  -18.0351  -26.0086   22.9032 H   0  0  0  0  0  0
  -19.7959  -30.7304   24.2219 H   0  0  0  0  0  0
  -17.5032  -31.6272   24.5165 H   0  0  0  0  0  0
  -15.5368  -30.2977   23.7684 H   0  0  0  0  0  0
  -15.8693  -28.0812   22.7096 H   0  0  0  0  0  0
  -24.5879  -30.7133   25.7727 H   0  0  0  0  0  0
  -24.8911  -32.2966   26.4783 H   0  0  0  0  0  0
  -25.7973  -30.8970   27.0229 H   0  0  0  0  0  0
  -26.3042  -29.6656   24.1342 H   0  0  0  0  0  0
  -27.3971  -29.7262   25.4957 H   0  0  0  0  0  0
  -27.8974  -30.4157   23.9721 H   0  0  0  0  0  0
  -27.2656  -33.3673   26.2001 H   0  0  0  0  0  0
  -28.3918  -32.6837   25.0370 H   0  0  0  0  0  0
  -28.0675  -31.8519   26.5501 H   0  0  0  0  0  0
  -28.2574  -38.0088   24.7524 H   0  0  0  0  0  0
  -28.1085  -36.2618   24.6277 H   0  0  0  0  0  0
  -27.2292  -37.1402   25.8868 H   0  0  0  0  0  0
  -20.9499  -29.8767   21.6762 H   0  0  0  0  0  0
  -26.0141  -38.2800   24.1430 H   0  0  0  0  0  0
  -30.1791  -20.6550   18.5888 H   0  0  0  0  0  0
  -27.9419  -17.0660   20.2162 H   0  0  0  0  0  0
  -28.5760  -16.9466   21.8827 H   0  0  0  0  0  0
  -31.6001  -17.7312   19.8698 H   0  0  0  0  0  0
  -30.2975  -17.6772   18.6526 H   0  0  0  0  0  0
  -30.2157  -18.6106   21.5401 H   0  0  0  0  0  0
  -26.8402  -24.4052   20.4302 H   0  0  0  0  0  0
  -27.6242  -24.4971   18.8910 H   0  0  0  0  0  0
  1 25  1  0  0  0
  1 30  2  0  0  0
  1 81  1  0  0  0
  2  3  1  0  0  0
  2 25  1  0  0  0
  2 83  1  0  0  0
  2 84  1  0  0  0
  3  4  1  0  0  0
  3 85  1  0  0  0
  3 86  1  0  0  0
  4  5  1  0  0  0
  4 87  1  0  0  0
  4 88  1  0  0  0
  5  6  1  0  0  0
  5 26  1  0  0  0
  5 89  1  0  0  0
  6 25  1  0  0  0
  6 90  1  0  0  0
  6 91  1  0  0  0
  7  8  2  0  0  0
  7 26  1  0  0  0
  7 29  1  0  0  0
  8  9  1  0  0  0
  8 22  1  0  0  0
  9 10  1  0  0  0
  9 27  2  0  0  0
 10 11  2  0  0  0
 10 15  1  0  0  0
 11 12  1  0  0  0
 11 92  1  0  0  0
 12 13  2  0  0  0
 12 93  1  0  0  0
 13 14  1  0  0  0
 13 31  1  0  0  0
 14 15  2  0  0  0
 14 94  1  0  0  0
 15 95  1  0  0  0
 16 17  2  0  0  0
 16 21  1  0  0  0
 16 31  1  0  0  0
 17 18  1  0  0  0
 17 96  1  0  0  0
 18 19  2  0  0  0
 18 97  1  0  0  0
 19 20  1  0  0  0
 19 24  1  0  0  0
 20 21  2  0  0  0
 20 98  1  0  0  0
 21 23  1  0  0  0
 22 28  1  0  0  0
 22 32  2  0  0  0
 26 27  1  0  0  0
 28 99  1  0  0  0
 28100  1  0  0  0
 29101  1  0  0  0
 29102  1  0  0  0
 33 34  1  0  0  0
 33 66  1  0  0  0
 33 70  2  0  0  0
 34 36  1  0  0  0
 34 59  1  0  0  0
 34103  1  0  0  0
 35 44  2  0  0  0
 35 45  1  0  0  0
 35 68  1  0  0  0
 36 56  1  0  0  0
 36104  1  0  0  0
 37 39  1  0  0  0
 37 47  1  0  0  0
 37 66  1  0  0  0
 37105  1  0  0  0
 38 43  2  0  0  0
 38 46  1  0  0  0
 38 47  1  0  0  0
 39 64  1  0  0  0
 39 67  2  0  0  0
 40 52  1  0  0  0
 40 53  2  0  0  0
 40 58  1  0  0  0
 41106  1  0  0  0
 41107  1  0  0  0
 41108  1  0  0  0
 41 48  1  0  0  0
 42 43  1  0  0  0
 42 66  1  0  0  0
 42109  1  0  0  0
 42110  1  0  0  0
 43 44  1  0  0  0
 44111  1  0  0  0
 45 46  2  0  0  0
 45112  1  0  0  0
 46113  1  0  0  0
 47114  1  0  0  0
 47115  1  0  0  0
 48 56  1  0  0  0
 48 65  1  0  0  0
 48116  1  0  0  0
 49 50  1  0  0  0
 49 53  1  0  0  0
 49 64  1  0  0  0
 49117  1  0  0  0
 50 51  1  0  0  0
 50118  1  0  0  0
 50119  1  0  0  0
 51 52  1  0  0  0
 51120  1  0  0  0
 51121  1  0  0  0
 52122  1  0  0  0
 52123  1  0  0  0
 53 54  1  0  0  0
 54 55  2  0  0  0
 54124  1  0  0  0
 55 57  1  0  0  0
 55125  1  0  0  0
 56 69  2  0  0  0
 57 58  2  0  0  0
 57126  1  0  0  0
 58127  1  0  0  0
 59 60  1  0  0  0
 59 61  1  0  0  0
 59 62  1  0  0  0
 60128  1  0  0  0
 60129  1  0  0  0
 60130  1  0  0  0
 61131  1  0  0  0
 61132  1  0  0  0
 61133  1  0  0  0
 62134  1  0  0  0
 62135  1  0  0  0
 62136  1  0  0  0
 63 65  1  0  0  0
 63137  1  0  0  0
 63138  1  0  0  0
 63139  1  0  0  0
 64140  1  0  0  0
 65141  1  0  0  0
 68 78  1  0  0  0
 71 72  2  0  0  0
 71 79  1  0  0  0
 71142  1  0  0  0
 72 73  1  0  0  0
 72 77  1  0  0  0
 73 80  2  0  0  0
 73 82  1  0  0  0
 74 78  1  0  0  0
 74 79  2  0  0  0
 74 80  1  0  0  0
 75 77  1  0  0  0
 75 81  1  0  0  0
 75143  1  0  0  0
 75144  1  0  0  0
 76 77  1  0  0  0
 76 81  1  0  0  0
 76145  1  0  0  0
 76146  1  0  0  0
 77147  1  0  0  0
 78148  1  0  0  0
 78149  1  0  0  0
M  ISO  4   1 100  68 101  78 101  81 100
M  END
> <chiral flag>
0

> <version>
0

> <s_m_source_file>
/data/baiqing/PycharmProjects/Reinvent-master-3.2/result/LINK_invent/BTK/process_docking_weight1_custom_sum_contain_oxygen_bond_distance_aromatic_linkinvent_7_9_3/rearranged_h_0197.sdf

> <i_m_source_file_index>
25

> <r_mmod_Potential_Energy-OPLS-2005>
290.570037841797

> <r_mmod_Stretch_Energy-OPLS-2005>
259.700775146484

> <r_mmod_Bend_Energy-OPLS-2005>
343.114532470703

> <r_mmod_Torsional_Energy-OPLS-2005>
263.118408203125

> <r_mmod_Improper_Torsional_Energy-OPLS-2005>
17.9110527038574

> <r_mmod_Van_der_Waal_Energy-OPLS-2005>
136.65022277832

> <r_mmod_Electrostatic_Energy-OPLS-2005>
-742.610107421875

> <r_mmod_Solvation_Energy-OPLS-2005>
-228.295669555664

> <b_mmod_Minimization_Converged-OPLS-2005>
0

> <r_mmod_RMS_Derivative-OPLS-2005>
0.186379969120026

$$$$
25
                    3D
 Structure written by MMmdl.
162171  0  0  1  0            999 V2000
  -30.6637  -14.5536   20.4785 C   0  0  0  0  0  0
  -30.4197  -12.3290   19.4449 C   0  0  0  0  0  0
  -29.4973  -12.4779   18.2173 C   0  0  0  0  0  0
  -28.0192  -12.3309   18.6306 C   0  0  0  0  0  0
  -27.6491  -13.2072   19.8581 C   0  0  2  0  0  0
  -28.6924  -13.0555   20.9867 C   0  0  0  0  0  0
  -25.2520  -13.8148   20.5649 C   0  0  0  0  0  0
  -24.1786  -13.0425   20.9168 C   0  0  0  0  0  0
  -24.6356  -11.6901   20.8725 C   0  0  0  0  0  0
  -23.9033  -10.4291   21.0406 C   0  0  0  0  0  0
  -24.3591   -9.4204   21.9188 C   0  0  0  0  0  0
  -23.6268   -8.2240   22.0769 C   0  0  0  0  0  0
  -22.4265   -8.0266   21.3544 C   0  0  0  0  0  0
  -21.9883   -9.0236   20.4652 C   0  0  0  0  0  0
  -22.7204  -10.2120   20.3057 C   0  0  0  0  0  0
  -21.6843   -6.0719   22.5271 C   0  0  0  0  0  0
  -21.4020   -6.5623   23.8208 C   0  0  0  0  0  0
  -21.3670   -5.6774   24.9167 C   0  0  0  0  0  0
  -21.6043   -4.3037   24.7213 C   0  0  0  0  0  0
  -21.8814   -3.8132   23.4335 C   0  0  0  0  0  0
  -21.9197   -4.6949   22.3392 C   0  0  0  0  0  0
  -22.7806  -13.5226   21.1833 C   0  0  0  0  0  0
  -22.1656   -4.2133   21.0968 F   0  0  0  0  0  0
  -21.5646   -3.4525   25.7732 F   0  0  0  0  0  0
  -30.0142  -13.3570   20.4176 N   0  0  0  0  0  0
  -26.2944  -12.9327   20.3292 N   0  0  0  0  0  0
  -25.9286  -11.6488   20.5742 N   0  0  0  0  0  0
  -22.0454  -12.8240   22.0407 N   0  0  0  0  0  0
  -25.4160  -15.1871   20.4035 N   0  0  0  0  0  0
  -31.8371  -14.6831   20.1235 O   0  0  0  0  0  0
  -21.6630   -6.8857   21.4240 O   0  0  0  0  0  0
  -22.3509  -14.5546   20.6699 O   0  0  0  0  0  0
  -24.6194  -31.8623   23.2074 C   0  0  0  0  0  0
  -25.9081  -32.4782   23.8356 C   0  0  1  0  0  0
  -27.2041  -27.3478   20.0927 C   0  0  0  0  0  0
  -25.5927  -33.8587   24.2282 N   0  0  0  0  0  0
  -23.4097  -30.4952   21.5481 C   0  0  2  0  0  0
  -24.8487  -28.9617   20.1085 C   0  0  0  0  0  0
  -22.7437  -29.4649   22.4893 C   0  0  0  0  0  0
  -18.0266  -28.1369   22.8470 C   0  0  0  0  0  0
  -24.1488  -36.7308   23.2646 C   0  0  0  0  0  0
  -25.9506  -30.8009   21.3745 C   0  0  0  0  0  0
  -26.0165  -29.4313   20.7157 C   0  0  0  0  0  0
  -27.1933  -28.6316   20.7108 C   0  0  0  0  0  0
  -26.0158  -26.9406   19.4372 C   0  0  0  0  0  0
  -24.8484  -27.7186   19.4647 C   0  0  0  0  0  0
  -23.6216  -29.8427   20.1583 C   0  0  0  0  0  0
  -25.4105  -36.3083   24.0328 C   0  0  1  0  0  0
  -20.5869  -28.3678   23.1254 C   0  0  2  0  0  0
  -20.6760  -26.9399   22.5379 C   0  0  0  0  0  0
  -19.5737  -26.6359   21.5187 C   0  0  0  0  0  0
  -18.1916  -26.7911   22.1608 C   0  0  0  0  0  0
  -19.1526  -28.8829   23.2875 C   0  0  0  0  0  0
  -18.9490  -30.1442   23.8886 C   0  0  0  0  0  0
  -17.6503  -30.6586   24.0567 C   0  0  0  0  0  0
  -25.9044  -34.9460   23.5093 C   0  0  0  0  0  0
  -16.5384  -29.9099   23.6322 C   0  0  0  0  0  0
  -16.7266  -28.6514   23.0332 C   0  0  0  0  0  0
  -26.4477  -31.6589   25.0724 C   0  0  0  0  0  0
  -25.3720  -31.3771   26.1477 C   0  0  0  0  0  0
  -27.0321  -30.3007   24.6157 C   0  0  0  0  0  0
  -27.6009  -32.4340   25.7507 C   0  0  0  0  0  0
  -27.5574  -37.1808   24.8469 C   0  0  0  0  0  0
  -21.4154  -29.3078   22.3695 N   0  0  0  0  0  0
  -26.4286  -37.3761   23.9418 N   0  0  0  0  0  0
  -24.6789  -31.0683   22.0994 N   0  0  0  0  0  0
  -23.4210  -28.8122   23.2889 O   0  0  0  0  0  0
  -28.3375  -26.5265   20.1569 O   0  0  0  0  0  0
  -26.5603  -34.8928   22.4656 O   0  0  0  0  0  0
  -23.5374  -32.1410   23.7420 O   0  0  0  0  0  0
  -29.0033  -20.8070   18.5197 C   0  0  0  0  0  0
  -29.2571  -22.3170   18.7011 C   0  0  0  0  0  0
  -29.0616  -21.4527   20.8433 C   0  0  0  0  0  0
  -29.6087  -18.1598   21.3310 C   0  0  0  0  0  0
  -29.6676  -17.8326   19.3335 C   0  0  0  0  0  0
  -30.3082  -17.0653   20.5033 C   0  0  2  0  0  0
  -28.8706  -20.1957   19.9297 C   0  0  2  0  0  0
  -30.4654  -24.2907   20.7161 C   0  0  0  0  0  0
  -28.2797  -25.1386   19.6775 C   0  0  0  0  0  0
  -28.9645  -24.0123   20.5429 C   0  0  1  0  0  0
  -28.7066  -22.6333   20.0169 N   0  0  0  0  0  0
  -29.8916  -15.6473   20.7120 N   0  0  0  0  0  0
  -29.8288  -19.0511   20.1658 N   0  3  1  0  0  0
  -31.4660  -12.4219   19.1484 H   0  0  0  0  0  0
  -30.3193  -11.3339   19.8830 H   0  0  0  0  0  0
  -29.7488  -11.7329   17.4606 H   0  0  0  0  0  0
  -29.6521  -13.4508   17.7479 H   0  0  0  0  0  0
  -27.8498  -11.2811   18.8677 H   0  0  0  0  0  0
  -27.3644  -12.5592   17.7907 H   0  0  0  0  0  0
  -27.6700  -14.2407   19.5136 H   0  0  0  0  0  0
  -28.6813  -12.0368   21.3794 H   0  0  0  0  0  0
  -28.4580  -13.7053   21.8318 H   0  0  0  0  0  0
  -25.2742   -9.5690   22.4750 H   0  0  0  0  0  0
  -23.9980   -7.4640   22.7497 H   0  0  0  0  0  0
  -21.0815   -8.8738   19.8960 H   0  0  0  0  0  0
  -22.3650  -10.9652   19.6158 H   0  0  0  0  0  0
  -21.2003   -7.6128   23.9698 H   0  0  0  0  0  0
  -21.1507   -6.0507   25.9063 H   0  0  0  0  0  0
  -22.0591   -2.7600   23.2829 H   0  0  0  0  0  0
  -22.4064  -11.9884   22.4781 H   0  0  0  0  0  0
  -21.1078  -13.1297   22.2645 H   0  0  0  0  0  0
  -24.6298  -15.8203   20.4920 H   0  0  0  0  0  0
  -26.2427  -15.6368   20.0361 H   0  0  0  0  0  0
  -26.7133  -32.5460   23.1086 H   0  0  0  0  0  0
  -25.0090  -33.9716   25.0438 H   0  0  0  0  0  0
  -22.7014  -31.3151   21.4098 H   0  0  0  0  0  0
  -23.3744  -35.9663   23.3303 H   0  0  0  0  0  0
  -24.3582  -36.8915   22.2070 H   0  0  0  0  0  0
  -23.7255  -37.6520   23.6656 H   0  0  0  0  0  0
  -26.0777  -31.5624   20.6029 H   0  0  0  0  0  0
  -26.8324  -30.8414   22.0018 H   0  0  0  0  0  0
  -28.0884  -28.9885   21.2011 H   0  0  0  0  0  0
  -25.9278  -26.0254   18.8763 H   0  0  0  0  0  0
  -23.9542  -27.3579   18.9744 H   0  0  0  0  0  0
  -23.7490  -30.6263   19.4101 H   0  0  0  0  0  0
  -22.7388  -29.2842   19.8452 H   0  0  0  0  0  0
  -25.1268  -36.1933   25.0820 H   0  0  0  0  0  0
  -20.9984  -28.3259   24.1360 H   0  0  0  0  0  0
  -20.5610  -26.2309   23.3587 H   0  0  0  0  0  0
  -21.6637  -26.7363   22.1226 H   0  0  0  0  0  0
  -19.6914  -25.6258   21.1233 H   0  0  0  0  0  0
  -19.6697  -27.3154   20.6720 H   0  0  0  0  0  0
  -17.4190  -26.6639   21.4025 H   0  0  0  0  0  0
  -18.0351  -26.0028   22.8987 H   0  0  0  0  0  0
  -19.7996  -30.7237   24.2252 H   0  0  0  0  0  0
  -17.5094  -31.6264   24.5184 H   0  0  0  0  0  0
  -15.5405  -30.3049   23.7638 H   0  0  0  0  0  0
  -15.8652  -28.0867   22.7038 H   0  0  0  0  0  0
  -24.5879  -30.7092   25.7872 H   0  0  0  0  0  0
  -24.8962  -32.2995   26.4852 H   0  0  0  0  0  0
  -25.8075  -30.9030   27.0285 H   0  0  0  0  0  0
  -26.2910  -29.6775   24.1146 H   0  0  0  0  0  0
  -27.4003  -29.7207   25.4632 H   0  0  0  0  0  0
  -27.8764  -30.4290   23.9368 H   0  0  0  0  0  0
  -27.2558  -33.3633   26.2048 H   0  0  0  0  0  0
  -28.3855  -32.6912   25.0375 H   0  0  0  0  0  0
  -28.0636  -31.8508   26.5472 H   0  0  0  0  0  0
  -28.2566  -38.0118   24.7478 H   0  0  0  0  0  0
  -28.1064  -36.2636   24.6303 H   0  0  0  0  0  0
  -27.2294  -37.1478   25.8869 H   0  0  0  0  0  0
  -20.9286  -29.8945   21.7042 H   0  0  0  0  0  0
  -26.0165  -38.2835   24.1428 H   0  0  0  0  0  0
  -29.8051  -20.3562   17.9323 H   0  0  0  0  0  0
  -28.0776  -20.6481   17.9615 H   0  0  0  0  0  0
  -28.7998  -22.9114   17.9084 H   0  0  0  0  0  0
  -30.3317  -22.5057   18.6814 H   0  0  0  0  0  0
  -30.1039  -21.5179   21.1587 H   0  0  0  0  0  0
  -28.4503  -21.3844   21.7458 H   0  0  0  0  0  0
  -30.1501  -18.4678   22.2254 H   0  0  0  0  0  0
  -28.5565  -17.9611   21.5474 H   0  0  0  0  0  0
  -28.6259  -17.5667   19.1355 H   0  0  0  0  0  0
  -30.2545  -17.8430   18.4136 H   0  0  0  0  0  0
  -31.3966  -17.1937   20.5161 H   0  0  0  0  0  0
  -27.8521  -19.8203   20.0440 H   0  0  0  0  0  0
  -30.6194  -25.2531   21.2064 H   0  0  0  0  0  0
  -30.9806  -24.3384   19.7577 H   0  0  0  0  0  0
  -30.9588  -23.5395   21.3324 H   0  0  0  0  0  0
  -27.2704  -24.7679   19.5669 H   0  0  0  0  0  0
  -28.7141  -25.1454   18.6774 H   0  0  0  0  0  0
  -28.4991  -24.0446   21.5311 H   0  0  0  0  0  0
  -28.9274  -15.4667   20.9481 H   0  0  0  0  0  0
  -30.7890  -19.3596   20.1342 H   0  0  0  0  0  0
  1 25  1  0  0  0
  1 30  2  0  0  0
  1 82  1  0  0  0
  2  3  1  0  0  0
  2 25  1  0  0  0
  2 84  1  0  0  0
  2 85  1  0  0  0
  3  4  1  0  0  0
  3 86  1  0  0  0
  3 87  1  0  0  0
  4  5  1  0  0  0
  4 88  1  0  0  0
  4 89  1  0  0  0
  5  6  1  0  0  0
  5 26  1  0  0  0
  5 90  1  0  0  0
  6 25  1  0  0  0
  6 91  1  0  0  0
  6 92  1  0  0  0
  7  8  2  0  0  0
  7 26  1  0  0  0
  7 29  1  0  0  0
  8  9  1  0  0  0
  8 22  1  0  0  0
  9 10  1  0  0  0
  9 27  2  0  0  0
 10 11  2  0  0  0
 10 15  1  0  0  0
 11 12  1  0  0  0
 11 93  1  0  0  0
 12 13  2  0  0  0
 12 94  1  0  0  0
 13 14  1  0  0  0
 13 31  1  0  0  0
 14 15  2  0  0  0
 14 95  1  0  0  0
 15 96  1  0  0  0
 16 17  2  0  0  0
 16 21  1  0  0  0
 16 31  1  0  0  0
 17 18  1  0  0  0
 17 97  1  0  0  0
 18 19  2  0  0  0
 18 98  1  0  0  0
 19 20  1  0  0  0
 19 24  1  0  0  0
 20 21  2  0  0  0
 20 99  1  0  0  0
 21 23  1  0  0  0
 22 28  1  0  0  0
 22 32  2  0  0  0
 26 27  1  0  0  0
 28100  1  0  0  0
 28101  1  0  0  0
 29102  1  0  0  0
 29103  1  0  0  0
 33 34  1  0  0  0
 33 66  1  0  0  0
 33 70  2  0  0  0
 34 36  1  0  0  0
 34 59  1  0  0  0
 34104  1  0  0  0
 35 44  2  0  0  0
 35 45  1  0  0  0
 35 68  1  0  0  0
 36 56  1  0  0  0
 36105  1  0  0  0
 37 39  1  0  0  0
 37 47  1  0  0  0
 37 66  1  0  0  0
 37106  1  0  0  0
 38 43  2  0  0  0
 38 46  1  0  0  0
 38 47  1  0  0  0
 39 64  1  0  0  0
 39 67  2  0  0  0
 40 52  1  0  0  0
 40 53  2  0  0  0
 40 58  1  0  0  0
 41107  1  0  0  0
 41108  1  0  0  0
 41109  1  0  0  0
 41 48  1  0  0  0
 42 43  1  0  0  0
 42 66  1  0  0  0
 42110  1  0  0  0
 42111  1  0  0  0
 43 44  1  0  0  0
 44112  1  0  0  0
 45 46  2  0  0  0
 45113  1  0  0  0
 46114  1  0  0  0
 47115  1  0  0  0
 47116  1  0  0  0
 48 56  1  0  0  0
 48 65  1  0  0  0
 48117  1  0  0  0
 49 50  1  0  0  0
 49 53  1  0  0  0
 49 64  1  0  0  0
 49118  1  0  0  0
 50 51  1  0  0  0
 50119  1  0  0  0
 50120  1  0  0  0
 51 52  1  0  0  0
 51121  1  0  0  0
 51122  1  0  0  0
 52123  1  0  0  0
 52124  1  0  0  0
 53 54  1  0  0  0
 54 55  2  0  0  0
 54125  1  0  0  0
 55 57  1  0  0  0
 55126  1  0  0  0
 56 69  2  0  0  0
 57 58  2  0  0  0
 57127  1  0  0  0
 58128  1  0  0  0
 59 60  1  0  0  0
 59 61  1  0  0  0
 59 62  1  0  0  0
 60129  1  0  0  0
 60130  1  0  0  0
 60131  1  0  0  0
 61132  1  0  0  0
 61133  1  0  0  0
 61134  1  0  0  0
 62135  1  0  0  0
 62136  1  0  0  0
 62137  1  0  0  0
 63 65  1  0  0  0
 63138  1  0  0  0
 63139  1  0  0  0
 63140  1  0  0  0
 64141  1  0  0  0
 65142  1  0  0  0
 68 79  1  0  0  0
 71 72  1  0  0  0
 71143  1  0  0  0
 71144  1  0  0  0
 71 77  1  0  0  0
 72 81  1  0  0  0
 72145  1  0  0  0
 72146  1  0  0  0
 73 77  1  0  0  0
 73 81  1  0  0  0
 73147  1  0  0  0
 73148  1  0  0  0
 74 76  1  0  0  0
 74149  1  0  0  0
 74150  1  0  0  0
 74 83  1  0  0  0
 75 76  1  0  0  0
 75 83  1  0  0  0
 75151  1  0  0  0
 75152  1  0  0  0
 76 82  1  0  0  0
 76153  1  0  0  0
 77 83  1  0  0  0
 77154  1  0  0  0
 78155  1  0  0  0
 78156  1  0  0  0
 78157  1  0  0  0
 78 80  1  0  0  0
 79 80  1  0  0  0
 79158  1  0  0  0
 79159  1  0  0  0
 80 81  1  0  0  0
 80160  1  0  0  0
 82161  1  0  0  0
 83162  1  0  0  0
M  CHG  1  83   1
M  ISO  4   1 100  68 101  79 101  82 100
M  END
> <chiral flag>
0

> <version>
0

> <s_m_source_file>
/data/baiqing/PycharmProjects/Reinvent-master-3.2/result/LINK_invent/BTK/process_docking_weight1_custom_sum_contain_oxygen_bond_distance_aromatic_linkinvent_7_9_3/rearranged_h_0197.sdf

> <i_m_source_file_index>
26

> <r_mmod_Potential_Energy-OPLS-2005>
-4.23548126220703

> <r_mmod_Stretch_Energy-OPLS-2005>
59.908748626709

> <r_mmod_Bend_Energy-OPLS-2005>
176.759674072266

> <r_mmod_Torsional_Energy-OPLS-2005>
296.494506835938

> <r_mmod_Improper_Torsional_Energy-OPLS-2005>
5.89142847061157

> <r_mmod_Van_der_Waal_Energy-OPLS-2005>
138.11344909668

> <r_mmod_Electrostatic_Energy-OPLS-2005>
-241.774551391602

> <r_mmod_Solvation_Energy-OPLS-2005>
-474.838012695312

> <b_mmod_Minimization_Converged-OPLS-2005>
0

> <r_mmod_RMS_Derivative-OPLS-2005>
3.79744577407837

$$$$
26
                    3D
 Structure written by MMmdl.
172182  0  0  1  0            999 V2000
  -30.7561  -14.3632   20.6968 C   0  0  0  0  0  0
  -30.4205  -12.2883   19.3990 C   0  0  0  0  0  0
  -29.4894  -12.5292   18.1946 C   0  0  0  0  0  0
  -28.0121  -12.3808   18.6044 C   0  0  0  0  0  0
  -27.6668  -13.1972   19.8758 C   0  0  2  0  0  0
  -28.6981  -12.9251   20.9900 C   0  0  0  0  0  0
  -25.2616  -13.8145   20.5656 C   0  0  0  0  0  0
  -24.1853  -13.0437   20.9158 C   0  0  0  0  0  0
  -24.6387  -11.6899   20.8714 C   0  0  0  0  0  0
  -23.9049  -10.4293   21.0394 C   0  0  0  0  0  0
  -24.3608   -9.4216   21.9177 C   0  0  0  0  0  0
  -23.6288   -8.2248   22.0752 C   0  0  0  0  0  0
  -22.4271   -8.0280   21.3544 C   0  0  0  0  0  0
  -21.9899   -9.0250   20.4648 C   0  0  0  0  0  0
  -22.7219  -10.2132   20.3049 C   0  0  0  0  0  0
  -21.6851   -6.0736   22.5279 C   0  0  0  0  0  0
  -21.4013   -6.5639   23.8213 C   0  0  0  0  0  0
  -21.3662   -5.6791   24.9175 C   0  0  0  0  0  0
  -21.6043   -4.3053   24.7224 C   0  0  0  0  0  0
  -21.8819   -3.8147   23.4344 C   0  0  0  0  0  0
  -21.9194   -4.6965   22.3402 C   0  0  0  0  0  0
  -22.7881  -13.5247   21.1836 C   0  0  0  0  0  0
  -22.1662   -4.2150   21.0981 F   0  0  0  0  0  0
  -21.5631   -3.4537   25.7737 F   0  0  0  0  0  0
  -30.0473  -13.2243   20.4702 N   0  0  0  0  0  0
  -26.3042  -12.9296   20.3330 N   0  0  0  0  0  0
  -25.9305  -11.6463   20.5710 N   0  0  0  0  0  0
  -22.0516  -12.8243   22.0394 N   0  0  0  0  0  0
  -25.4367  -15.1862   20.4092 N   0  0  0  0  0  0
  -31.7614  -14.6728   20.0460 O   0  0  0  0  0  0
  -21.6637   -6.8877   21.4240 O   0  0  0  0  0  0
  -22.3575  -14.5563   20.6697 O   0  0  0  0  0  0
  -24.6105  -31.8706   23.2120 C   0  0  0  0  0  0
  -25.9012  -32.4845   23.8411 C   0  0  1  0  0  0
  -27.2346  -27.4597   20.0850 C   0  0  0  0  0  0
  -25.5878  -33.8639   24.2352 N   0  0  0  0  0  0
  -23.3965  -30.4951   21.5521 C   0  0  2  0  0  0
  -24.8396  -28.9594   20.1202 C   0  0  0  0  0  0
  -22.7382  -29.4671   22.5002 C   0  0  0  0  0  0
  -18.0265  -28.1381   22.8499 C   0  0  0  0  0  0
  -24.1481  -36.7315   23.2638 C   0  0  0  0  0  0
  -25.9223  -30.8416   21.3615 C   0  0  0  0  0  0
  -25.9979  -29.4757   20.7136 C   0  0  0  0  0  0
  -27.1957  -28.7325   20.6939 C   0  0  0  0  0  0
  -26.0580  -26.9527   19.4858 C   0  0  0  0  0  0
  -24.8624  -27.6946   19.5088 C   0  0  0  0  0  0
  -23.6030  -29.8265   20.1672 C   0  0  0  0  0  0
  -25.4105  -36.3129   24.0345 C   0  0  1  0  0  0
  -20.5858  -28.3654   23.1330 C   0  0  2  0  0  0
  -20.6756  -26.9395   22.5420 C   0  0  0  0  0  0
  -19.5737  -26.6398   21.5209 C   0  0  0  0  0  0
  -18.1915  -26.7932   22.1627 C   0  0  0  0  0  0
  -19.1516  -28.8836   23.2916 C   0  0  0  0  0  0
  -18.9449  -30.1442   23.8926 C   0  0  0  0  0  0
  -17.6456  -30.6594   24.0579 C   0  0  0  0  0  0
  -25.9028  -34.9490   23.5154 C   0  0  0  0  0  0
  -16.5345  -29.9103   23.6335 C   0  0  0  0  0  0
  -16.7259  -28.6519   23.0355 C   0  0  0  0  0  0
  -26.4451  -31.6607   25.0720 C   0  0  0  0  0  0
  -25.3735  -31.3705   26.1484 C   0  0  0  0  0  0
  -27.0274  -30.3059   24.6061 C   0  0  0  0  0  0
  -27.6041  -32.4309   25.7472 C   0  0  0  0  0  0
  -27.5583  -37.1817   24.8470 C   0  0  0  0  0  0
  -21.4118  -29.3032   22.3740 N   0  0  0  0  0  0
  -26.4296  -37.3808   23.9413 N   0  0  0  0  0  0
  -24.6615  -31.0832   22.1006 N   0  0  0  0  0  0
  -23.4171  -28.8213   23.3032 O   0  0  0  0  0  0
  -28.4424  -26.8025   20.0504 O   0  0  0  0  0  0
  -26.5588  -34.8936   22.4714 O   0  0  0  0  0  0
  -23.5308  -32.1439   23.7535 O   0  0  0  0  0  0
  -30.6259  -19.3990   23.6686 C   0  0  0  0  0  0
  -28.9589  -19.5560   21.9322 C   0  0  0  0  0  0
  -29.7626  -18.7531   22.7610 C   0  0  0  0  0  0
  -30.6514  -20.8060   23.7240 C   0  0  0  0  0  0
  -29.8047  -21.5177   22.8411 C   0  0  0  0  0  0
  -31.7891  -20.9831   26.0985 C   0  0  0  0  0  0
  -31.0048  -22.2553   25.8813 C   0  0  0  0  0  0
  -30.4320  -16.3976   23.6783 C   0  0  0  0  0  0
  -30.4157  -15.0009   23.0515 C   0  0  0  0  0  0
  -30.0666  -16.6324   21.3403 C   0  0  0  0  0  0
  -29.6376  -17.2350   22.6781 C   0  0  2  0  0  0
  -31.5645  -21.5014   24.6952 C   0  0  0  0  0  0
  -30.8644  -23.3210   20.6117 C   0  0  0  0  0  0
  -29.7689  -23.0429   22.8024 C   0  0  0  0  0  0
  -29.1787  -24.9703   21.3785 C   0  0  0  0  0  0
  -28.4817  -25.3757   20.0685 C   0  0  0  0  0  0
  -28.9804  -20.9042   21.9612 N   0  0  0  0  0  0
  -30.2248  -15.2031   21.6084 N   0  0  0  0  0  0
  -29.6351  -23.5514   21.4156 N   0  3  1  0  0  0
  -31.4649  -12.3936   19.0984 H   0  0  0  0  0  0
  -30.3199  -11.2628   19.7574 H   0  0  0  0  0  0
  -29.7258  -11.8298   17.3915 H   0  0  0  0  0  0
  -29.6603  -13.5284   17.7905 H   0  0  0  0  0  0
  -27.8189  -11.3219   18.7804 H   0  0  0  0  0  0
  -27.3609  -12.6753   17.7806 H   0  0  0  0  0  0
  -27.7296  -14.2532   19.6119 H   0  0  0  0  0  0
  -28.6570  -11.8796   21.2983 H   0  0  0  0  0  0
  -28.4213  -13.4937   21.8748 H   0  0  0  0  0  0
  -25.2755   -9.5694   22.4747 H   0  0  0  0  0  0
  -24.0002   -7.4639   22.7469 H   0  0  0  0  0  0
  -21.0831   -8.8764   19.8953 H   0  0  0  0  0  0
  -22.3676  -10.9669   19.6157 H   0  0  0  0  0  0
  -21.2001   -7.6146   23.9716 H   0  0  0  0  0  0
  -21.1485   -6.0521   25.9079 H   0  0  0  0  0  0
  -22.0596   -2.7609   23.2842 H   0  0  0  0  0  0
  -22.4120  -11.9896   22.4773 H   0  0  0  0  0  0
  -21.1137  -13.1280   22.2598 H   0  0  0  0  0  0
  -24.6747  -15.8459   20.5214 H   0  0  0  0  0  0
  -26.2978  -15.6223   20.1033 H   0  0  0  0  0  0
  -26.7078  -32.5566   23.1176 H   0  0  0  0  0  0
  -25.0040  -33.9807   25.0507 H   0  0  0  0  0  0
  -22.6855  -31.3126   21.4157 H   0  0  0  0  0  0
  -23.3750  -35.9640   23.3319 H   0  0  0  0  0  0
  -24.3573  -36.8906   22.2048 H   0  0  0  0  0  0
  -23.7220  -37.6526   23.6631 H   0  0  0  0  0  0
  -26.0306  -31.6054   20.5902 H   0  0  0  0  0  0
  -26.8122  -30.8974   21.9768 H   0  0  0  0  0  0
  -28.0942  -29.1351   21.1418 H   0  0  0  0  0  0
  -26.0497  -26.0068   18.9653 H   0  0  0  0  0  0
  -23.9718  -27.2974   19.0402 H   0  0  0  0  0  0
  -23.7142  -30.6011   19.4077 H   0  0  0  0  0  0
  -22.7264  -29.2471   19.8714 H   0  0  0  0  0  0
  -25.1282  -36.2006   25.0837 H   0  0  0  0  0  0
  -20.9953  -28.3215   24.1451 H   0  0  0  0  0  0
  -20.5654  -26.2261   23.3598 H   0  0  0  0  0  0
  -21.6629  -26.7446   22.1216 H   0  0  0  0  0  0
  -19.6894  -25.6315   21.1221 H   0  0  0  0  0  0
  -19.6680  -27.3232   20.6757 H   0  0  0  0  0  0
  -17.4185  -26.6683   21.4026 H   0  0  0  0  0  0
  -18.0320  -26.0068   22.9023 H   0  0  0  0  0  0
  -19.7925  -30.7251   24.2302 H   0  0  0  0  0  0
  -17.5019  -31.6275   24.5181 H   0  0  0  0  0  0
  -15.5353  -30.3029   23.7629 H   0  0  0  0  0  0
  -15.8656  -28.0856   22.7050 H   0  0  0  0  0  0
  -24.5895  -30.7055   25.7834 H   0  0  0  0  0  0
  -24.8939  -32.2858   26.4960 H   0  0  0  0  0  0
  -25.8102  -30.8864   27.0227 H   0  0  0  0  0  0
  -26.2802  -29.6828   24.1129 H   0  0  0  0  0  0
  -27.4081  -29.7280   25.4494 H   0  0  0  0  0  0
  -27.8624  -30.4403   23.9178 H   0  0  0  0  0  0
  -27.2679  -33.3603   26.2080 H   0  0  0  0  0  0
  -28.3831  -32.6872   25.0279 H   0  0  0  0  0  0
  -28.0727  -31.8409   26.5359 H   0  0  0  0  0  0
  -28.2626  -38.0094   24.7529 H   0  0  0  0  0  0
  -28.1059  -36.2636   24.6299 H   0  0  0  0  0  0
  -27.2304  -37.1473   25.8873 H   0  0  0  0  0  0
  -20.9251  -29.8785   21.7006 H   0  0  0  0  0  0
  -26.0198  -38.2891   24.1417 H   0  0  0  0  0  0
  -31.2600  -18.8343   24.3354 H   0  0  0  0  0  0
  -28.2750  -19.1073   21.2263 H   0  0  0  0  0  0
  -31.2319  -20.1090   26.4308 H   0  0  0  0  0  0
  -32.7856  -21.0898   26.5243 H   0  0  0  0  0  0
  -31.4889  -23.1863   26.1715 H   0  0  0  0  0  0
  -29.9324  -22.2106   26.0641 H   0  0  0  0  0  0
  -31.4693  -16.7308   23.7321 H   0  0  0  0  0  0
  -30.0148  -16.4216   24.6860 H   0  0  0  0  0  0
  -29.5882  -14.4227   23.4620 H   0  0  0  0  0  0
  -31.3349  -14.4572   23.2764 H   0  0  0  0  0  0
  -31.0213  -17.0528   21.0157 H   0  0  0  0  0  0
  -29.3337  -16.8123   20.5522 H   0  0  0  0  0  0
  -28.5805  -17.0034   22.8257 H   0  0  0  0  0  0
  -32.4262  -21.9257   24.1820 H   0  0  0  0  0  0
  -31.1554  -22.2704   20.6084 H   0  0  0  0  0  0
  -31.7042  -23.8958   21.0054 H   0  0  0  0  0  0
  -30.7262  -23.6076   19.5700 H   0  0  0  0  0  0
  -30.6506  -23.4874   23.2633 H   0  0  0  0  0  0
  -28.9134  -23.3478   23.4063 H   0  0  0  0  0  0
  -28.4731  -25.1634   22.1879 H   0  0  0  0  0  0
  -30.0329  -25.6225   21.5637 H   0  0  0  0  0  0
  -27.5119  -24.8835   20.0147 H   0  0  0  0  0  0
  -29.0482  -25.0589   19.1939 H   0  0  0  0  0  0
  -28.9156  -22.9452   21.0404 H   0  0  0  0  0  0
  1 25  1  0  0  0
  1 30  2  0  0  0
  1 88  1  0  0  0
  2  3  1  0  0  0
  2 25  1  0  0  0
  2 90  1  0  0  0
  2 91  1  0  0  0
  3  4  1  0  0  0
  3 92  1  0  0  0
  3 93  1  0  0  0
  4  5  1  0  0  0
  4 94  1  0  0  0
  4 95  1  0  0  0
  5  6  1  0  0  0
  5 26  1  0  0  0
  5 96  1  0  0  0
  6 25  1  0  0  0
  6 97  1  0  0  0
  6 98  1  0  0  0
  7  8  2  0  0  0
  7 26  1  0  0  0
  7 29  1  0  0  0
  8  9  1  0  0  0
  8 22  1  0  0  0
  9 10  1  0  0  0
  9 27  2  0  0  0
 10 11  2  0  0  0
 10 15  1  0  0  0
 11 12  1  0  0  0
 11 99  1  0  0  0
 12 13  2  0  0  0
 12100  1  0  0  0
 13 14  1  0  0  0
 13 31  1  0  0  0
 14 15  2  0  0  0
 14101  1  0  0  0
 15102  1  0  0  0
 16 17  2  0  0  0
 16 21  1  0  0  0
 16 31  1  0  0  0
 17 18  1  0  0  0
 17103  1  0  0  0
 18 19  2  0  0  0
 18104  1  0  0  0
 19 20  1  0  0  0
 19 24  1  0  0  0
 20 21  2  0  0  0
 20105  1  0  0  0
 21 23  1  0  0  0
 22 28  1  0  0  0
 22 32  2  0  0  0
 26 27  1  0  0  0
 28106  1  0  0  0
 28107  1  0  0  0
 29108  1  0  0  0
 29109  1  0  0  0
 33 34  1  0  0  0
 33 66  1  0  0  0
 33 70  2  0  0  0
 34 36  1  0  0  0
 34 59  1  0  0  0
 34110  1  0  0  0
 35 44  2  0  0  0
 35 45  1  0  0  0
 35 68  1  0  0  0
 36 56  1  0  0  0
 36111  1  0  0  0
 37 39  1  0  0  0
 37 47  1  0  0  0
 37 66  1  0  0  0
 37112  1  0  0  0
 38 43  2  0  0  0
 38 46  1  0  0  0
 38 47  1  0  0  0
 39 64  1  0  0  0
 39 67  2  0  0  0
 40 52  1  0  0  0
 40 53  2  0  0  0
 40 58  1  0  0  0
 41113  1  0  0  0
 41114  1  0  0  0
 41115  1  0  0  0
 41 48  1  0  0  0
 42 43  1  0  0  0
 42 66  1  0  0  0
 42116  1  0  0  0
 42117  1  0  0  0
 43 44  1  0  0  0
 44118  1  0  0  0
 45 46  2  0  0  0
 45119  1  0  0  0
 46120  1  0  0  0
 47121  1  0  0  0
 47122  1  0  0  0
 48 56  1  0  0  0
 48 65  1  0  0  0
 48123  1  0  0  0
 49 50  1  0  0  0
 49 53  1  0  0  0
 49 64  1  0  0  0
 49124  1  0  0  0
 50 51  1  0  0  0
 50125  1  0  0  0
 50126  1  0  0  0
 51 52  1  0  0  0
 51127  1  0  0  0
 51128  1  0  0  0
 52129  1  0  0  0
 52130  1  0  0  0
 53 54  1  0  0  0
 54 55  2  0  0  0
 54131  1  0  0  0
 55 57  1  0  0  0
 55132  1  0  0  0
 56 69  2  0  0  0
 57 58  2  0  0  0
 57133  1  0  0  0
 58134  1  0  0  0
 59 60  1  0  0  0
 59 61  1  0  0  0
 59 62  1  0  0  0
 60135  1  0  0  0
 60136  1  0  0  0
 60137  1  0  0  0
 61138  1  0  0  0
 61139  1  0  0  0
 61140  1  0  0  0
 62141  1  0  0  0
 62142  1  0  0  0
 62143  1  0  0  0
 63 65  1  0  0  0
 63144  1  0  0  0
 63145  1  0  0  0
 63146  1  0  0  0
 64147  1  0  0  0
 65148  1  0  0  0
 68 86  1  0  0  0
 71 73  2  0  0  0
 71 74  1  0  0  0
 71149  1  0  0  0
 72 73  1  0  0  0
 72 87  2  0  0  0
 72150  1  0  0  0
 73 81  1  0  0  0
 74 75  2  0  0  0
 74 82  1  0  0  0
 75 84  1  0  0  0
 75 87  1  0  0  0
 76 77  1  0  0  0
 76 82  1  0  0  0
 76151  1  0  0  0
 76152  1  0  0  0
 77 82  1  0  0  0
 77153  1  0  0  0
 77154  1  0  0  0
 78 79  1  0  0  0
 78 81  1  0  0  0
 78155  1  0  0  0
 78156  1  0  0  0
 79 88  1  0  0  0
 79157  1  0  0  0
 79158  1  0  0  0
 80 81  1  0  0  0
 80 88  1  0  0  0
 80159  1  0  0  0
 80160  1  0  0  0
 81161  1  0  0  0
 82162  1  0  0  0
 83163  1  0  0  0
 83164  1  0  0  0
 83165  1  0  0  0
 83 89  1  0  0  0
 84 89  1  0  0  0
 84166  1  0  0  0
 84167  1  0  0  0
 85 86  1  0  0  0
 85 89  1  0  0  0
 85168  1  0  0  0
 85169  1  0  0  0
 86170  1  0  0  0
 86171  1  0  0  0
 89172  1  0  0  0
M  CHG  1  89   1
M  ISO  4   1 100  68 101  86 101  88 100
M  END
> <chiral flag>
0

> <version>
0

> <s_m_source_file>
/data/baiqing/PycharmProjects/Reinvent-master-3.2/result/LINK_invent/BTK/process_docking_weight1_custom_sum_contain_oxygen_bond_distance_aromatic_linkinvent_7_9_3/rearranged_h_0197.sdf

> <i_m_source_file_index>
27

> <r_mmod_Potential_Energy-OPLS-2005>
-94.8677825927734

> <r_mmod_Stretch_Energy-OPLS-2005>
34.2030639648438

> <r_mmod_Bend_Energy-OPLS-2005>
129.52604675293

> <r_mmod_Torsional_Energy-OPLS-2005>
357.222229003906

> <r_mmod_Improper_Torsional_Energy-OPLS-2005>
5.16340923309326

> <r_mmod_Van_der_Waal_Energy-OPLS-2005>
160.383178710938

> <r_mmod_Electrostatic_Energy-OPLS-2005>
-391.967620849609

> <r_mmod_Solvation_Energy-OPLS-2005>
-397.057220458984

> <b_mmod_Minimization_Converged-OPLS-2005>
0

> <r_mmod_RMS_Derivative-OPLS-2005>
1.30963730812073

$$$$
27
                    3D
 Structure written by MMmdl.
161170  0  0  1  0            999 V2000
  -30.7194  -14.4051   20.5867 C   0  0  0  0  0  0
  -30.4199  -12.2689   19.4071 C   0  0  0  0  0  0
  -29.4894  -12.4932   18.1982 C   0  0  0  0  0  0
  -28.0087  -12.3580   18.6106 C   0  0  0  0  0  0
  -27.6622  -13.1859   19.8754 C   0  0  2  0  0  0
  -28.7046  -12.9465   20.9901 C   0  0  0  0  0  0
  -25.2620  -13.8120   20.5679 C   0  0  0  0  0  0
  -24.1848  -13.0423   20.9174 C   0  0  0  0  0  0
  -24.6376  -11.6883   20.8753 C   0  0  0  0  0  0
  -23.9053  -10.4281   21.0424 C   0  0  0  0  0  0
  -24.3608   -9.4188   21.9194 C   0  0  0  0  0  0
  -23.6275   -8.2230   22.0765 C   0  0  0  0  0  0
  -22.4258   -8.0287   21.3554 C   0  0  0  0  0  0
  -21.9894   -9.0262   20.4653 C   0  0  0  0  0  0
  -22.7232  -10.2134   20.3067 C   0  0  0  0  0  0
  -21.6835   -6.0743   22.5286 C   0  0  0  0  0  0
  -21.4008   -6.5655   23.8220 C   0  0  0  0  0  0
  -21.3652   -5.6805   24.9182 C   0  0  0  0  0  0
  -21.6029   -4.3067   24.7228 C   0  0  0  0  0  0
  -21.8818   -3.8165   23.4351 C   0  0  0  0  0  0
  -21.9185   -4.6976   22.3408 C   0  0  0  0  0  0
  -22.7875  -13.5241   21.1828 C   0  0  0  0  0  0
  -22.1659   -4.2163   21.0983 F   0  0  0  0  0  0
  -21.5615   -3.4555   25.7739 F   0  0  0  0  0  0
  -30.0399  -13.2386   20.4411 N   0  0  0  0  0  0
  -26.3026  -12.9241   20.3380 N   0  0  0  0  0  0
  -25.9294  -11.6429   20.5788 N   0  0  0  0  0  0
  -22.0507  -12.8248   22.0388 N   0  0  0  0  0  0
  -25.4367  -15.1843   20.4085 N   0  0  0  0  0  0
  -31.8459  -14.6029   20.1169 O   0  0  0  0  0  0
  -21.6627   -6.8885   21.4247 O   0  0  0  0  0  0
  -22.3575  -14.5554   20.6678 O   0  0  0  0  0  0
  -24.6119  -31.8705   23.2141 C   0  0  0  0  0  0
  -25.9030  -32.4831   23.8420 C   0  0  1  0  0  0
  -27.2345  -27.4634   20.0727 C   0  0  0  0  0  0
  -25.5901  -33.8628   24.2352 N   0  0  0  0  0  0
  -23.3959  -30.4955   21.5529 C   0  0  2  0  0  0
  -24.8401  -28.9662   20.1137 C   0  0  0  0  0  0
  -22.7381  -29.4663   22.5001 C   0  0  0  0  0  0
  -18.0262  -28.1360   22.8505 C   0  0  0  0  0  0
  -24.1487  -36.7334   23.2634 C   0  0  0  0  0  0
  -25.9212  -30.8438   21.3615 C   0  0  0  0  0  0
  -25.9974  -29.4783   20.7117 C   0  0  0  0  0  0
  -27.1919  -28.7285   20.6975 C   0  0  0  0  0  0
  -26.0559  -26.9609   19.4700 C   0  0  0  0  0  0
  -24.8628  -27.7052   19.4947 C   0  0  0  0  0  0
  -23.6019  -29.8313   20.1653 C   0  0  0  0  0  0
  -25.4101  -36.3115   24.0340 C   0  0  1  0  0  0
  -20.5850  -28.3641   23.1333 C   0  0  2  0  0  0
  -20.6747  -26.9380   22.5423 C   0  0  0  0  0  0
  -19.5730  -26.6380   21.5208 C   0  0  0  0  0  0
  -18.1908  -26.7911   22.1623 C   0  0  0  0  0  0
  -19.1511  -28.8815   23.2919 C   0  0  0  0  0  0
  -18.9438  -30.1423   23.8931 C   0  0  0  0  0  0
  -17.6443  -30.6572   24.0561 C   0  0  0  0  0  0
  -25.9024  -34.9475   23.5134 C   0  0  0  0  0  0
  -16.5333  -29.9079   23.6315 C   0  0  0  0  0  0
  -16.7254  -28.6489   23.0347 C   0  0  0  0  0  0
  -26.4479  -31.6595   25.0736 C   0  0  0  0  0  0
  -25.3767  -31.3713   26.1504 C   0  0  0  0  0  0
  -27.0309  -30.3039   24.6091 C   0  0  0  0  0  0
  -27.6070  -32.4300   25.7500 C   0  0  0  0  0  0
  -27.5576  -37.1821   24.8465 C   0  0  0  0  0  0
  -21.4109  -29.3031   22.3751 N   0  0  0  0  0  0
  -26.4292  -37.3791   23.9404 N   0  0  0  0  0  0
  -24.6607  -31.0839   22.1017 N   0  0  0  0  0  0
  -23.4174  -28.8190   23.3008 O   0  0  0  0  0  0
  -28.4321  -26.7845   20.0951 O   0  0  0  0  0  0
  -26.5574  -34.8922   22.4689 O   0  0  0  0  0  0
  -23.5325  -32.1434   23.7568 O   0  0  0  0  0  0
  -29.8760  -19.5546   21.7434 C   0  0  0  0  0  0
  -29.6636  -18.2053   21.7429 C   0  0  0  0  0  0
  -30.0631  -19.8503   20.3584 C   0  0  0  0  0  0
  -29.3910  -17.1786   22.7825 C   0  0  0  0  0  0
  -30.0841  -15.8415   22.4397 C   0  0  0  0  0  0
  -29.5727  -16.4233   19.9850 C   0  0  0  0  0  0
  -29.8505  -24.8950   19.8813 C   0  0  0  0  0  0
  -31.5121  -23.0793   19.5364 C   0  0  0  0  0  0
  -28.5873  -25.5833   19.3451 C   0  0  0  0  0  0
  -31.1064  -21.9453   20.4866 C   0  0  0  0  0  0
  -29.9571  -18.7904   19.5785 N   0  0  0  0  0  0
  -29.7467  -17.7813   20.4447 N   0  0  0  0  0  0
  -29.9717  -15.4378   21.0168 N   0  0  0  0  0  0
  -30.3296  -23.7989   19.0076 N   0  3  0  0  0  0
  -30.3066  -21.0416   19.7398 O   0  0  0  0  0  0
  -30.3132  -11.2523   19.7896 H   0  0  0  0  0  0
  -31.4642  -12.3636   19.1052 H   0  0  0  0  0  0
  -29.7192  -11.7750   17.4105 H   0  0  0  0  0  0
  -29.6698  -13.4815   17.7734 H   0  0  0  0  0  0
  -27.8063  -11.3014   18.7921 H   0  0  0  0  0  0
  -27.3593  -12.6493   17.7850 H   0  0  0  0  0  0
  -27.7059  -14.2304   19.5790 H   0  0  0  0  0  0
  -28.4681  -13.5455   21.8681 H   0  0  0  0  0  0
  -28.6697  -11.9090   21.3292 H   0  0  0  0  0  0
  -25.2755   -9.5653   22.4770 H   0  0  0  0  0  0
  -23.9969   -7.4625   22.7495 H   0  0  0  0  0  0
  -21.0814   -8.8790   19.8972 H   0  0  0  0  0  0
  -22.3696  -10.9679   19.6185 H   0  0  0  0  0  0
  -21.2016   -7.6164   23.9727 H   0  0  0  0  0  0
  -21.1466   -6.0538   25.9077 H   0  0  0  0  0  0
  -22.0600   -2.7624   23.2856 H   0  0  0  0  0  0
  -22.4097  -11.9894   22.4759 H   0  0  0  0  0  0
  -21.1146  -13.1327   22.2625 H   0  0  0  0  0  0
  -24.6722  -15.8410   20.5237 H   0  0  0  0  0  0
  -26.2940  -15.6248   20.1018 H   0  0  0  0  0  0
  -26.7104  -32.5558   23.1193 H   0  0  0  0  0  0
  -25.0068  -33.9790   25.0509 H   0  0  0  0  0  0
  -22.6839  -31.3113   21.4184 H   0  0  0  0  0  0
  -23.3723  -35.9693   23.3311 H   0  0  0  0  0  0
  -24.3577  -36.8927   22.2044 H   0  0  0  0  0  0
  -23.7271  -37.6559   23.6634 H   0  0  0  0  0  0
  -26.0236  -31.6085   20.5899 H   0  0  0  0  0  0
  -26.8139  -30.9029   21.9724 H   0  0  0  0  0  0
  -28.0870  -29.1223   21.1595 H   0  0  0  0  0  0
  -26.0225  -26.0062   18.9686 H   0  0  0  0  0  0
  -23.9723  -27.3072   19.0272 H   0  0  0  0  0  0
  -23.7079  -30.6078   19.4072 H   0  0  0  0  0  0
  -22.7272  -29.2498   19.8704 H   0  0  0  0  0  0
  -25.1272  -36.1975   25.0833 H   0  0  0  0  0  0
  -20.9941  -28.3187   24.1451 H   0  0  0  0  0  0
  -20.5620  -26.2241   23.3595 H   0  0  0  0  0  0
  -21.6616  -26.7411   22.1221 H   0  0  0  0  0  0
  -19.6877  -25.6295   21.1217 H   0  0  0  0  0  0
  -19.6664  -27.3204   20.6748 H   0  0  0  0  0  0
  -17.4171  -26.6663   21.4031 H   0  0  0  0  0  0
  -18.0312  -26.0039   22.9010 H   0  0  0  0  0  0
  -19.7912  -30.7226   24.2322 H   0  0  0  0  0  0
  -17.4996  -31.6255   24.5152 H   0  0  0  0  0  0
  -15.5332  -30.2988   23.7622 H   0  0  0  0  0  0
  -15.8652  -28.0815   22.7056 H   0  0  0  0  0  0
  -24.5920  -30.7071   25.7864 H   0  0  0  0  0  0
  -24.8991  -32.2884   26.4970 H   0  0  0  0  0  0
  -25.8134  -30.8877   27.0249 H   0  0  0  0  0  0
  -26.2847  -29.6800   24.1154 H   0  0  0  0  0  0
  -27.4105  -29.7268   25.4532 H   0  0  0  0  0  0
  -27.8671  -30.4371   23.9216 H   0  0  0  0  0  0
  -27.2688  -33.3575   26.2134 H   0  0  0  0  0  0
  -28.3860  -32.6890   25.0321 H   0  0  0  0  0  0
  -28.0752  -31.8382   26.5370 H   0  0  0  0  0  0
  -28.2606  -38.0105   24.7471 H   0  0  0  0  0  0
  -28.1053  -36.2629   24.6327 H   0  0  0  0  0  0
  -27.2290  -37.1522   25.8869 H   0  0  0  0  0  0
  -20.9231  -29.8805   21.7042 H   0  0  0  0  0  0
  -26.0177  -38.2872   24.1382 H   0  0  0  0  0  0
  -29.8877  -20.2158   22.5960 H   0  0  0  0  0  0
  -28.3135  -17.0180   22.8439 H   0  0  0  0  0  0
  -29.7068  -17.5308   23.7647 H   0  0  0  0  0  0
  -31.1460  -15.9435   22.6724 H   0  0  0  0  0  0
  -29.7083  -15.0542   23.0940 H   0  0  0  0  0  0
  -28.5207  -16.2899   19.7388 H   0  0  0  0  0  0
  -30.1289  -16.2981   19.0515 H   0  0  0  0  0  0
  -29.6417  -24.5102   20.8796 H   0  0  0  0  0  0
  -30.6510  -25.6285   19.9852 H   0  0  0  0  0  0
  -32.0721  -22.6583   18.7004 H   0  0  0  0  0  0
  -32.1880  -23.7726   20.0393 H   0  0  0  0  0  0
  -27.7505  -24.8956   19.4589 H   0  0  0  0  0  0
  -28.6853  -25.8346   18.2878 H   0  0  0  0  0  0
  -30.5596  -22.3286   21.3491 H   0  0  0  0  0  0
  -31.9978  -21.4387   20.8614 H   0  0  0  0  0  0
  -30.5738  -24.1904   18.1091 H   0  0  0  0  0  0
  -29.5932  -23.1253   18.8448 H   0  0  0  0  0  0
  1 25  1  0  0  0
  1 30  2  0  0  0
  1 83  1  0  0  0
  2  3  1  0  0  0
  2 25  1  0  0  0
  2 86  1  0  0  0
  2 87  1  0  0  0
  3  4  1  0  0  0
  3 88  1  0  0  0
  3 89  1  0  0  0
  4  5  1  0  0  0
  4 90  1  0  0  0
  4 91  1  0  0  0
  5  6  1  0  0  0
  5 26  1  0  0  0
  5 92  1  0  0  0
  6 25  1  0  0  0
  6 93  1  0  0  0
  6 94  1  0  0  0
  7  8  2  0  0  0
  7 26  1  0  0  0
  7 29  1  0  0  0
  8  9  1  0  0  0
  8 22  1  0  0  0
  9 10  1  0  0  0
  9 27  2  0  0  0
 10 11  2  0  0  0
 10 15  1  0  0  0
 11 12  1  0  0  0
 11 95  1  0  0  0
 12 13  2  0  0  0
 12 96  1  0  0  0
 13 14  1  0  0  0
 13 31  1  0  0  0
 14 15  2  0  0  0
 14 97  1  0  0  0
 15 98  1  0  0  0
 16 17  2  0  0  0
 16 21  1  0  0  0
 16 31  1  0  0  0
 17 18  1  0  0  0
 17 99  1  0  0  0
 18 19  2  0  0  0
 18100  1  0  0  0
 19 20  1  0  0  0
 19 24  1  0  0  0
 20 21  2  0  0  0
 20101  1  0  0  0
 21 23  1  0  0  0
 22 28  1  0  0  0
 22 32  2  0  0  0
 26 27  1  0  0  0
 28102  1  0  0  0
 28103  1  0  0  0
 29104  1  0  0  0
 29105  1  0  0  0
 33 34  1  0  0  0
 33 66  1  0  0  0
 33 70  2  0  0  0
 34 36  1  0  0  0
 34 59  1  0  0  0
 34106  1  0  0  0
 35 44  2  0  0  0
 35 45  1  0  0  0
 35 68  1  0  0  0
 36 56  1  0  0  0
 36107  1  0  0  0
 37 39  1  0  0  0
 37 47  1  0  0  0
 37 66  1  0  0  0
 37108  1  0  0  0
 38 43  2  0  0  0
 38 46  1  0  0  0
 38 47  1  0  0  0
 39 64  1  0  0  0
 39 67  2  0  0  0
 40 52  1  0  0  0
 40 53  2  0  0  0
 40 58  1  0  0  0
 41109  1  0  0  0
 41110  1  0  0  0
 41111  1  0  0  0
 41 48  1  0  0  0
 42 43  1  0  0  0
 42 66  1  0  0  0
 42112  1  0  0  0
 42113  1  0  0  0
 43 44  1  0  0  0
 44114  1  0  0  0
 45 46  2  0  0  0
 45115  1  0  0  0
 46116  1  0  0  0
 47117  1  0  0  0
 47118  1  0  0  0
 48 56  1  0  0  0
 48 65  1  0  0  0
 48119  1  0  0  0
 49 50  1  0  0  0
 49 53  1  0  0  0
 49 64  1  0  0  0
 49120  1  0  0  0
 50 51  1  0  0  0
 50121  1  0  0  0
 50122  1  0  0  0
 51 52  1  0  0  0
 51123  1  0  0  0
 51124  1  0  0  0
 52125  1  0  0  0
 52126  1  0  0  0
 53 54  1  0  0  0
 54 55  2  0  0  0
 54127  1  0  0  0
 55 57  1  0  0  0
 55128  1  0  0  0
 56 69  2  0  0  0
 57 58  2  0  0  0
 57129  1  0  0  0
 58130  1  0  0  0
 59 60  1  0  0  0
 59 61  1  0  0  0
 59 62  1  0  0  0
 60131  1  0  0  0
 60132  1  0  0  0
 60133  1  0  0  0
 61134  1  0  0  0
 61135  1  0  0  0
 61136  1  0  0  0
 62137  1  0  0  0
 62138  1  0  0  0
 62139  1  0  0  0
 63 65  1  0  0  0
 63140  1  0  0  0
 63141  1  0  0  0
 63142  1  0  0  0
 64143  1  0  0  0
 65144  1  0  0  0
 68 79  1  0  0  0
 71 72  2  0  0  0
 71 73  1  0  0  0
 71145  1  0  0  0
 72 74  1  0  0  0
 72 82  1  0  0  0
 73 81  2  0  0  0
 73 85  1  0  0  0
 74 75  1  0  0  0
 74146  1  0  0  0
 74147  1  0  0  0
 75 83  1  0  0  0
 75148  1  0  0  0
 75149  1  0  0  0
 76 82  1  0  0  0
 76 83  1  0  0  0
 76150  1  0  0  0
 76151  1  0  0  0
 77 79  1  0  0  0
 77 84  1  0  0  0
 77152  1  0  0  0
 77153  1  0  0  0
 78 80  1  0  0  0
 78 84  1  0  0  0
 78154  1  0  0  0
 78155  1  0  0  0
 79156  1  0  0  0
 79157  1  0  0  0
 80 85  1  0  0  0
 80158  1  0  0  0
 80159  1  0  0  0
 81 82  1  0  0  0
 84160  1  0  0  0
 84161  1  0  0  0
M  CHG  1  84   1
M  ISO  4   1 100  68 101  79 101  83 100
M  END
> <chiral flag>
0

> <version>
0

> <s_m_source_file>
/data/baiqing/PycharmProjects/Reinvent-master-3.2/result/LINK_invent/BTK/process_docking_weight1_custom_sum_contain_oxygen_bond_distance_aromatic_linkinvent_7_9_3/rearranged_h_0197.sdf

> <i_m_source_file_index>
28

> <r_mmod_Potential_Energy-OPLS-2005>
-86.1380996704102

> <r_mmod_Stretch_Energy-OPLS-2005>
33.4303207397461

> <r_mmod_Bend_Energy-OPLS-2005>
105.283843994141

> <r_mmod_Torsional_Energy-OPLS-2005>
326.175445556641

> <r_mmod_Improper_Torsional_Energy-OPLS-2005>
8.50538063049316

> <r_mmod_Van_der_Waal_Energy-OPLS-2005>
140.063079833984

> <r_mmod_Electrostatic_Energy-OPLS-2005>
-275.216064453125

> <r_mmod_Solvation_Energy-OPLS-2005>
-434.782379150391

> <b_mmod_Minimization_Converged-OPLS-2005>
0

> <r_mmod_RMS_Derivative-OPLS-2005>
2.23054313659668

$$$$
28
                    3D
 Structure written by MMmdl.
162171  0  0  1  0            999 V2000
  -30.7359  -14.4478   20.6207 C   0  0  0  0  0  0
  -30.4136  -12.3165   19.4127 C   0  0  0  0  0  0
  -29.4876  -12.5255   18.1961 C   0  0  0  0  0  0
  -28.0067  -12.3800   18.5999 C   0  0  0  0  0  0
  -27.6601  -13.1903   19.8753 C   0  0  2  0  0  0
  -28.7027  -12.9138   20.9835 C   0  0  0  0  0  0
  -25.2585  -13.8121   20.5653 C   0  0  0  0  0  0
  -24.1834  -13.0418   20.9169 C   0  0  0  0  0  0
  -24.6372  -11.6875   20.8739 C   0  0  0  0  0  0
  -23.9033  -10.4274   21.0406 C   0  0  0  0  0  0
  -24.3592   -9.4197   21.9183 C   0  0  0  0  0  0
  -23.6273   -8.2228   22.0754 C   0  0  0  0  0  0
  -22.4256   -8.0263   21.3538 C   0  0  0  0  0  0
  -21.9886   -9.0238   20.4647 C   0  0  0  0  0  0
  -22.7207  -10.2118   20.3060 C   0  0  0  0  0  0
  -21.6850   -6.0710   22.5264 C   0  0  0  0  0  0
  -21.4013   -6.5620   23.8196 C   0  0  0  0  0  0
  -21.3673   -5.6774   24.9167 C   0  0  0  0  0  0
  -21.6053   -4.3034   24.7225 C   0  0  0  0  0  0
  -21.8814   -3.8126   23.4346 C   0  0  0  0  0  0
  -21.9195   -4.6937   22.3400 C   0  0  0  0  0  0
  -22.7862  -13.5227   21.1843 C   0  0  0  0  0  0
  -22.1657   -4.2118   21.0976 F   0  0  0  0  0  0
  -21.5650   -3.4527   25.7746 F   0  0  0  0  0  0
  -30.0230  -13.2902   20.4554 N   0  0  0  0  0  0
  -26.3003  -12.9261   20.3346 N   0  0  0  0  0  0
  -25.9289  -11.6436   20.5758 N   0  0  0  0  0  0
  -22.0504  -12.8239   22.0412 N   0  0  0  0  0  0
  -25.4286  -15.1841   20.4019 N   0  0  0  0  0  0
  -31.8441  -14.5767   20.0849 O   0  0  0  0  0  0
  -21.6630   -6.8850   21.4224 O   0  0  0  0  0  0
  -22.3560  -14.5544   20.6687 O   0  0  0  0  0  0
  -24.6142  -31.8688   23.2116 C   0  0  0  0  0  0
  -25.9044  -32.4831   23.8400 C   0  0  1  0  0  0
  -27.2396  -27.4448   20.0834 C   0  0  0  0  0  0
  -25.5915  -33.8626   24.2339 N   0  0  0  0  0  0
  -23.4019  -30.4941   21.5503 C   0  0  2  0  0  0
  -24.8464  -28.9598   20.1160 C   0  0  0  0  0  0
  -22.7407  -29.4677   22.4979 C   0  0  0  0  0  0
  -18.0282  -28.1398   22.8494 C   0  0  0  0  0  0
  -24.1495  -36.7318   23.2639 C   0  0  0  0  0  0
  -25.9295  -30.8343   21.3649 C   0  0  0  0  0  0
  -26.0039  -29.4670   20.7176 C   0  0  0  0  0  0
  -27.1966  -28.7110   20.7108 C   0  0  0  0  0  0
  -26.0571  -26.9505   19.4815 C   0  0  0  0  0  0
  -24.8660  -27.6975   19.5015 C   0  0  0  0  0  0
  -23.6102  -29.8278   20.1645 C   0  0  0  0  0  0
  -25.4113  -36.3112   24.0335 C   0  0  1  0  0  0
  -20.5871  -28.3684   23.1317 C   0  0  2  0  0  0
  -20.6782  -26.9424   22.5418 C   0  0  0  0  0  0
  -19.5757  -26.6401   21.5225 C   0  0  0  0  0  0
  -18.1931  -26.7944   22.1629 C   0  0  0  0  0  0
  -19.1530  -28.8854   23.2907 C   0  0  0  0  0  0
  -18.9463  -30.1465   23.8913 C   0  0  0  0  0  0
  -17.6466  -30.6596   24.0581 C   0  0  0  0  0  0
  -25.9039  -34.9475   23.5127 C   0  0  0  0  0  0
  -16.5357  -29.9104   23.6336 C   0  0  0  0  0  0
  -16.7271  -28.6530   23.0335 C   0  0  0  0  0  0
  -26.4475  -31.6601   25.0717 C   0  0  0  0  0  0
  -25.3742  -31.3701   26.1458 C   0  0  0  0  0  0
  -27.0309  -30.3050   24.6082 C   0  0  0  0  0  0
  -27.6065  -32.4300   25.7471 C   0  0  0  0  0  0
  -27.5579  -37.1816   24.8466 C   0  0  0  0  0  0
  -21.4137  -29.3048   22.3715 N   0  0  0  0  0  0
  -26.4301  -37.3792   23.9399 N   0  0  0  0  0  0
  -24.6666  -31.0796   22.1014 N   0  0  0  0  0  0
  -23.4181  -28.8213   23.3018 O   0  0  0  0  0  0
  -28.4311  -26.7436   20.0959 O   0  0  0  0  0  0
  -26.5594  -34.8926   22.4684 O   0  0  0  0  0  0
  -23.5337  -32.1436   23.7519 O   0  0  0  0  0  0
  -31.0091  -16.7640   21.4192 C   0  0  0  0  0  0
  -28.9214  -15.7897   21.9255 C   0  0  0  0  0  0
  -30.1289  -17.8762   21.9284 C   0  0  2  0  0  0
  -28.8050  -17.2620   22.2416 C   0  0  1  0  0  0
  -28.8975  -18.3408   21.1831 C   0  0  1  0  0  0
  -28.2819  -19.7115   21.4260 C   0  0  0  0  0  0
  -29.0420  -20.8629   20.7323 C   0  0  0  0  0  0
  -29.0316  -23.3308   20.3078 C   0  0  0  0  0  0
  -28.6027  -25.6387   19.2026 C   0  0  0  0  0  0
  -27.9862  -24.3056   19.7149 C   0  0  1  0  0  0
  -30.2310  -15.5161   21.3102 N   0  0  0  0  0  0
  -27.3180  -23.6610   18.5863 N   0  0  0  0  0  0
  -28.3652  -22.1653   20.9317 N   0  3  0  0  0  0
  -31.4569  -12.4054   19.1048 H   0  0  0  0  0  0
  -30.3205  -11.2967   19.7898 H   0  0  0  0  0  0
  -29.7319  -11.8153   17.4054 H   0  0  0  0  0  0
  -29.6535  -13.5186   17.7764 H   0  0  0  0  0  0
  -27.8042  -11.3211   18.7645 H   0  0  0  0  0  0
  -27.3617  -12.6859   17.7749 H   0  0  0  0  0  0
  -27.7141  -14.2390   19.5895 H   0  0  0  0  0  0
  -28.7030  -11.8471   21.2153 H   0  0  0  0  0  0
  -28.4506  -13.3660   21.9350 H   0  0  0  0  0  0
  -25.2735   -9.5676   22.4765 H   0  0  0  0  0  0
  -23.9982   -7.4622   22.7473 H   0  0  0  0  0  0
  -21.0818   -8.8742   19.8965 H   0  0  0  0  0  0
  -22.3647  -10.9654   19.6178 H   0  0  0  0  0  0
  -21.1984   -7.6123   23.9687 H   0  0  0  0  0  0
  -21.1518   -6.0513   25.9068 H   0  0  0  0  0  0
  -22.0594   -2.7586   23.2852 H   0  0  0  0  0  0
  -22.4086  -11.9877   22.4781 H   0  0  0  0  0  0
  -21.1135  -13.1297   22.2637 H   0  0  0  0  0  0
  -24.6599  -15.8372   20.5102 H   0  0  0  0  0  0
  -26.2802  -15.6250   20.0788 H   0  0  0  0  0  0
  -26.7124  -32.5543   23.1171 H   0  0  0  0  0  0
  -25.0082  -33.9787   25.0491 H   0  0  0  0  0  0
  -22.6922  -31.3118   21.4114 H   0  0  0  0  0  0
  -23.3745  -35.9667   23.3326 H   0  0  0  0  0  0
  -24.3594  -36.8902   22.2053 H   0  0  0  0  0  0
  -23.7265  -37.6537   23.6630 H   0  0  0  0  0  0
  -26.0386  -31.5964   20.5922 H   0  0  0  0  0  0
  -26.8208  -30.8917   21.9778 H   0  0  0  0  0  0
  -28.0889  -29.0991   21.1817 H   0  0  0  0  0  0
  -26.0286  -25.9873   18.9952 H   0  0  0  0  0  0
  -23.9737  -27.2973   19.0387 H   0  0  0  0  0  0
  -23.7237  -30.6027   19.4059 H   0  0  0  0  0  0
  -22.7354  -29.2484   19.8648 H   0  0  0  0  0  0
  -25.1297  -36.1978   25.0831 H   0  0  0  0  0  0
  -20.9980  -28.3258   24.1428 H   0  0  0  0  0  0
  -20.5722  -26.2289   23.3600 H   0  0  0  0  0  0
  -21.6647  -26.7488   22.1191 H   0  0  0  0  0  0
  -19.6925  -25.6318   21.1238 H   0  0  0  0  0  0
  -19.6700  -27.3229   20.6773 H   0  0  0  0  0  0
  -17.4211  -26.6712   21.4021 H   0  0  0  0  0  0
  -18.0321  -26.0079   22.9020 H   0  0  0  0  0  0
  -19.7938  -30.7283   24.2273 H   0  0  0  0  0  0
  -17.5022  -31.6267   24.5196 H   0  0  0  0  0  0
  -15.5361  -30.3014   23.7645 H   0  0  0  0  0  0
  -15.8676  -28.0867   22.7015 H   0  0  0  0  0  0
  -24.5923  -30.7043   25.7788 H   0  0  0  0  0  0
  -24.8915  -32.2854   26.4898 H   0  0  0  0  0  0
  -25.8083  -30.8871   27.0220 H   0  0  0  0  0  0
  -26.2854  -29.6802   24.1152 H   0  0  0  0  0  0
  -27.4120  -29.7289   25.4526 H   0  0  0  0  0  0
  -27.8667  -30.4389   23.9208 H   0  0  0  0  0  0
  -27.2715  -33.3595   26.2084 H   0  0  0  0  0  0
  -28.3854  -32.6863   25.0279 H   0  0  0  0  0  0
  -28.0757  -31.8393   26.5348 H   0  0  0  0  0  0
  -28.2619  -38.0093   24.7487 H   0  0  0  0  0  0
  -28.1050  -36.2619   24.6327 H   0  0  0  0  0  0
  -27.2285  -37.1511   25.8868 H   0  0  0  0  0  0
  -20.9291  -29.8747   21.6921 H   0  0  0  0  0  0
  -26.0190  -38.2871   24.1384 H   0  0  0  0  0  0
  -31.4319  -17.0660   20.4585 H   0  0  0  0  0  0
  -31.8378  -16.6114   22.1135 H   0  0  0  0  0  0
  -28.0918  -15.5271   21.2762 H   0  0  0  0  0  0
  -28.8296  -15.2404   22.8626 H   0  0  0  0  0  0
  -30.5744  -18.5553   22.6543 H   0  0  0  0  0  0
  -28.3252  -17.5163   23.1851 H   0  0  0  0  0  0
  -28.8052  -18.0032   20.1515 H   0  0  0  0  0  0
  -28.2311  -19.8939   22.5000 H   0  0  0  0  0  0
  -27.2510  -19.6793   21.0673 H   0  0  0  0  0  0
  -29.1199  -20.6614   19.6618 H   0  0  0  0  0  0
  -30.0614  -20.9211   21.1169 H   0  0  0  0  0  0
  -29.6233  -23.8340   21.0737 H   0  0  0  0  0  0
  -29.7365  -23.0168   19.5355 H   0  0  0  0  0  0
  -29.6749  -25.5099   19.0527 H   0  0  0  0  0  0
  -28.2228  -25.9168   18.2171 H   0  0  0  0  0  0
  -27.2365  -24.5297   20.4748 H   0  0  0  0  0  0
  -27.9539  -23.6072   17.7958 H   0  0  0  0  0  0
  -27.0394  -22.7038   18.7590 H   0  0  0  0  0  0
  -28.2659  -22.3475   21.9175 H   0  0  0  0  0  0
  -27.4386  -22.1129   20.5451 H   0  0  0  0  0  0
  1 25  1  0  0  0
  1 30  2  0  0  0
  1 81  1  0  0  0
  2  3  1  0  0  0
  2 25  1  0  0  0
  2 84  1  0  0  0
  2 85  1  0  0  0
  3  4  1  0  0  0
  3 86  1  0  0  0
  3 87  1  0  0  0
  4  5  1  0  0  0
  4 88  1  0  0  0
  4 89  1  0  0  0
  5  6  1  0  0  0
  5 26  1  0  0  0
  5 90  1  0  0  0
  6 25  1  0  0  0
  6 91  1  0  0  0
  6 92  1  0  0  0
  7  8  2  0  0  0
  7 26  1  0  0  0
  7 29  1  0  0  0
  8  9  1  0  0  0
  8 22  1  0  0  0
  9 10  1  0  0  0
  9 27  2  0  0  0
 10 11  2  0  0  0
 10 15  1  0  0  0
 11 12  1  0  0  0
 11 93  1  0  0  0
 12 13  2  0  0  0
 12 94  1  0  0  0
 13 14  1  0  0  0
 13 31  1  0  0  0
 14 15  2  0  0  0
 14 95  1  0  0  0
 15 96  1  0  0  0
 16 17  2  0  0  0
 16 21  1  0  0  0
 16 31  1  0  0  0
 17 18  1  0  0  0
 17 97  1  0  0  0
 18 19  2  0  0  0
 18 98  1  0  0  0
 19 20  1  0  0  0
 19 24  1  0  0  0
 20 21  2  0  0  0
 20 99  1  0  0  0
 21 23  1  0  0  0
 22 28  1  0  0  0
 22 32  2  0  0  0
 26 27  1  0  0  0
 28100  1  0  0  0
 28101  1  0  0  0
 29102  1  0  0  0
 29103  1  0  0  0
 33 34  1  0  0  0
 33 66  1  0  0  0
 33 70  2  0  0  0
 34 36  1  0  0  0
 34 59  1  0  0  0
 34104  1  0  0  0
 35 44  2  0  0  0
 35 45  1  0  0  0
 35 68  1  0  0  0
 36 56  1  0  0  0
 36105  1  0  0  0
 37 39  1  0  0  0
 37 47  1  0  0  0
 37 66  1  0  0  0
 37106  1  0  0  0
 38 43  2  0  0  0
 38 46  1  0  0  0
 38 47  1  0  0  0
 39 64  1  0  0  0
 39 67  2  0  0  0
 40 52  1  0  0  0
 40 53  2  0  0  0
 40 58  1  0  0  0
 41107  1  0  0  0
 41108  1  0  0  0
 41109  1  0  0  0
 41 48  1  0  0  0
 42 43  1  0  0  0
 42 66  1  0  0  0
 42110  1  0  0  0
 42111  1  0  0  0
 43 44  1  0  0  0
 44112  1  0  0  0
 45 46  2  0  0  0
 45113  1  0  0  0
 46114  1  0  0  0
 47115  1  0  0  0
 47116  1  0  0  0
 48 56  1  0  0  0
 48 65  1  0  0  0
 48117  1  0  0  0
 49 50  1  0  0  0
 49 53  1  0  0  0
 49 64  1  0  0  0
 49118  1  0  0  0
 50 51  1  0  0  0
 50119  1  0  0  0
 50120  1  0  0  0
 51 52  1  0  0  0
 51121  1  0  0  0
 51122  1  0  0  0
 52123  1  0  0  0
 52124  1  0  0  0
 53 54  1  0  0  0
 54 55  2  0  0  0
 54125  1  0  0  0
 55 57  1  0  0  0
 55126  1  0  0  0
 56 69  2  0  0  0
 57 58  2  0  0  0
 57127  1  0  0  0
 58128  1  0  0  0
 59 60  1  0  0  0
 59 61  1  0  0  0
 59 62  1  0  0  0
 60129  1  0  0  0
 60130  1  0  0  0
 60131  1  0  0  0
 61132  1  0  0  0
 61133  1  0  0  0
 61134  1  0  0  0
 62135  1  0  0  0
 62136  1  0  0  0
 62137  1  0  0  0
 63 65  1  0  0  0
 63138  1  0  0  0
 63139  1  0  0  0
 63140  1  0  0  0
 64141  1  0  0  0
 65142  1  0  0  0
 68 79  1  0  0  0
 71 81  1  0  0  0
 71143  1  0  0  0
 71144  1  0  0  0
 71 73  1  0  0  0
 72 81  1  0  0  0
 72145  1  0  0  0
 72146  1  0  0  0
 72 74  1  0  0  0
 73 74  1  0  0  0
 73 75  1  0  0  0
 73147  1  0  0  0
 74 75  1  0  0  0
 74148  1  0  0  0
 75 76  1  0  0  0
 75149  1  0  0  0
 76 77  1  0  0  0
 76150  1  0  0  0
 76151  1  0  0  0
 77 83  1  0  0  0
 77152  1  0  0  0
 77153  1  0  0  0
 78 80  1  0  0  0
 78 83  1  0  0  0
 78154  1  0  0  0
 78155  1  0  0  0
 79 80  1  0  0  0
 79156  1  0  0  0
 79157  1  0  0  0
 80 82  1  0  0  0
 80158  1  0  0  0
 82159  1  0  0  0
 82160  1  0  0  0
 83161  1  0  0  0
 83162  1  0  0  0
M  CHG  1  83   1
M  ISO  4   1 100  68 101  79 101  81 100
M  END
> <chiral flag>
0

> <version>
0

> <s_m_source_file>
/data/baiqing/PycharmProjects/Reinvent-master-3.2/result/LINK_invent/BTK/process_docking_weight1_custom_sum_contain_oxygen_bond_distance_aromatic_linkinvent_7_9_3/rearranged_h_0197.sdf

> <i_m_source_file_index>
29

> <r_mmod_Potential_Energy-OPLS-2005>
60.2634201049805

> <r_mmod_Stretch_Energy-OPLS-2005>
38.3464698791504

> <r_mmod_Bend_Energy-OPLS-2005>
166.577713012695

> <r_mmod_Torsional_Energy-OPLS-2005>
358.201629638672

> <r_mmod_Improper_Torsional_Energy-OPLS-2005>
2.13910484313965

> <r_mmod_Van_der_Waal_Energy-OPLS-2005>
144.033599853516

> <r_mmod_Electrostatic_Energy-OPLS-2005>
-179.274673461914

> <r_mmod_Solvation_Energy-OPLS-2005>
-481.539001464844

> <b_mmod_Minimization_Converged-OPLS-2005>
0

> <r_mmod_RMS_Derivative-OPLS-2005>
2.00862550735474

$$$$
29
                    3D
 Structure written by MMmdl.
174184  0  0  1  0            999 V2000
  -30.7468  -14.4318   20.6589 C   0  0  0  0  0  0
  -30.4240  -12.3144   19.4205 C   0  0  0  0  0  0
  -29.4939  -12.5188   18.2052 C   0  0  0  0  0  0
  -28.0110  -12.3844   18.6069 C   0  0  0  0  0  0
  -27.6642  -13.1998   19.8793 C   0  0  2  0  0  0
  -28.6995  -12.9066   20.9821 C   0  0  0  0  0  0
  -25.2602  -13.8147   20.5673 C   0  0  0  0  0  0
  -24.1843  -13.0429   20.9163 C   0  0  0  0  0  0
  -24.6383  -11.6892   20.8719 C   0  0  0  0  0  0
  -23.9051  -10.4283   21.0400 C   0  0  0  0  0  0
  -24.3609   -9.4201   21.9178 C   0  0  0  0  0  0
  -23.6286   -8.2237   22.0749 C   0  0  0  0  0  0
  -22.4265   -8.0277   21.3542 C   0  0  0  0  0  0
  -21.9899   -9.0249   20.4642 C   0  0  0  0  0  0
  -22.7226  -10.2127   20.3050 C   0  0  0  0  0  0
  -21.6847   -6.0734   22.5278 C   0  0  0  0  0  0
  -21.4009   -6.5641   23.8211 C   0  0  0  0  0  0
  -21.3659   -5.6794   24.9174 C   0  0  0  0  0  0
  -21.6046   -4.3058   24.7225 C   0  0  0  0  0  0
  -21.8819   -3.8149   23.4347 C   0  0  0  0  0  0
  -21.9187   -4.6962   22.3402 C   0  0  0  0  0  0
  -22.7870  -13.5232   21.1854 C   0  0  0  0  0  0
  -22.1655   -4.2148   21.0978 F   0  0  0  0  0  0
  -21.5634   -3.4541   25.7740 F   0  0  0  0  0  0
  -30.0327  -13.2765   20.4716 N   0  0  0  0  0  0
  -26.3025  -12.9303   20.3357 N   0  0  0  0  0  0
  -25.9302  -11.6463   20.5735 N   0  0  0  0  0  0
  -22.0530  -12.8209   22.0418 N   0  0  0  0  0  0
  -25.4371  -15.1867   20.4121 N   0  0  0  0  0  0
  -31.8198  -14.6094   20.0682 O   0  0  0  0  0  0
  -21.6629   -6.8875   21.4242 O   0  0  0  0  0  0
  -22.3548  -14.5541   20.6716 O   0  0  0  0  0  0
  -24.6085  -31.8730   23.2135 C   0  0  0  0  0  0
  -25.8999  -32.4851   23.8426 C   0  0  1  0  0  0
  -27.2563  -27.4742   20.0982 C   0  0  0  0  0  0
  -25.5879  -33.8647   24.2360 N   0  0  0  0  0  0
  -23.3964  -30.4939   21.5527 C   0  0  2  0  0  0
  -24.8490  -28.9637   20.1196 C   0  0  0  0  0  0
  -22.7383  -29.4682   22.5020 C   0  0  0  0  0  0
  -18.0272  -28.1375   22.8503 C   0  0  0  0  0  0
  -24.1489  -36.7324   23.2636 C   0  0  0  0  0  0
  -25.9197  -30.8499   21.3627 C   0  0  0  0  0  0
  -26.0039  -29.4861   20.7139 C   0  0  0  0  0  0
  -27.2094  -28.7531   20.7062 C   0  0  0  0  0  0
  -26.0816  -26.9631   19.5087 C   0  0  0  0  0  0
  -24.8799  -27.6965   19.5149 C   0  0  0  0  0  0
  -23.6048  -29.8219   20.1685 C   0  0  0  0  0  0
  -25.4113  -36.3132   24.0341 C   0  0  1  0  0  0
  -20.5853  -28.3659   23.1334 C   0  0  2  0  0  0
  -20.6760  -26.9402   22.5421 C   0  0  0  0  0  0
  -19.5735  -26.6390   21.5219 C   0  0  0  0  0  0
  -18.1916  -26.7930   22.1626 C   0  0  0  0  0  0
  -19.1517  -28.8835   23.2919 C   0  0  0  0  0  0
  -18.9444  -30.1443   23.8925 C   0  0  0  0  0  0
  -17.6445  -30.6588   24.0560 C   0  0  0  0  0  0
  -25.9031  -34.9492   23.5150 C   0  0  0  0  0  0
  -16.5337  -29.9085   23.6321 C   0  0  0  0  0  0
  -16.7259  -28.6497   23.0354 C   0  0  0  0  0  0
  -26.4447  -31.6611   25.0728 C   0  0  0  0  0  0
  -25.3718  -31.3706   26.1476 C   0  0  0  0  0  0
  -27.0274  -30.3059   24.6084 C   0  0  0  0  0  0
  -27.6042  -32.4320   25.7474 C   0  0  0  0  0  0
  -27.5597  -37.1814   24.8462 C   0  0  0  0  0  0
  -21.4118  -29.3032   22.3743 N   0  0  0  0  0  0
  -26.4311  -37.3805   23.9402 N   0  0  0  0  0  0
  -24.6591  -31.0857   22.1025 N   0  0  0  0  0  0
  -23.4167  -28.8237   23.3062 O   0  0  0  0  0  0
  -28.3571  -26.6469   20.0266 O   0  0  0  0  0  0
  -26.5596  -34.8929   22.4711 O   0  0  0  0  0  0
  -23.5287  -32.1472   23.7549 O   0  0  0  0  0  0
  -31.9131  -21.1036   22.4557 C   0  0  0  0  0  0
  -31.0955  -20.0518   21.9665 C   0  0  0  0  0  0
  -29.7306  -16.7660   23.3025 C   0  0  0  0  0  0
  -29.5065  -22.9386   19.1758 C   0  0  0  0  0  0
  -29.4215  -15.4613   22.5751 C   0  0  0  0  0  0
  -30.6937  -16.8518   21.1235 C   0  0  0  0  0  0
  -30.6584  -23.8537   19.5415 C   0  0  1  0  0  0
  -30.8920  -22.3625   19.3616 C   0  0  1  0  0  0
  -30.0291  -17.7448   22.1783 C   0  0  2  0  0  0
  -32.6837  -21.1824   23.7374 C   0  0  0  0  0  0
  -32.7548  -25.0987   18.8568 C   0  0  0  0  0  0
  -30.5884  -27.1777   19.3781 C   0  0  0  0  0  0
  -29.6297  -27.0079   20.5624 C   0  0  0  0  0  0
  -31.2692  -24.8331   18.5484 C   0  0  2  0  0  0
  -31.9223  -22.0736   21.5764 N   0  0  0  0  0  0
  -30.5929  -20.3671   20.7996 N   0  0  0  0  0  0
  -31.0969  -21.6180   20.5953 N   0  0  0  0  0  0
  -30.1813  -15.4824   21.3200 N   0  0  0  0  0  0
  -30.8673  -18.8406   22.6420 N   0  0  0  0  0  0
  -30.4686  -26.0772   18.3815 N   0  3  0  0  0  0
  -31.4657  -12.4165   19.1121 H   0  0  0  0  0  0
  -30.3435  -11.2930   19.7950 H   0  0  0  0  0  0
  -29.7338  -11.7955   17.4243 H   0  0  0  0  0  0
  -29.6676  -13.5047   17.7722 H   0  0  0  0  0  0
  -27.8067  -11.3266   18.7784 H   0  0  0  0  0  0
  -27.3672  -12.6852   17.7798 H   0  0  0  0  0  0
  -27.7294  -14.2573   19.6238 H   0  0  0  0  0  0
  -28.6909  -11.8394   21.2089 H   0  0  0  0  0  0
  -28.4077  -13.3505   21.9228 H   0  0  0  0  0  0
  -25.2761   -9.5671   22.4741 H   0  0  0  0  0  0
  -23.9997   -7.4623   22.7458 H   0  0  0  0  0  0
  -21.0834   -8.8762   19.8945 H   0  0  0  0  0  0
  -22.3690  -10.9660   19.6151 H   0  0  0  0  0  0
  -21.1997   -7.6149   23.9715 H   0  0  0  0  0  0
  -21.1486   -6.0525   25.9077 H   0  0  0  0  0  0
  -22.0602   -2.7610   23.2845 H   0  0  0  0  0  0
  -22.4144  -11.9837   22.4741 H   0  0  0  0  0  0
  -21.1170  -13.1248   22.2689 H   0  0  0  0  0  0
  -24.6824  -15.8526   20.5352 H   0  0  0  0  0  0
  -26.3031  -15.6206   20.1175 H   0  0  0  0  0  0
  -26.7076  -32.5599   23.1207 H   0  0  0  0  0  0
  -25.0013  -33.9823   25.0493 H   0  0  0  0  0  0
  -22.6827  -31.3086   21.4130 H   0  0  0  0  0  0
  -23.3754  -35.9654   23.3317 H   0  0  0  0  0  0
  -24.3585  -36.8918   22.2048 H   0  0  0  0  0  0
  -23.7234  -37.6532   23.6638 H   0  0  0  0  0  0
  -26.0261  -31.6156   20.5926 H   0  0  0  0  0  0
  -26.8077  -30.9093   21.9797 H   0  0  0  0  0  0
  -28.0726  -29.1992   21.1729 H   0  0  0  0  0  0
  -26.0992  -25.9876   19.0428 H   0  0  0  0  0  0
  -23.9927  -27.2828   19.0558 H   0  0  0  0  0  0
  -23.7027  -30.5931   19.4039 H   0  0  0  0  0  0
  -22.7332  -29.2311   19.8803 H   0  0  0  0  0  0
  -25.1287  -36.2015   25.0835 H   0  0  0  0  0  0
  -20.9951  -28.3228   24.1450 H   0  0  0  0  0  0
  -20.5681  -26.2266   23.3602 H   0  0  0  0  0  0
  -21.6630  -26.7467   22.1197 H   0  0  0  0  0  0
  -19.6889  -25.6306   21.1235 H   0  0  0  0  0  0
  -19.6674  -27.3208   20.6756 H   0  0  0  0  0  0
  -17.4190  -26.6700   21.4021 H   0  0  0  0  0  0
  -18.0307  -26.0063   22.9009 H   0  0  0  0  0  0
  -19.7917  -30.7251   24.2310 H   0  0  0  0  0  0
  -17.4998  -31.6270   24.5152 H   0  0  0  0  0  0
  -15.5335  -30.2987   23.7638 H   0  0  0  0  0  0
  -15.8661  -28.0811   22.7069 H   0  0  0  0  0  0
  -24.5860  -30.7105   25.7792 H   0  0  0  0  0  0
  -24.8939  -32.2859   26.4980 H   0  0  0  0  0  0
  -25.8048  -30.8807   27.0206 H   0  0  0  0  0  0
  -26.2817  -29.6832   24.1130 H   0  0  0  0  0  0
  -27.4042  -29.7282   25.4537 H   0  0  0  0  0  0
  -27.8651  -30.4389   23.9233 H   0  0  0  0  0  0
  -27.2679  -33.3605   26.2104 H   0  0  0  0  0  0
  -28.3808  -32.6914   25.0263 H   0  0  0  0  0  0
  -28.0762  -31.8415   26.5337 H   0  0  0  0  0  0
  -28.2612  -38.0117   24.7530 H   0  0  0  0  0  0
  -28.1100  -36.2651   24.6268 H   0  0  0  0  0  0
  -27.2313  -37.1429   25.8864 H   0  0  0  0  0  0
  -20.9281  -29.8723   21.6934 H   0  0  0  0  0  0
  -26.0214  -38.2893   24.1390 H   0  0  0  0  0  0
  -30.6091  -16.6177   23.9337 H   0  0  0  0  0  0
  -28.9125  -17.0925   23.9472 H   0  0  0  0  0  0
  -29.1210  -22.9869   18.1597 H   0  0  0  0  0  0
  -28.7624  -22.7366   19.9442 H   0  0  0  0  0  0
  -28.3558  -15.4431   22.3425 H   0  0  0  0  0  0
  -29.6698  -14.6044   23.2036 H   0  0  0  0  0  0
  -31.7770  -16.8541   21.2655 H   0  0  0  0  0  0
  -30.4947  -17.2104   20.1123 H   0  0  0  0  0  0
  -30.6697  -24.2103   20.5675 H   0  0  0  0  0  0
  -31.4568  -21.9729   18.5171 H   0  0  0  0  0  0
  -29.0891  -18.1364   21.7852 H   0  0  0  0  0  0
  -32.6397  -20.2462   24.2929 H   0  0  0  0  0  0
  -32.2885  -21.9645   24.3847 H   0  0  0  0  0  0
  -33.7346  -21.4033   23.5523 H   0  0  0  0  0  0
  -33.3322  -24.1761   18.7880 H   0  0  0  0  0  0
  -32.9014  -25.4875   19.8643 H   0  0  0  0  0  0
  -33.1905  -25.8071   18.1514 H   0  0  0  0  0  0
  -31.6109  -27.3309   19.7184 H   0  0  0  0  0  0
  -30.3099  -28.0986   18.8649 H   0  0  0  0  0  0
  -29.6457  -27.8917   21.1939 H   0  0  0  0  0  0
  -29.9660  -26.1984   21.2074 H   0  0  0  0  0  0
  -31.2332  -24.3478   17.5713 H   0  0  0  0  0  0
  -31.2720  -18.7510   23.5687 H   0  0  0  0  0  0
  -30.7289  -26.4658   17.4880 H   0  0  0  0  0  0
  -29.4913  -25.8346   18.3087 H   0  0  0  0  0  0
  1 25  1  0  0  0
  1 30  2  0  0  0
  1 88  1  0  0  0
  2  3  1  0  0  0
  2 25  1  0  0  0
  2 91  1  0  0  0
  2 92  1  0  0  0
  3  4  1  0  0  0
  3 93  1  0  0  0
  3 94  1  0  0  0
  4  5  1  0  0  0
  4 95  1  0  0  0
  4 96  1  0  0  0
  5  6  1  0  0  0
  5 26  1  0  0  0
  5 97  1  0  0  0
  6 25  1  0  0  0
  6 98  1  0  0  0
  6 99  1  0  0  0
  7  8  2  0  0  0
  7 26  1  0  0  0
  7 29  1  0  0  0
  8  9  1  0  0  0
  8 22  1  0  0  0
  9 10  1  0  0  0
  9 27  2  0  0  0
 10 11  2  0  0  0
 10 15  1  0  0  0
 11 12  1  0  0  0
 11100  1  0  0  0
 12 13  2  0  0  0
 12101  1  0  0  0
 13 14  1  0  0  0
 13 31  1  0  0  0
 14 15  2  0  0  0
 14102  1  0  0  0
 15103  1  0  0  0
 16 17  2  0  0  0
 16 21  1  0  0  0
 16 31  1  0  0  0
 17 18  1  0  0  0
 17104  1  0  0  0
 18 19  2  0  0  0
 18105  1  0  0  0
 19 20  1  0  0  0
 19 24  1  0  0  0
 20 21  2  0  0  0
 20106  1  0  0  0
 21 23  1  0  0  0
 22 28  1  0  0  0
 22 32  2  0  0  0
 26 27  1  0  0  0
 28107  1  0  0  0
 28108  1  0  0  0
 29109  1  0  0  0
 29110  1  0  0  0
 33 34  1  0  0  0
 33 66  1  0  0  0
 33 70  2  0  0  0
 34 36  1  0  0  0
 34 59  1  0  0  0
 34111  1  0  0  0
 35 44  2  0  0  0
 35 45  1  0  0  0
 35 68  1  0  0  0
 36 56  1  0  0  0
 36112  1  0  0  0
 37 39  1  0  0  0
 37 47  1  0  0  0
 37 66  1  0  0  0
 37113  1  0  0  0
 38 43  2  0  0  0
 38 46  1  0  0  0
 38 47  1  0  0  0
 39 64  1  0  0  0
 39 67  2  0  0  0
 40 52  1  0  0  0
 40 53  2  0  0  0
 40 58  1  0  0  0
 41114  1  0  0  0
 41115  1  0  0  0
 41116  1  0  0  0
 41 48  1  0  0  0
 42 43  1  0  0  0
 42 66  1  0  0  0
 42117  1  0  0  0
 42118  1  0  0  0
 43 44  1  0  0  0
 44119  1  0  0  0
 45 46  2  0  0  0
 45120  1  0  0  0
 46121  1  0  0  0
 47122  1  0  0  0
 47123  1  0  0  0
 48 56  1  0  0  0
 48 65  1  0  0  0
 48124  1  0  0  0
 49 50  1  0  0  0
 49 53  1  0  0  0
 49 64  1  0  0  0
 49125  1  0  0  0
 50 51  1  0  0  0
 50126  1  0  0  0
 50127  1  0  0  0
 51 52  1  0  0  0
 51128  1  0  0  0
 51129  1  0  0  0
 52130  1  0  0  0
 52131  1  0  0  0
 53 54  1  0  0  0
 54 55  2  0  0  0
 54132  1  0  0  0
 55 57  1  0  0  0
 55133  1  0  0  0
 56 69  2  0  0  0
 57 58  2  0  0  0
 57134  1  0  0  0
 58135  1  0  0  0
 59 60  1  0  0  0
 59 61  1  0  0  0
 59 62  1  0  0  0
 60136  1  0  0  0
 60137  1  0  0  0
 60138  1  0  0  0
 61139  1  0  0  0
 61140  1  0  0  0
 61141  1  0  0  0
 62142  1  0  0  0
 62143  1  0  0  0
 62144  1  0  0  0
 63 65  1  0  0  0
 63145  1  0  0  0
 63146  1  0  0  0
 63147  1  0  0  0
 64148  1  0  0  0
 65149  1  0  0  0
 68 83  1  0  0  0
 71 72  1  0  0  0
 71 80  1  0  0  0
 71 85  2  0  0  0
 72 86  2  0  0  0
 72 89  1  0  0  0
 73 75  1  0  0  0
 73 79  1  0  0  0
 73150  1  0  0  0
 73151  1  0  0  0
 74 78  1  0  0  0
 74152  1  0  0  0
 74153  1  0  0  0
 74 77  1  0  0  0
 75 88  1  0  0  0
 75154  1  0  0  0
 75155  1  0  0  0
 76 79  1  0  0  0
 76 88  1  0  0  0
 76156  1  0  0  0
 76157  1  0  0  0
 77 78  1  0  0  0
 77 84  1  0  0  0
 77158  1  0  0  0
 78 87  1  0  0  0
 78159  1  0  0  0
 79 89  1  0  0  0
 79160  1  0  0  0
 80161  1  0  0  0
 80162  1  0  0  0
 80163  1  0  0  0
 81164  1  0  0  0
 81165  1  0  0  0
 81166  1  0  0  0
 81 84  1  0  0  0
 82 83  1  0  0  0
 82 90  1  0  0  0
 82167  1  0  0  0
 82168  1  0  0  0
 83169  1  0  0  0
 83170  1  0  0  0
 84 90  1  0  0  0
 84171  1  0  0  0
 85 87  1  0  0  0
 86 87  1  0  0  0
 89172  1  0  0  0
 90173  1  0  0  0
 90174  1  0  0  0
M  CHG  1  90   1
M  ISO  4   1 100  68 101  83 101  88 100
M  END
> <chiral flag>
0

> <version>
0

> <s_m_source_file>
/data/baiqing/PycharmProjects/Reinvent-master-3.2/result/LINK_invent/BTK/process_docking_weight1_custom_sum_contain_oxygen_bond_distance_aromatic_linkinvent_7_9_3/rearranged_h_0197.sdf

> <i_m_source_file_index>
30

> <r_mmod_Potential_Energy-OPLS-2005>
-68.6251602172852

> <r_mmod_Stretch_Energy-OPLS-2005>
37.3550643920898

> <r_mmod_Bend_Energy-OPLS-2005>
179.916152954102

> <r_mmod_Torsional_Energy-OPLS-2005>
370.764129638672

> <r_mmod_Improper_Torsional_Energy-OPLS-2005>
6.39332437515259

> <r_mmod_Van_der_Waal_Energy-OPLS-2005>
132.805282592773

> <r_mmod_Electrostatic_Energy-OPLS-2005>
-360.2255859375

> <r_mmod_Solvation_Energy-OPLS-2005>
-444.535186767578

> <b_mmod_Minimization_Converged-OPLS-2005>
0

> <r_mmod_RMS_Derivative-OPLS-2005>
1.20753931999207

$$$$
30
                    3D
 Structure written by MMmdl.
165174  0  0  1  0            999 V2000
  -30.6724  -14.7027   20.4420 C   0  0  0  0  0  0
  -30.4290  -12.4304   19.4520 C   0  0  0  0  0  0
  -29.4946  -12.4630   18.2242 C   0  0  0  0  0  0
  -28.0302  -12.2526   18.6549 C   0  0  0  0  0  0
  -27.6238  -13.1692   19.8321 C   0  0  2  0  0  0
  -28.6861  -13.1851   20.9607 C   0  0  0  0  0  0
  -25.2496  -13.7989   20.5705 C   0  0  0  0  0  0
  -24.1756  -13.0325   20.9257 C   0  0  0  0  0  0
  -24.6296  -11.6789   20.8832 C   0  0  0  0  0  0
  -23.8972  -10.4226   21.0480 C   0  0  0  0  0  0
  -24.3556   -9.4150   21.9234 C   0  0  0  0  0  0
  -23.6248   -8.2185   22.0781 C   0  0  0  0  0  0
  -22.4232   -8.0235   21.3558 C   0  0  0  0  0  0
  -21.9860   -9.0211   20.4660 C   0  0  0  0  0  0
  -22.7177  -10.2091   20.3094 C   0  0  0  0  0  0
  -21.6831   -6.0709   22.5287 C   0  0  0  0  0  0
  -21.4000   -6.5627   23.8214 C   0  0  0  0  0  0
  -21.3656   -5.6788   24.9183 C   0  0  0  0  0  0
  -21.6046   -4.3049   24.7234 C   0  0  0  0  0  0
  -21.8824   -3.8132   23.4360 C   0  0  0  0  0  0
  -21.9189   -4.6943   22.3411 C   0  0  0  0  0  0
  -22.7801  -13.5188   21.1883 C   0  0  0  0  0  0
  -22.1662   -4.2130   21.0987 F   0  0  0  0  0  0
  -21.5633   -3.4536   25.7747 F   0  0  0  0  0  0
  -29.9921  -13.5079   20.3634 N   0  0  0  0  0  0
  -26.2841  -12.9060   20.3282 N   0  0  0  0  0  0
  -25.9197  -11.6280   20.5840 N   0  0  0  0  0  0
  -22.0412  -12.8222   22.0429 N   0  0  0  0  0  0
  -25.4153  -15.1716   20.4079 N   0  0  0  0  0  0
  -31.8873  -14.7416   20.2378 O   0  0  0  0  0  0
  -21.6604   -6.8837   21.4241 O   0  0  0  0  0  0
  -22.3532  -14.5511   20.6714 O   0  0  0  0  0  0
  -24.6225  -31.8597   23.2039 C   0  0  0  0  0  0
  -25.9086  -32.4770   23.8359 C   0  0  1  0  0  0
  -27.2369  -27.3338   20.1320 C   0  0  0  0  0  0
  -25.5918  -33.8576   24.2287 N   0  0  0  0  0  0
  -23.4155  -30.4798   21.5441 C   0  0  2  0  0  0
  -24.8654  -28.9303   20.1159 C   0  0  0  0  0  0
  -22.7461  -29.4608   22.4953 C   0  0  0  0  0  0
  -18.0274  -28.1372   22.8488 C   0  0  0  0  0  0
  -24.1489  -36.7303   23.2641 C   0  0  0  0  0  0
  -25.9520  -30.7934   21.3738 C   0  0  0  0  0  0
  -26.0264  -29.4176   20.7278 C   0  0  0  0  0  0
  -27.2090  -28.6276   20.7328 C   0  0  0  0  0  0
  -26.0600  -26.8983   19.4821 C   0  0  0  0  0  0
  -24.8821  -27.6730   19.4872 C   0  0  0  0  0  0
  -23.6307  -29.8074   20.1611 C   0  0  0  0  0  0
  -25.4110  -36.3081   24.0329 C   0  0  1  0  0  0
  -20.5874  -28.3671   23.1294 C   0  0  2  0  0  0
  -20.6764  -26.9396   22.5412 C   0  0  0  0  0  0
  -19.5743  -26.6372   21.5208 C   0  0  0  0  0  0
  -18.1921  -26.7919   22.1618 C   0  0  0  0  0  0
  -19.1527  -28.8842   23.2884 C   0  0  0  0  0  0
  -18.9452  -30.1452   23.8890 C   0  0  0  0  0  0
  -17.6452  -30.6579   24.0559 C   0  0  0  0  0  0
  -25.9045  -34.9448   23.5107 C   0  0  0  0  0  0
  -16.5342  -29.9074   23.6324 C   0  0  0  0  0  0
  -16.7264  -28.6490   23.0345 C   0  0  0  0  0  0
  -26.4490  -31.6582   25.0724 C   0  0  0  0  0  0
  -25.3745  -31.3714   26.1466 C   0  0  0  0  0  0
  -27.0333  -30.3009   24.6170 C   0  0  0  0  0  0
  -27.6047  -32.4323   25.7491 C   0  0  0  0  0  0
  -27.5575  -37.1807   24.8465 C   0  0  0  0  0  0
  -21.4176  -29.3030   22.3701 N   0  0  0  0  0  0
  -26.4291  -37.3771   23.9405 N   0  0  0  0  0  0
  -24.6816  -31.0620   22.0977 N   0  0  0  0  0  0
  -23.4189  -28.8156   23.3033 O   0  0  0  0  0  0
  -28.4143  -26.5740   20.1302 O   0  0  0  0  0  0
  -26.5610  -34.8915   22.4672 O   0  0  0  0  0  0
  -23.5396  -32.1392   23.7378 O   0  0  0  0  0  0
  -29.9371  -23.1498   19.9566 C   0  0  0  0  0  0
  -29.8019  -24.5625   20.0107 C   0  0  0  0  0  0
  -28.8023  -22.3070   20.0659 C   0  0  0  0  0  0
  -27.5705  -23.0058   20.2883 C   0  0  0  0  0  0
  -28.5362  -25.1636   20.1821 C   0  0  0  0  0  0
  -28.9152  -17.6780   19.2616 C   0  0  0  0  0  0
  -28.8602  -16.1973   19.6402 C   0  0  0  0  0  0
  -30.5018  -17.2463   20.9378 C   0  0  0  0  0  0
  -29.4398  -18.3451   20.5188 C   0  0  1  0  0  0
  -26.0412  -21.5792   21.7400 C   0  0  0  0  0  0
  -29.0722  -20.7284   18.1545 C   0  0  0  0  0  0
  -26.2348  -22.2816   20.3895 C   0  0  0  0  0  0
  -28.8733  -20.7689   19.6863 C   0  0  1  0  0  0
  -27.4558  -24.3669   20.3766 N   0  0  0  0  0  0
  -29.9608  -15.8887   20.5615 N   0  0  0  0  0  0
  -29.8329  -19.8207   20.4028 N   0  3  0  0  0  0
  -31.4660  -12.5505   19.1334 H   0  0  0  0  0  0
  -30.3764  -11.4639   19.9555 H   0  0  0  0  0  0
  -29.7814  -11.6886   17.5115 H   0  0  0  0  0  0
  -29.5978  -13.4134   17.6995 H   0  0  0  0  0  0
  -27.9194  -11.2083   18.9491 H   0  0  0  0  0  0
  -27.3592  -12.4039   17.8082 H   0  0  0  0  0  0
  -27.5432  -14.1318   19.3603 H   0  0  0  0  0  0
  -28.7318  -12.2163   21.4593 H   0  0  0  0  0  0
  -28.4197  -13.9123   21.7291 H   0  0  0  0  0  0
  -25.2711   -9.5621   22.4792 H   0  0  0  0  0  0
  -23.9965   -7.4567   22.7487 H   0  0  0  0  0  0
  -21.0806   -8.8732   19.8948 H   0  0  0  0  0  0
  -22.3668  -10.9642   19.6200 H   0  0  0  0  0  0
  -21.1985   -7.6133   23.9711 H   0  0  0  0  0  0
  -21.1476   -6.0521   25.9086 H   0  0  0  0  0  0
  -22.0607   -2.7591   23.2869 H   0  0  0  0  0  0
  -22.4004  -11.9884   22.4833 H   0  0  0  0  0  0
  -21.1045  -13.1291   22.2613 H   0  0  0  0  0  0
  -24.6392  -15.8160   20.5115 H   0  0  0  0  0  0
  -26.2530  -15.6153   20.0596 H   0  0  0  0  0  0
  -26.7155  -32.5445   23.1112 H   0  0  0  0  0  0
  -25.0072  -33.9729   25.0434 H   0  0  0  0  0  0
  -22.7074  -31.2982   21.3982 H   0  0  0  0  0  0
  -23.3732  -35.9657   23.3319 H   0  0  0  0  0  0
  -24.3575  -36.8910   22.2054 H   0  0  0  0  0  0
  -23.7270  -37.6522   23.6651 H   0  0  0  0  0  0
  -26.0781  -31.5509   20.5989 H   0  0  0  0  0  0
  -26.8348  -30.8484   21.9992 H   0  0  0  0  0  0
  -28.1028  -29.0024   21.2117 H   0  0  0  0  0  0
  -26.0417  -25.9468   18.9705 H   0  0  0  0  0  0
  -23.9952  -27.2957   18.9961 H   0  0  0  0  0  0
  -23.7480  -30.5792   19.3998 H   0  0  0  0  0  0
  -22.7531  -29.2312   19.8615 H   0  0  0  0  0  0
  -25.1290  -36.1935   25.0821 H   0  0  0  0  0  0
  -20.9952  -28.3238   24.1421 H   0  0  0  0  0  0
  -20.5661  -26.2283   23.3607 H   0  0  0  0  0  0
  -21.6637  -26.7426   22.1213 H   0  0  0  0  0  0
  -19.6906  -25.6282   21.1242 H   0  0  0  0  0  0
  -19.6681  -27.3182   20.6741 H   0  0  0  0  0  0
  -17.4193  -26.6669   21.4013 H   0  0  0  0  0  0
  -18.0317  -26.0050   22.9007 H   0  0  0  0  0  0
  -19.7927  -30.7272   24.2250 H   0  0  0  0  0  0
  -17.5000  -31.6256   24.5169 H   0  0  0  0  0  0
  -15.5344  -30.2973   23.7646 H   0  0  0  0  0  0
  -15.8666  -28.0812   22.7056 H   0  0  0  0  0  0
  -24.5906  -30.7073   25.7810 H   0  0  0  0  0  0
  -24.8954  -32.2880   26.4917 H   0  0  0  0  0  0
  -25.8089  -30.8880   27.0224 H   0  0  0  0  0  0
  -26.2903  -29.6753   24.1215 H   0  0  0  0  0  0
  -27.4056  -29.7269   25.4664 H   0  0  0  0  0  0
  -27.8758  -30.4298   23.9373 H   0  0  0  0  0  0
  -27.2654  -33.3623   26.2064 H   0  0  0  0  0  0
  -28.3857  -32.6888   25.0322 H   0  0  0  0  0  0
  -28.0715  -31.8457   26.5412 H   0  0  0  0  0  0
  -28.2599  -38.0096   24.7487 H   0  0  0  0  0  0
  -28.1061  -36.2623   24.6312 H   0  0  0  0  0  0
  -27.2291  -37.1493   25.8869 H   0  0  0  0  0  0
  -20.9357  -29.8774   21.6926 H   0  0  0  0  0  0
  -26.0169  -38.2851   24.1379 H   0  0  0  0  0  0
  -30.9095  -22.7235   19.7575 H   0  0  0  0  0  0
  -30.6741  -25.1876   19.8783 H   0  0  0  0  0  0
  -27.9415  -18.0497   18.9428 H   0  0  0  0  0  0
  -29.6243  -17.7963   18.4410 H   0  0  0  0  0  0
  -28.8990  -15.5987   18.7291 H   0  0  0  0  0  0
  -27.9305  -16.0209   20.1750 H   0  0  0  0  0  0
  -30.7084  -17.2860   22.0079 H   0  0  0  0  0  0
  -31.4474  -17.4099   20.4175 H   0  0  0  0  0  0
  -28.6364  -18.3144   21.2580 H   0  0  0  0  0  0
  -25.0600  -21.1089   21.7901 H   0  0  0  0  0  0
  -26.1135  -22.2891   22.5647 H   0  0  0  0  0  0
  -26.7869  -20.8029   21.9040 H   0  0  0  0  0  0
  -28.2997  -21.3180   17.6588 H   0  0  0  0  0  0
  -29.0104  -19.7374   17.7181 H   0  0  0  0  0  0
  -30.0335  -21.1515   17.8631 H   0  0  0  0  0  0
  -26.1204  -21.5838   19.5598 H   0  0  0  0  0  0
  -25.4259  -23.0022   20.2535 H   0  0  0  0  0  0
  -27.8936  -20.3408   19.8870 H   0  0  0  0  0  0
  -30.7355  -19.8867   19.9612 H   0  0  0  0  0  0
  -29.9507  -20.1557   21.3459 H   0  0  0  0  0  0
  1 25  1  0  0  0
  1 30  2  0  0  0
  1 85  1  0  0  0
  2  3  1  0  0  0
  2 25  1  0  0  0
  2 87  1  0  0  0
  2 88  1  0  0  0
  3  4  1  0  0  0
  3 89  1  0  0  0
  3 90  1  0  0  0
  4  5  1  0  0  0
  4 91  1  0  0  0
  4 92  1  0  0  0
  5  6  1  0  0  0
  5 26  1  0  0  0
  5 93  1  0  0  0
  6 25  1  0  0  0
  6 94  1  0  0  0
  6 95  1  0  0  0
  7  8  2  0  0  0
  7 26  1  0  0  0
  7 29  1  0  0  0
  8  9  1  0  0  0
  8 22  1  0  0  0
  9 10  1  0  0  0
  9 27  2  0  0  0
 10 11  2  0  0  0
 10 15  1  0  0  0
 11 12  1  0  0  0
 11 96  1  0  0  0
 12 13  2  0  0  0
 12 97  1  0  0  0
 13 14  1  0  0  0
 13 31  1  0  0  0
 14 15  2  0  0  0
 14 98  1  0  0  0
 15 99  1  0  0  0
 16 17  2  0  0  0
 16 21  1  0  0  0
 16 31  1  0  0  0
 17 18  1  0  0  0
 17100  1  0  0  0
 18 19  2  0  0  0
 18101  1  0  0  0
 19 20  1  0  0  0
 19 24  1  0  0  0
 20 21  2  0  0  0
 20102  1  0  0  0
 21 23  1  0  0  0
 22 28  1  0  0  0
 22 32  2  0  0  0
 26 27  1  0  0  0
 28103  1  0  0  0
 28104  1  0  0  0
 29105  1  0  0  0
 29106  1  0  0  0
 33 34  1  0  0  0
 33 66  1  0  0  0
 33 70  2  0  0  0
 34 36  1  0  0  0
 34 59  1  0  0  0
 34107  1  0  0  0
 35 44  2  0  0  0
 35 45  1  0  0  0
 35 68  1  0  0  0
 36 56  1  0  0  0
 36108  1  0  0  0
 37 39  1  0  0  0
 37 47  1  0  0  0
 37 66  1  0  0  0
 37109  1  0  0  0
 38 43  2  0  0  0
 38 46  1  0  0  0
 38 47  1  0  0  0
 39 64  1  0  0  0
 39 67  2  0  0  0
 40 52  1  0  0  0
 40 53  2  0  0  0
 40 58  1  0  0  0
 41110  1  0  0  0
 41111  1  0  0  0
 41112  1  0  0  0
 41 48  1  0  0  0
 42 43  1  0  0  0
 42 66  1  0  0  0
 42113  1  0  0  0
 42114  1  0  0  0
 43 44  1  0  0  0
 44115  1  0  0  0
 45 46  2  0  0  0
 45116  1  0  0  0
 46117  1  0  0  0
 47118  1  0  0  0
 47119  1  0  0  0
 48 56  1  0  0  0
 48 65  1  0  0  0
 48120  1  0  0  0
 49 50  1  0  0  0
 49 53  1  0  0  0
 49 64  1  0  0  0
 49121  1  0  0  0
 50 51  1  0  0  0
 50122  1  0  0  0
 50123  1  0  0  0
 51 52  1  0  0  0
 51124  1  0  0  0
 51125  1  0  0  0
 52126  1  0  0  0
 52127  1  0  0  0
 53 54  1  0  0  0
 54 55  2  0  0  0
 54128  1  0  0  0
 55 57  1  0  0  0
 55129  1  0  0  0
 56 69  2  0  0  0
 57 58  2  0  0  0
 57130  1  0  0  0
 58131  1  0  0  0
 59 60  1  0  0  0
 59 61  1  0  0  0
 59 62  1  0  0  0
 60132  1  0  0  0
 60133  1  0  0  0
 60134  1  0  0  0
 61135  1  0  0  0
 61136  1  0  0  0
 61137  1  0  0  0
 62138  1  0  0  0
 62139  1  0  0  0
 62140  1  0  0  0
 63 65  1  0  0  0
 63141  1  0  0  0
 63142  1  0  0  0
 63143  1  0  0  0
 64144  1  0  0  0
 65145  1  0  0  0
 68 75  1  0  0  0
 71 72  2  0  0  0
 71 73  1  0  0  0
 71146  1  0  0  0
 72 75  1  0  0  0
 72147  1  0  0  0
 73 74  2  0  0  0
 73 83  1  0  0  0
 74 82  1  0  0  0
 74 84  1  0  0  0
 75 84  2  0  0  0
 76 77  1  0  0  0
 76 79  1  0  0  0
 76148  1  0  0  0
 76149  1  0  0  0
 77 85  1  0  0  0
 77150  1  0  0  0
 77151  1  0  0  0
 78 79  1  0  0  0
 78 85  1  0  0  0
 78152  1  0  0  0
 78153  1  0  0  0
 79 86  1  0  0  0
 79154  1  0  0  0
 80 82  1  0  0  0
 80155  1  0  0  0
 80156  1  0  0  0
 80157  1  0  0  0
 81158  1  0  0  0
 81159  1  0  0  0
 81160  1  0  0  0
 81 83  1  0  0  0
 82161  1  0  0  0
 82162  1  0  0  0
 83 86  1  0  0  0
 83163  1  0  0  0
 86164  1  0  0  0
 86165  1  0  0  0
M  CHG  1  86   1
M  ISO  4   1 100  68 101  75 101  85 100
M  END
> <chiral flag>
0

> <version>
0

> <s_m_source_file>
/data/baiqing/PycharmProjects/Reinvent-master-3.2/result/LINK_invent/BTK/process_docking_weight1_custom_sum_contain_oxygen_bond_distance_aromatic_linkinvent_7_9_3/rearranged_h_0197.sdf

> <i_m_source_file_index>
31

> <r_mmod_Potential_Energy-OPLS-2005>
37.8419380187988

> <r_mmod_Stretch_Energy-OPLS-2005>
81.9855728149414

> <r_mmod_Bend_Energy-OPLS-2005>
197.061370849609

> <r_mmod_Torsional_Energy-OPLS-2005>
322.799530029297

> <r_mmod_Improper_Torsional_Energy-OPLS-2005>
8.70545959472656

> <r_mmod_Van_der_Waal_Energy-OPLS-2005>
151.530670166016

> <r_mmod_Electrostatic_Energy-OPLS-2005>
-319.774871826172

> <r_mmod_Solvation_Energy-OPLS-2005>
-468.115356445312

> <b_mmod_Minimization_Converged-OPLS-2005>
0

> <r_mmod_RMS_Derivative-OPLS-2005>
1.66055083274841

$$$$
31
                    3D
 Structure written by MMmdl.
178188  0  0  1  0            999 V2000
  -30.6863  -14.4722   20.4038 C   0  0  0  0  0  0
  -30.4176  -12.2523   19.4270 C   0  0  0  0  0  0
  -29.4874  -12.3948   18.2033 C   0  0  0  0  0  0
  -28.0014  -12.3288   18.6223 C   0  0  0  0  0  0
  -27.6483  -13.1890   19.8689 C   0  0  2  0  0  0
  -28.7092  -13.0383   20.9835 C   0  0  0  0  0  0
  -25.2572  -13.8104   20.5753 C   0  0  0  0  0  0
  -24.1810  -13.0411   20.9221 C   0  0  0  0  0  0
  -24.6359  -11.6874   20.8798 C   0  0  0  0  0  0
  -23.9039  -10.4275   21.0436 C   0  0  0  0  0  0
  -24.3602   -9.4186   21.9202 C   0  0  0  0  0  0
  -23.6285   -8.2224   22.0755 C   0  0  0  0  0  0
  -22.4268   -8.0272   21.3539 C   0  0  0  0  0  0
  -21.9909   -9.0251   20.4645 C   0  0  0  0  0  0
  -22.7230  -10.2130   20.3064 C   0  0  0  0  0  0
  -21.6853   -6.0735   22.5292 C   0  0  0  0  0  0
  -21.4013   -6.5644   23.8224 C   0  0  0  0  0  0
  -21.3646   -5.6801   24.9189 C   0  0  0  0  0  0
  -21.6032   -4.3064   24.7246 C   0  0  0  0  0  0
  -21.8814   -3.8151   23.4370 C   0  0  0  0  0  0
  -21.9188   -4.6964   22.3422 C   0  0  0  0  0  0
  -22.7835  -13.5207   21.1880 C   0  0  0  0  0  0
  -22.1655   -4.2146   21.1001 F   0  0  0  0  0  0
  -21.5628   -3.4545   25.7757 F   0  0  0  0  0  0
  -30.0312  -13.2857   20.3901 N   0  0  0  0  0  0
  -26.2980  -12.9222   20.3459 N   0  0  0  0  0  0
  -25.9285  -11.6413   20.5884 N   0  0  0  0  0  0
  -22.0483  -12.8194   22.0430 N   0  0  0  0  0  0
  -25.4333  -15.1829   20.4160 N   0  0  0  0  0  0
  -31.9044  -14.5887   20.2478 O   0  0  0  0  0  0
  -21.6627   -6.8877   21.4252 O   0  0  0  0  0  0
  -22.3520  -14.5521   20.6739 O   0  0  0  0  0  0
  -24.6041  -31.8725   23.2115 C   0  0  0  0  0  0
  -25.8966  -32.4847   23.8408 C   0  0  1  0  0  0
  -27.2728  -27.5057   20.1202 C   0  0  0  0  0  0
  -25.5854  -33.8646   24.2350 N   0  0  0  0  0  0
  -23.3884  -30.4889   21.5504 C   0  0  2  0  0  0
  -24.8416  -28.9568   20.1181 C   0  0  0  0  0  0
  -22.7357  -29.4654   22.5044 C   0  0  0  0  0  0
  -18.0251  -28.1367   22.8501 C   0  0  0  0  0  0
  -24.1483  -36.7330   23.2639 C   0  0  0  0  0  0
  -25.9005  -30.8694   21.3437 C   0  0  0  0  0  0
  -25.9860  -29.5032   20.7045 C   0  0  0  0  0  0
  -27.1958  -28.7945   20.6959 C   0  0  0  0  0  0
  -26.1139  -26.9663   19.5196 C   0  0  0  0  0  0
  -24.8972  -27.6834   19.5190 C   0  0  0  0  0  0
  -23.5933  -29.8074   20.1675 C   0  0  0  0  0  0
  -25.4100  -36.3133   24.0344 C   0  0  1  0  0  0
  -20.5830  -28.3626   23.1363 C   0  0  2  0  0  0
  -20.6744  -26.9374   22.5442 C   0  0  0  0  0  0
  -19.5729  -26.6377   21.5226 C   0  0  0  0  0  0
  -18.1901  -26.7920   22.1623 C   0  0  0  0  0  0
  -19.1499  -28.8811   23.2931 C   0  0  0  0  0  0
  -18.9434  -30.1423   23.8928 C   0  0  0  0  0  0
  -17.6439  -30.6579   24.0558 C   0  0  0  0  0  0
  -25.9016  -34.9495   23.5147 C   0  0  0  0  0  0
  -16.5329  -29.9085   23.6316 C   0  0  0  0  0  0
  -16.7244  -28.6502   23.0343 C   0  0  0  0  0  0
  -26.4444  -31.6602   25.0702 C   0  0  0  0  0  0
  -25.3740  -31.3668   26.1470 C   0  0  0  0  0  0
  -27.0275  -30.3069   24.6002 C   0  0  0  0  0  0
  -27.6047  -32.4298   25.7455 C   0  0  0  0  0  0
  -27.5584  -37.1815   24.8459 C   0  0  0  0  0  0
  -21.4092  -29.3006   22.3785 N   0  0  0  0  0  0
  -26.4296  -37.3809   23.9404 N   0  0  0  0  0  0
  -24.6487  -31.0905   22.0961 N   0  0  0  0  0  0
  -23.4173  -28.8226   23.3072 O   0  0  0  0  0  0
  -28.4386  -26.7690   20.0860 O   0  0  0  0  0  0
  -26.5588  -34.8931   22.4712 O   0  0  0  0  0  0
  -23.5262  -32.1440   23.7569 O   0  0  0  0  0  0
  -29.4373  -17.2931   18.5622 C   0  0  0  0  0  0
  -29.5108  -21.4638   19.2672 C   0  0  0  0  0  0
  -29.2858  -25.8130   22.1778 C   0  0  0  0  0  0
  -30.7784  -26.4967   20.8199 C   0  0  0  0  0  0
  -29.6888  -15.8119   18.6909 C   0  0  0  0  0  0
  -29.6651  -20.0424   18.8042 C   0  0  0  0  0  0
  -30.0492  -16.8194   20.8079 C   0  0  0  0  0  0
  -30.4992  -25.1507   21.5014 C   0  0  2  0  0  0
  -30.2355  -17.8923   19.7162 C   0  0  2  0  0  0
  -30.5106  -21.5142   20.4071 C   0  0  2  0  0  0
  -29.3655  -26.9586   21.1671 C   0  0  1  0  0  0
  -30.3706  -20.1231   21.0798 C   0  0  2  0  0  0
  -31.3496  -19.0288   23.2145 C   0  0  0  0  0  0
  -32.8180  -19.0760   21.0938 C   0  0  0  0  0  0
  -30.2894  -23.9595   20.5795 C   0  0  0  0  0  0
  -31.6572  -19.7222   21.8741 C   0  0  0  0  0  0
  -29.8891  -15.5269   20.1228 N   0  0  0  0  0  0
  -29.7624  -19.2492   20.0370 N   0  0  0  0  0  0
  -30.2614  -22.6678   21.3001 N   0  3  0  0  0  0
  -31.4629  -12.3355   19.1235 H   0  0  0  0  0  0
  -30.3086  -11.2652   19.8779 H   0  0  0  0  0  0
  -29.6950  -11.5950   17.4904 H   0  0  0  0  0  0
  -29.6957  -13.3145   17.6626 H   0  0  0  0  0  0
  -27.7798  -11.2811   18.8319 H   0  0  0  0  0  0
  -27.3603  -12.6045   17.7842 H   0  0  0  0  0  0
  -27.6390  -14.2238   19.5530 H   0  0  0  0  0  0
  -28.6795  -12.0366   21.4149 H   0  0  0  0  0  0
  -28.5111  -13.7340   21.8016 H   0  0  0  0  0  0
  -25.2743   -9.5658   22.4783 H   0  0  0  0  0  0
  -23.9984   -7.4611   22.7473 H   0  0  0  0  0  0
  -21.0835   -8.8780   19.8955 H   0  0  0  0  0  0
  -22.3693  -10.9676   19.6176 H   0  0  0  0  0  0
  -21.2011   -7.6153   23.9713 H   0  0  0  0  0  0
  -21.1465   -6.0550   25.9085 H   0  0  0  0  0  0
  -22.0605   -2.7612   23.2892 H   0  0  0  0  0  0
  -22.4095  -11.9817   22.4747 H   0  0  0  0  0  0
  -21.1110  -13.1223   22.2675 H   0  0  0  0  0  0
  -24.6783  -15.8504   20.5302 H   0  0  0  0  0  0
  -26.3043  -15.6151   20.1356 H   0  0  0  0  0  0
  -26.7053  -32.5625   23.1211 H   0  0  0  0  0  0
  -25.0006  -33.9810   25.0499 H   0  0  0  0  0  0
  -22.6719  -31.3006   21.4089 H   0  0  0  0  0  0
  -23.3740  -35.9668   23.3312 H   0  0  0  0  0  0
  -24.3588  -36.8935   22.2050 H   0  0  0  0  0  0
  -23.7232  -37.6538   23.6646 H   0  0  0  0  0  0
  -25.9884  -31.6326   20.5688 H   0  0  0  0  0  0
  -26.7949  -30.9417   21.9501 H   0  0  0  0  0  0
  -28.0550  -29.2929   21.1127 H   0  0  0  0  0  0
  -26.1563  -25.9895   19.0584 H   0  0  0  0  0  0
  -24.0187  -27.2506   19.0603 H   0  0  0  0  0  0
  -23.6840  -30.5755   19.3987 H   0  0  0  0  0  0
  -22.7244  -29.2105   19.8837 H   0  0  0  0  0  0
  -25.1275  -36.2020   25.0840 H   0  0  0  0  0  0
  -20.9907  -28.3187   24.1487 H   0  0  0  0  0  0
  -20.5646  -26.2228   23.3617 H   0  0  0  0  0  0
  -21.6623  -26.7436   22.1238 H   0  0  0  0  0  0
  -19.6889  -25.6301   21.1226 H   0  0  0  0  0  0
  -19.6668  -27.3212   20.6778 H   0  0  0  0  0  0
  -17.4178  -26.6675   21.4017 H   0  0  0  0  0  0
  -18.0280  -26.0063   22.9013 H   0  0  0  0  0  0
  -19.7909  -30.7227   24.2326 H   0  0  0  0  0  0
  -17.4994  -31.6263   24.5156 H   0  0  0  0  0  0
  -15.5333  -30.2993   23.7620 H   0  0  0  0  0  0
  -15.8646  -28.0825   22.7044 H   0  0  0  0  0  0
  -24.5899  -30.7034   25.7803 H   0  0  0  0  0  0
  -24.8938  -32.2804   26.4982 H   0  0  0  0  0  0
  -25.8115  -30.8788   27.0188 H   0  0  0  0  0  0
  -26.2790  -29.6831   24.1097 H   0  0  0  0  0  0
  -27.4134  -29.7297   25.4417 H   0  0  0  0  0  0
  -27.8579  -30.4431   23.9066 H   0  0  0  0  0  0
  -27.2691  -33.3573   26.2108 H   0  0  0  0  0  0
  -28.3816  -32.6893   25.0250 H   0  0  0  0  0  0
  -28.0763  -31.8372   26.5309 H   0  0  0  0  0  0
  -28.2606  -38.0110   24.7529 H   0  0  0  0  0  0
  -28.1075  -36.2649   24.6260 H   0  0  0  0  0  0
  -27.2305  -37.1437   25.8861 H   0  0  0  0  0  0
  -20.9242  -29.8726   21.7012 H   0  0  0  0  0  0
  -26.0197  -38.2893   24.1414 H   0  0  0  0  0  0
  -28.3695  -17.4872   18.6817 H   0  0  0  0  0  0
  -29.7407  -17.6590   17.5794 H   0  0  0  0  0  0
  -28.4908  -21.6372   19.6158 H   0  0  0  0  0  0
  -29.7307  -22.1741   18.4693 H   0  0  0  0  0  0
  -29.4956  -26.1484   23.1939 H   0  0  0  0  0  0
  -28.3568  -25.2416   22.1348 H   0  0  0  0  0  0
  -30.9828  -26.4408   19.7497 H   0  0  0  0  0  0
  -31.5476  -27.0765   21.3332 H   0  0  0  0  0  0
  -30.5799  -15.5528   18.1131 H   0  0  0  0  0  0
  -28.8615  -15.2703   18.2431 H   0  0  0  0  0  0
  -30.5814  -19.9465   18.2164 H   0  0  0  0  0  0
  -28.8236  -19.7530   18.1717 H   0  0  0  0  0  0
  -29.1546  -17.0083   21.4028 H   0  0  0  0  0  0
  -30.9006  -16.7853   21.4842 H   0  0  0  0  0  0
  -31.2901  -24.9605   22.2295 H   0  0  0  0  0  0
  -31.2748  -17.9227   19.3894 H   0  0  0  0  0  0
  -31.5152  -21.6033   19.9883 H   0  0  0  0  0  0
  -29.4073  -27.9289   21.6543 H   0  0  0  0  0  0
  -29.5734  -20.2179   21.8194 H   0  0  0  0  0  0
  -30.7800  -19.6923   23.8658 H   0  0  0  0  0  0
  -32.2650  -18.7670   23.7464 H   0  0  0  0  0  0
  -30.7556  -18.1260   23.1097 H   0  0  0  0  0  0
  -32.9392  -19.5227   20.1066 H   0  0  0  0  0  0
  -32.7080  -18.0000   20.9770 H   0  0  0  0  0  0
  -33.7579  -19.2221   21.6255 H   0  0  0  0  0  0
  -31.0947  -23.9366   19.8430 H   0  0  0  0  0  0
  -29.3645  -24.0814   20.0133 H   0  0  0  0  0  0
  -32.0860  -20.6708   22.1995 H   0  0  0  0  0  0
  -30.9803  -22.6779   22.0056 H   0  0  0  0  0  0
  -29.3747  -22.5607   21.7665 H   0  0  0  0  0  0
  1 25  1  0  0  0
  1 30  2  0  0  0
  1 87  1  0  0  0
  2  3  1  0  0  0
  2 25  1  0  0  0
  2 90  1  0  0  0
  2 91  1  0  0  0
  3  4  1  0  0  0
  3 92  1  0  0  0
  3 93  1  0  0  0
  4  5  1  0  0  0
  4 94  1  0  0  0
  4 95  1  0  0  0
  5  6  1  0  0  0
  5 26  1  0  0  0
  5 96  1  0  0  0
  6 25  1  0  0  0
  6 97  1  0  0  0
  6 98  1  0  0  0
  7  8  2  0  0  0
  7 26  1  0  0  0
  7 29  1  0  0  0
  8  9  1  0  0  0
  8 22  1  0  0  0
  9 10  1  0  0  0
  9 27  2  0  0  0
 10 11  2  0  0  0
 10 15  1  0  0  0
 11 12  1  0  0  0
 11 99  1  0  0  0
 12 13  2  0  0  0
 12100  1  0  0  0
 13 14  1  0  0  0
 13 31  1  0  0  0
 14 15  2  0  0  0
 14101  1  0  0  0
 15102  1  0  0  0
 16 17  2  0  0  0
 16 21  1  0  0  0
 16 31  1  0  0  0
 17 18  1  0  0  0
 17103  1  0  0  0
 18 19  2  0  0  0
 18104  1  0  0  0
 19 20  1  0  0  0
 19 24  1  0  0  0
 20 21  2  0  0  0
 20105  1  0  0  0
 21 23  1  0  0  0
 22 28  1  0  0  0
 22 32  2  0  0  0
 26 27  1  0  0  0
 28106  1  0  0  0
 28107  1  0  0  0
 29108  1  0  0  0
 29109  1  0  0  0
 33 34  1  0  0  0
 33 66  1  0  0  0
 33 70  2  0  0  0
 34 36  1  0  0  0
 34 59  1  0  0  0
 34110  1  0  0  0
 35 44  2  0  0  0
 35 45  1  0  0  0
 35 68  1  0  0  0
 36 56  1  0  0  0
 36111  1  0  0  0
 37 39  1  0  0  0
 37 47  1  0  0  0
 37 66  1  0  0  0
 37112  1  0  0  0
 38 43  2  0  0  0
 38 46  1  0  0  0
 38 47  1  0  0  0
 39 64  1  0  0  0
 39 67  2  0  0  0
 40 52  1  0  0  0
 40 53  2  0  0  0
 40 58  1  0  0  0
 41113  1  0  0  0
 41114  1  0  0  0
 41115  1  0  0  0
 41 48  1  0  0  0
 42 43  1  0  0  0
 42 66  1  0  0  0
 42116  1  0  0  0
 42117  1  0  0  0
 43 44  1  0  0  0
 44118  1  0  0  0
 45 46  2  0  0  0
 45119  1  0  0  0
 46120  1  0  0  0
 47121  1  0  0  0
 47122  1  0  0  0
 48 56  1  0  0  0
 48 65  1  0  0  0
 48123  1  0  0  0
 49 50  1  0  0  0
 49 53  1  0  0  0
 49 64  1  0  0  0
 49124  1  0  0  0
 50 51  1  0  0  0
 50125  1  0  0  0
 50126  1  0  0  0
 51 52  1  0  0  0
 51127  1  0  0  0
 51128  1  0  0  0
 52129  1  0  0  0
 52130  1  0  0  0
 53 54  1  0  0  0
 54 55  2  0  0  0
 54131  1  0  0  0
 55 57  1  0  0  0
 55132  1  0  0  0
 56 69  2  0  0  0
 57 58  2  0  0  0
 57133  1  0  0  0
 58134  1  0  0  0
 59 60  1  0  0  0
 59 61  1  0  0  0
 59 62  1  0  0  0
 60135  1  0  0  0
 60136  1  0  0  0
 60137  1  0  0  0
 61138  1  0  0  0
 61139  1  0  0  0
 61140  1  0  0  0
 62141  1  0  0  0
 62142  1  0  0  0
 62143  1  0  0  0
 63 65  1  0  0  0
 63144  1  0  0  0
 63145  1  0  0  0
 63146  1  0  0  0
 64147  1  0  0  0
 65148  1  0  0  0
 68 81  1  0  0  0
 71 75  1  0  0  0
 71 79  1  0  0  0
 71149  1  0  0  0
 71150  1  0  0  0
 72 76  1  0  0  0
 72 80  1  0  0  0
 72151  1  0  0  0
 72152  1  0  0  0
 73 78  1  0  0  0
 73 81  1  0  0  0
 73153  1  0  0  0
 73154  1  0  0  0
 74 78  1  0  0  0
 74 81  1  0  0  0
 74155  1  0  0  0
 74156  1  0  0  0
 75 87  1  0  0  0
 75157  1  0  0  0
 75158  1  0  0  0
 76159  1  0  0  0
 76160  1  0  0  0
 76 88  1  0  0  0
 77 79  1  0  0  0
 77 87  1  0  0  0
 77161  1  0  0  0
 77162  1  0  0  0
 78 85  1  0  0  0
 78163  1  0  0  0
 79 88  1  0  0  0
 79164  1  0  0  0
 80 82  1  0  0  0
 80 89  1  0  0  0
 80165  1  0  0  0
 81166  1  0  0  0
 82 86  1  0  0  0
 82 88  1  0  0  0
 82167  1  0  0  0
 83168  1  0  0  0
 83169  1  0  0  0
 83170  1  0  0  0
 83 86  1  0  0  0
 84 86  1  0  0  0
 84171  1  0  0  0
 84172  1  0  0  0
 84173  1  0  0  0
 85 89  1  0  0  0
 85174  1  0  0  0
 85175  1  0  0  0
 86176  1  0  0  0
 89177  1  0  0  0
 89178  1  0  0  0
M  CHG  1  89   1
M  ISO  4   1 100  68 101  81 101  87 100
M  END
> <chiral flag>
0

> <version>
0

> <s_m_source_file>
/data/baiqing/PycharmProjects/Reinvent-master-3.2/result/LINK_invent/BTK/process_docking_weight1_custom_sum_contain_oxygen_bond_distance_aromatic_linkinvent_7_9_3/rearranged_h_0197.sdf

> <i_m_source_file_index>
32

> <r_mmod_Potential_Energy-OPLS-2005>
193.634674072266

> <r_mmod_Stretch_Energy-OPLS-2005>
40.1226768493652

> <r_mmod_Bend_Energy-OPLS-2005>
200.972640991211

> <r_mmod_Torsional_Energy-OPLS-2005>
481.731903076172

> <r_mmod_Improper_Torsional_Energy-OPLS-2005>
18.0319919586182

> <r_mmod_Van_der_Waal_Energy-OPLS-2005>
147.491180419922

> <r_mmod_Electrostatic_Energy-OPLS-2005>
-290.701507568359

> <r_mmod_Solvation_Energy-OPLS-2005>
-429.013397216797

> <b_mmod_Minimization_Converged-OPLS-2005>
0

> <r_mmod_RMS_Derivative-OPLS-2005>
1.61186635494232

$$$$
32
                    3D
 Structure written by MMmdl.
172181  0  0  1  0            999 V2000
  -30.6701  -14.4876   20.5282 C   0  0  0  0  0  0
  -30.4237  -12.3001   19.4241 C   0  0  0  0  0  0
  -29.4947  -12.4977   18.2072 C   0  0  0  0  0  0
  -28.0135  -12.3592   18.6167 C   0  0  0  0  0  0
  -27.6574  -13.2025   19.8700 C   0  0  2  0  0  0
  -28.7002  -12.9985   20.9925 C   0  0  0  0  0  0
  -25.2598  -13.8146   20.5711 C   0  0  0  0  0  0
  -24.1830  -13.0426   20.9168 C   0  0  0  0  0  0
  -24.6368  -11.6888   20.8715 C   0  0  0  0  0  0
  -23.9029  -10.4279   21.0381 C   0  0  0  0  0  0
  -24.3591   -9.4202   21.9165 C   0  0  0  0  0  0
  -23.6277   -8.2231   22.0747 C   0  0  0  0  0  0
  -22.4265   -8.0258   21.3533 C   0  0  0  0  0  0
  -21.9885   -9.0222   20.4639 C   0  0  0  0  0  0
  -22.7196  -10.2102   20.3042 C   0  0  0  0  0  0
  -21.6844   -6.0709   22.5271 C   0  0  0  0  0  0
  -21.4001   -6.5626   23.8200 C   0  0  0  0  0  0
  -21.3669   -5.6784   24.9166 C   0  0  0  0  0  0
  -21.6059   -4.3046   24.7228 C   0  0  0  0  0  0
  -21.8819   -3.8126   23.4349 C   0  0  0  0  0  0
  -21.9187   -4.6935   22.3396 C   0  0  0  0  0  0
  -22.7861  -13.5228   21.1841 C   0  0  0  0  0  0
  -22.1664   -4.2120   21.0974 F   0  0  0  0  0  0
  -21.5642   -3.4535   25.7746 F   0  0  0  0  0  0
  -30.0279  -13.2950   20.4320 N   0  0  0  0  0  0
  -26.3002  -12.9293   20.3346 N   0  0  0  0  0  0
  -25.9285  -11.6465   20.5738 N   0  0  0  0  0  0
  -22.0515  -12.8202   22.0395 N   0  0  0  0  0  0
  -25.4396  -15.1865   20.4213 N   0  0  0  0  0  0
  -31.8416  -14.6505   20.1708 O   0  0  0  0  0  0
  -21.6639   -6.8848   21.4234 O   0  0  0  0  0  0
  -22.3549  -14.5536   20.6694 O   0  0  0  0  0  0
  -24.6163  -31.8677   23.2092 C   0  0  0  0  0  0
  -25.9057  -32.4808   23.8399 C   0  0  1  0  0  0
  -27.2324  -27.4286   20.1097 C   0  0  0  0  0  0
  -25.5919  -33.8612   24.2325 N   0  0  0  0  0  0
  -23.4021  -30.4909   21.5512 C   0  0  2  0  0  0
  -24.8501  -28.9504   20.1222 C   0  0  0  0  0  0
  -22.7405  -29.4652   22.5004 C   0  0  0  0  0  0
  -18.0280  -28.1382   22.8494 C   0  0  0  0  0  0
  -24.1485  -36.7302   23.2638 C   0  0  0  0  0  0
  -25.9340  -30.8331   21.3616 C   0  0  0  0  0  0
  -26.0119  -29.4646   20.7146 C   0  0  0  0  0  0
  -27.2088  -28.7122   20.7039 C   0  0  0  0  0  0
  -26.0585  -26.9294   19.5114 C   0  0  0  0  0  0
  -24.8685  -27.6790   19.5216 C   0  0  0  0  0  0
  -23.6116  -29.8183   20.1674 C   0  0  0  0  0  0
  -25.4109  -36.3103   24.0336 C   0  0  1  0  0  0
  -20.5865  -28.3659   23.1333 C   0  0  2  0  0  0
  -20.6763  -26.9396   22.5427 C   0  0  0  0  0  0
  -19.5745  -26.6382   21.5220 C   0  0  0  0  0  0
  -18.1923  -26.7932   22.1628 C   0  0  0  0  0  0
  -19.1524  -28.8842   23.2898 C   0  0  0  0  0  0
  -18.9460  -30.1459   23.8893 C   0  0  0  0  0  0
  -17.6456  -30.6585   24.0563 C   0  0  0  0  0  0
  -25.9052  -34.9473   23.5127 C   0  0  0  0  0  0
  -16.5341  -29.9093   23.6335 C   0  0  0  0  0  0
  -16.7265  -28.6509   23.0352 C   0  0  0  0  0  0
  -26.4493  -31.6591   25.0730 C   0  0  0  0  0  0
  -25.3760  -31.3706   26.1480 C   0  0  0  0  0  0
  -27.0308  -30.3016   24.6114 C   0  0  0  0  0  0
  -27.6076  -32.4305   25.7480 C   0  0  0  0  0  0
  -27.5576  -37.1809   24.8475 C   0  0  0  0  0  0
  -21.4131  -29.3017   22.3731 N   0  0  0  0  0  0
  -26.4289  -37.3792   23.9420 N   0  0  0  0  0  0
  -24.6685  -31.0797   22.0978 N   0  0  0  0  0  0
  -23.4158  -28.8178   23.3048 O   0  0  0  0  0  0
  -28.3810  -26.6700   20.0716 O   0  0  0  0  0  0
  -26.5611  -34.8931   22.4694 O   0  0  0  0  0  0
  -23.5360  -32.1414   23.7506 O   0  0  0  0  0  0
  -32.2789  -18.5183   21.6370 C   0  0  0  0  0  0
  -30.4508  -20.1229   20.8532 C   0  0  0  0  0  0
  -29.8117  -16.6413   19.7233 C   0  0  0  0  0  0
  -29.9933  -16.5097   21.8178 C   0  0  0  0  0  0
  -28.7149  -18.6623   20.9775 C   0  0  0  0  0  0
  -31.0773  -18.7252   20.6946 C   0  0  2  0  0  0
  -29.9160  -17.7036   20.8300 C   0  0  0  0  0  0
  -28.7514  -21.8198   18.1857 C   0  0  0  0  0  0
  -34.6242  -17.7395   21.8207 C   0  0  0  0  0  0
  -28.1618  -21.0235   20.5908 C   0  0  0  0  0  0
  -27.9753  -24.3331   20.9126 C   0  0  0  0  0  0
  -28.5510  -25.7557   21.1686 C   0  0  0  0  0  0
  -28.1928  -22.2112   19.5673 C   0  0  1  0  0  0
  -29.8514  -15.5540   20.7121 N   0  0  0  0  0  0
  -29.1063  -19.9206   20.3330 N   0  0  0  0  0  0
  -33.3844  -17.9933   21.0987 N   0  0  0  0  0  0
  -28.8416  -23.4575   20.0688 N   0  3  0  0  0  0
  -32.2111  -18.8241   22.8298 O   0  0  0  0  0  0
  -31.4690  -12.4019   19.1258 H   0  0  0  0  0  0
  -30.3244  -11.2908   19.8290 H   0  0  0  0  0  0
  -29.7357  -11.7761   17.4264 H   0  0  0  0  0  0
  -29.6611  -13.4846   17.7707 H   0  0  0  0  0  0
  -27.8223  -11.3039   18.8140 H   0  0  0  0  0  0
  -27.3642  -12.6328   17.7843 H   0  0  0  0  0  0
  -27.6898  -14.2470   19.5607 H   0  0  0  0  0  0
  -28.6756  -11.9711   21.3597 H   0  0  0  0  0  0
  -28.4741  -13.6344   21.8509 H   0  0  0  0  0  0
  -25.2725   -9.5685   22.4740 H   0  0  0  0  0  0
  -23.9986   -7.4626   22.7464 H   0  0  0  0  0  0
  -21.0811   -8.8718   19.8955 H   0  0  0  0  0  0
  -22.3633  -10.9635   19.6160 H   0  0  0  0  0  0
  -21.1988   -7.6140   23.9686 H   0  0  0  0  0  0
  -21.1505   -6.0525   25.9068 H   0  0  0  0  0  0
  -22.0596   -2.7591   23.2848 H   0  0  0  0  0  0
  -22.4115  -11.9837   22.4741 H   0  0  0  0  0  0
  -21.1144  -13.1244   22.2642 H   0  0  0  0  0  0
  -24.6925  -15.8577   20.5588 H   0  0  0  0  0  0
  -26.3208  -15.6157   20.1686 H   0  0  0  0  0  0
  -26.7137  -32.5514   23.1180 H   0  0  0  0  0  0
  -25.0105  -33.9795   25.0490 H   0  0  0  0  0  0
  -22.6913  -31.3077   21.4091 H   0  0  0  0  0  0
  -23.3757  -35.9624   23.3295 H   0  0  0  0  0  0
  -24.3586  -36.8914   22.2053 H   0  0  0  0  0  0
  -23.7233  -37.6507   23.6657 H   0  0  0  0  0  0
  -26.0494  -31.5940   20.5888 H   0  0  0  0  0  0
  -26.8210  -30.8882   21.9806 H   0  0  0  0  0  0
  -28.1076  -29.1125   21.1534 H   0  0  0  0  0  0
  -26.0633  -25.9577   19.0386 H   0  0  0  0  0  0
  -23.9745  -27.2744   19.0678 H   0  0  0  0  0  0
  -23.7203  -30.5905   19.4053 H   0  0  0  0  0  0
  -22.7365  -29.2356   19.8695 H   0  0  0  0  0  0
  -25.1280  -36.1964   25.0822 H   0  0  0  0  0  0
  -20.9964  -28.3235   24.1451 H   0  0  0  0  0  0
  -20.5677  -26.2265   23.3615 H   0  0  0  0  0  0
  -21.6639  -26.7454   22.1207 H   0  0  0  0  0  0
  -19.6895  -25.6294   21.1244 H   0  0  0  0  0  0
  -19.6696  -27.3208   20.6763 H   0  0  0  0  0  0
  -17.4201  -26.6703   21.4015 H   0  0  0  0  0  0
  -18.0297  -26.0058   22.9001 H   0  0  0  0  0  0
  -19.7934  -30.7281   24.2236 H   0  0  0  0  0  0
  -17.5020  -31.6262   24.5175 H   0  0  0  0  0  0
  -15.5346  -30.3002   23.7673 H   0  0  0  0  0  0
  -15.8653  -28.0839   22.7069 H   0  0  0  0  0  0
  -24.5960  -30.7008   25.7843 H   0  0  0  0  0  0
  -24.8931  -32.2864   26.4892 H   0  0  0  0  0  0
  -25.8127  -30.8926   27.0255 H   0  0  0  0  0  0
  -26.2845  -29.6794   24.1156 H   0  0  0  0  0  0
  -27.4044  -29.7239   25.4587 H   0  0  0  0  0  0
  -27.8701  -30.4305   23.9271 H   0  0  0  0  0  0
  -27.2711  -33.3632   26.2013 H   0  0  0  0  0  0
  -28.3914  -32.6804   25.0316 H   0  0  0  0  0  0
  -28.0705  -31.8443   26.5432 H   0  0  0  0  0  0
  -28.2605  -38.0092   24.7521 H   0  0  0  0  0  0
  -28.1050  -36.2633   24.6293 H   0  0  0  0  0  0
  -27.2295  -37.1444   25.8874 H   0  0  0  0  0  0
  -20.9302  -29.8711   21.6927 H   0  0  0  0  0  0
  -26.0167  -38.2864   24.1422 H   0  0  0  0  0  0
  -31.0012  -20.8811   20.2952 H   0  0  0  0  0  0
  -30.4152  -20.4261   21.9023 H   0  0  0  0  0  0
  -30.6503  -16.6534   19.0245 H   0  0  0  0  0  0
  -28.8748  -16.6846   19.1656 H   0  0  0  0  0  0
  -29.1520  -16.4828   22.5119 H   0  0  0  0  0  0
  -30.9215  -16.3936   22.3782 H   0  0  0  0  0  0
  -28.4948  -18.8372   22.0335 H   0  0  0  0  0  0
  -27.8059  -18.2619   20.5242 H   0  0  0  0  0  0
  -31.4622  -18.6832   19.6742 H   0  0  0  0  0  0
  -28.2004  -20.9755   17.7730 H   0  0  0  0  0  0
  -29.8019  -21.5328   18.2335 H   0  0  0  0  0  0
  -28.6603  -22.6370   17.4717 H   0  0  0  0  0  0
  -35.3716  -17.3234   21.1434 H   0  0  0  0  0  0
  -34.4685  -17.0298   22.6349 H   0  0  0  0  0  0
  -35.0278  -18.6638   22.2382 H   0  0  0  0  0  0
  -27.1652  -20.5877   20.5016 H   0  0  0  0  0  0
  -28.2213  -21.3718   21.6239 H   0  0  0  0  0  0
  -26.9766  -24.4116   20.4868 H   0  0  0  0  0  0
  -27.8475  -23.8331   21.8722 H   0  0  0  0  0  0
  -29.6129  -25.6904   21.4077 H   0  0  0  0  0  0
  -28.0786  -26.1737   22.0606 H   0  0  0  0  0  0
  -27.1506  -22.4730   19.3779 H   0  0  0  0  0  0
  -33.3574  -17.7324   20.1215 H   0  0  0  0  0  0
  -29.6983  -23.2270   20.5475 H   0  0  0  0  0  0
  -29.0938  -24.0020   19.2579 H   0  0  0  0  0  0
  1 25  1  0  0  0
  1 30  2  0  0  0
  1 84  1  0  0  0
  2  3  1  0  0  0
  2 25  1  0  0  0
  2 89  1  0  0  0
  2 90  1  0  0  0
  3  4  1  0  0  0
  3 91  1  0  0  0
  3 92  1  0  0  0
  4  5  1  0  0  0
  4 93  1  0  0  0
  4 94  1  0  0  0
  5  6  1  0  0  0
  5 26  1  0  0  0
  5 95  1  0  0  0
  6 25  1  0  0  0
  6 96  1  0  0  0
  6 97  1  0  0  0
  7  8  2  0  0  0
  7 26  1  0  0  0
  7 29  1  0  0  0
  8  9  1  0  0  0
  8 22  1  0  0  0
  9 10  1  0  0  0
  9 27  2  0  0  0
 10 11  2  0  0  0
 10 15  1  0  0  0
 11 12  1  0  0  0
 11 98  1  0  0  0
 12 13  2  0  0  0
 12 99  1  0  0  0
 13 14  1  0  0  0
 13 31  1  0  0  0
 14 15  2  0  0  0
 14100  1  0  0  0
 15101  1  0  0  0
 16 17  2  0  0  0
 16 21  1  0  0  0
 16 31  1  0  0  0
 17 18  1  0  0  0
 17102  1  0  0  0
 18 19  2  0  0  0
 18103  1  0  0  0
 19 20  1  0  0  0
 19 24  1  0  0  0
 20 21  2  0  0  0
 20104  1  0  0  0
 21 23  1  0  0  0
 22 28  1  0  0  0
 22 32  2  0  0  0
 26 27  1  0  0  0
 28105  1  0  0  0
 28106  1  0  0  0
 29107  1  0  0  0
 29108  1  0  0  0
 33 34  1  0  0  0
 33 66  1  0  0  0
 33 70  2  0  0  0
 34 36  1  0  0  0
 34 59  1  0  0  0
 34109  1  0  0  0
 35 44  2  0  0  0
 35 45  1  0  0  0
 35 68  1  0  0  0
 36 56  1  0  0  0
 36110  1  0  0  0
 37 39  1  0  0  0
 37 47  1  0  0  0
 37 66  1  0  0  0
 37111  1  0  0  0
 38 43  2  0  0  0
 38 46  1  0  0  0
 38 47  1  0  0  0
 39 64  1  0  0  0
 39 67  2  0  0  0
 40 52  1  0  0  0
 40 53  2  0  0  0
 40 58  1  0  0  0
 41112  1  0  0  0
 41113  1  0  0  0
 41114  1  0  0  0
 41 48  1  0  0  0
 42 43  1  0  0  0
 42 66  1  0  0  0
 42115  1  0  0  0
 42116  1  0  0  0
 43 44  1  0  0  0
 44117  1  0  0  0
 45 46  2  0  0  0
 45118  1  0  0  0
 46119  1  0  0  0
 47120  1  0  0  0
 47121  1  0  0  0
 48 56  1  0  0  0
 48 65  1  0  0  0
 48122  1  0  0  0
 49 50  1  0  0  0
 49 53  1  0  0  0
 49 64  1  0  0  0
 49123  1  0  0  0
 50 51  1  0  0  0
 50124  1  0  0  0
 50125  1  0  0  0
 51 52  1  0  0  0
 51126  1  0  0  0
 51127  1  0  0  0
 52128  1  0  0  0
 52129  1  0  0  0
 53 54  1  0  0  0
 54 55  2  0  0  0
 54130  1  0  0  0
 55 57  1  0  0  0
 55131  1  0  0  0
 56 69  2  0  0  0
 57 58  2  0  0  0
 57132  1  0  0  0
 58133  1  0  0  0
 59 60  1  0  0  0
 59 61  1  0  0  0
 59 62  1  0  0  0
 60134  1  0  0  0
 60135  1  0  0  0
 60136  1  0  0  0
 61137  1  0  0  0
 61138  1  0  0  0
 61139  1  0  0  0
 62140  1  0  0  0
 62141  1  0  0  0
 62142  1  0  0  0
 63 65  1  0  0  0
 63143  1  0  0  0
 63144  1  0  0  0
 63145  1  0  0  0
 64146  1  0  0  0
 65147  1  0  0  0
 68 82  1  0  0  0
 71 86  1  0  0  0
 71 88  2  0  0  0
 71 76  1  0  0  0
 72 76  1  0  0  0
 72 85  1  0  0  0
 72148  1  0  0  0
 72149  1  0  0  0
 73 84  1  0  0  0
 73150  1  0  0  0
 73151  1  0  0  0
 73 77  1  0  0  0
 74 77  1  0  0  0
 74 84  1  0  0  0
 74152  1  0  0  0
 74153  1  0  0  0
 75 77  1  0  0  0
 75 85  1  0  0  0
 75154  1  0  0  0
 75155  1  0  0  0
 76 77  1  0  0  0
 76156  1  0  0  0
 78157  1  0  0  0
 78158  1  0  0  0
 78159  1  0  0  0
 78 83  1  0  0  0
 79 86  1  0  0  0
 79160  1  0  0  0
 79161  1  0  0  0
 79162  1  0  0  0
 80 83  1  0  0  0
 80 85  1  0  0  0
 80163  1  0  0  0
 80164  1  0  0  0
 81 82  1  0  0  0
 81 87  1  0  0  0
 81165  1  0  0  0
 81166  1  0  0  0
 82167  1  0  0  0
 82168  1  0  0  0
 83 87  1  0  0  0
 83169  1  0  0  0
 86170  1  0  0  0
 87171  1  0  0  0
 87172  1  0  0  0
M  CHG  1  87   1
M  ISO  4   1 100  68 101  82 101  84 100
M  END
> <chiral flag>
0

> <version>
0

> <s_m_source_file>
/data/baiqing/PycharmProjects/Reinvent-master-3.2/result/LINK_invent/BTK/process_docking_weight1_custom_sum_contain_oxygen_bond_distance_aromatic_linkinvent_7_9_3/rearranged_h_0197.sdf

> <i_m_source_file_index>
33

> <r_mmod_Potential_Energy-OPLS-2005>
52.2484397888184

> <r_mmod_Stretch_Energy-OPLS-2005>
41.8170318603516

> <r_mmod_Bend_Energy-OPLS-2005>
140.055969238281

> <r_mmod_Torsional_Energy-OPLS-2005>
397.673645019531

> <r_mmod_Improper_Torsional_Energy-OPLS-2005>
15.2825603485107

> <r_mmod_Van_der_Waal_Energy-OPLS-2005>
123.571067810059

> <r_mmod_Electrostatic_Energy-OPLS-2005>
-232.173049926758

> <r_mmod_Solvation_Energy-OPLS-2005>
-449.802307128906

> <b_mmod_Minimization_Converged-OPLS-2005>
0

> <r_mmod_RMS_Derivative-OPLS-2005>
2.87658143043518

$$$$
33
                    3D
 Structure written by MMmdl.
158167  0  0  1  0            999 V2000
  -30.7222  -14.4335   20.5526 C   0  0  0  0  0  0
  -30.4142  -12.2732   19.4249 C   0  0  0  0  0  0
  -29.4937  -12.4862   18.2059 C   0  0  0  0  0  0
  -28.0117  -12.3658   18.6144 C   0  0  0  0  0  0
  -27.6605  -13.2076   19.8722 C   0  0  2  0  0  0
  -28.7018  -12.9950   20.9945 C   0  0  0  0  0  0
  -25.2571  -13.8158   20.5677 C   0  0  0  0  0  0
  -24.1822  -13.0428   20.9164 C   0  0  0  0  0  0
  -24.6388  -11.6899   20.8726 C   0  0  0  0  0  0
  -23.9062  -10.4284   21.0399 C   0  0  0  0  0  0
  -24.3615   -9.4196   21.9175 C   0  0  0  0  0  0
  -23.6290   -8.2232   22.0757 C   0  0  0  0  0  0
  -22.4264   -8.0277   21.3550 C   0  0  0  0  0  0
  -21.9886   -9.0256   20.4657 C   0  0  0  0  0  0
  -22.7221  -10.2134   20.3060 C   0  0  0  0  0  0
  -21.6848   -6.0734   22.5285 C   0  0  0  0  0  0
  -21.4015   -6.5638   23.8219 C   0  0  0  0  0  0
  -21.3659   -5.6794   24.9181 C   0  0  0  0  0  0
  -21.6041   -4.3055   24.7233 C   0  0  0  0  0  0
  -21.8811   -3.8143   23.4354 C   0  0  0  0  0  0
  -21.9183   -4.6959   22.3407 C   0  0  0  0  0  0
  -22.7843  -13.5232   21.1820 C   0  0  0  0  0  0
  -22.1646   -4.2140   21.0986 F   0  0  0  0  0  0
  -21.5629   -3.4545   25.7751 F   0  0  0  0  0  0
  -30.0344  -13.2691   20.4348 N   0  0  0  0  0  0
  -26.3019  -12.9339   20.3366 N   0  0  0  0  0  0
  -25.9317  -11.6498   20.5766 N   0  0  0  0  0  0
  -22.0468  -12.8264   22.0392 N   0  0  0  0  0  0
  -25.4273  -15.1880   20.4106 N   0  0  0  0  0  0
  -31.8769  -14.5795   20.1441 O   0  0  0  0  0  0
  -21.6629   -6.8877   21.4247 O   0  0  0  0  0  0
  -22.3539  -14.5534   20.6655 O   0  0  0  0  0  0
  -24.6119  -31.8708   23.2114 C   0  0  0  0  0  0
  -25.9023  -32.4839   23.8397 C   0  0  1  0  0  0
  -27.2402  -27.4577   20.0769 C   0  0  0  0  0  0
  -25.5888  -33.8637   24.2336 N   0  0  0  0  0  0
  -23.3984  -30.4958   21.5521 C   0  0  2  0  0  0
  -24.8439  -28.9639   20.1157 C   0  0  0  0  0  0
  -22.7389  -29.4687   22.4994 C   0  0  0  0  0  0
  -18.0275  -28.1379   22.8492 C   0  0  0  0  0  0
  -24.1486  -36.7321   23.2637 C   0  0  0  0  0  0
  -25.9261  -30.8377   21.3659 C   0  0  0  0  0  0
  -26.0010  -29.4732   20.7155 C   0  0  0  0  0  0
  -27.1957  -28.7211   20.7059 C   0  0  0  0  0  0
  -26.0567  -26.9558   19.4796 C   0  0  0  0  0  0
  -24.8645  -27.7006   19.5022 C   0  0  0  0  0  0
  -23.6056  -29.8285   20.1662 C   0  0  0  0  0  0
  -25.4109  -36.3125   24.0336 C   0  0  1  0  0  0
  -20.5861  -28.3664   23.1317 C   0  0  2  0  0  0
  -20.6768  -26.9402   22.5418 C   0  0  0  0  0  0
  -19.5757  -26.6388   21.5204 C   0  0  0  0  0  0
  -18.1930  -26.7927   22.1613 C   0  0  0  0  0  0
  -19.1523  -28.8837   23.2903 C   0  0  0  0  0  0
  -18.9454  -30.1441   23.8919 C   0  0  0  0  0  0
  -17.6460  -30.6584   24.0570 C   0  0  0  0  0  0
  -25.9035  -34.9486   23.5136 C   0  0  0  0  0  0
  -16.5350  -29.9091   23.6326 C   0  0  0  0  0  0
  -16.7265  -28.6506   23.0344 C   0  0  0  0  0  0
  -26.4461  -31.6610   25.0718 C   0  0  0  0  0  0
  -25.3727  -31.3711   26.1464 C   0  0  0  0  0  0
  -27.0295  -30.3058   24.6083 C   0  0  0  0  0  0
  -27.6050  -32.4320   25.7473 C   0  0  0  0  0  0
  -27.5586  -37.1818   24.8464 C   0  0  0  0  0  0
  -21.4120  -29.3037   22.3725 N   0  0  0  0  0  0
  -26.4300  -37.3804   23.9407 N   0  0  0  0  0  0
  -24.6636  -31.0820   22.1014 N   0  0  0  0  0  0
  -23.4175  -28.8231   23.3028 O   0  0  0  0  0  0
  -28.4339  -26.7650   20.0817 O   0  0  0  0  0  0
  -26.5596  -34.8930   22.4695 O   0  0  0  0  0  0
  -23.5316  -32.1461   23.7515 O   0  0  0  0  0  0
  -30.1237  -19.5410   19.2525 C   0  0  0  0  0  0
  -30.2851  -20.9322   19.1162 C   0  0  0  0  0  0
  -30.6993  -18.9214   20.3801 C   0  0  0  0  0  0
  -31.0009  -21.6128   20.1227 C   0  0  0  0  0  0
  -30.5094  -16.6047   21.7739 C   0  0  0  0  0  0
  -29.6186  -16.5265   19.9359 C   0  0  0  0  0  0
  -30.7383  -17.4040   20.4921 C   0  0  0  0  0  0
  -31.2815  -23.1075   20.0020 C   0  0  0  0  0  0
  -30.0230  -25.1237   19.2255 C   0  0  0  0  0  0
  -28.6169  -25.7413   19.1048 C   0  0  0  0  0  0
  -31.3788  -19.6316   21.3174 N   0  0  0  0  0  0
  -31.5106  -20.9617   21.2008 N   0  0  0  0  0  0
  -29.9873  -15.5021   20.9355 N   0  0  0  0  0  0
  -30.0320  -23.8949   20.0618 N   0  3  0  0  0  0
  -31.4642  -12.3433   19.1332 H   0  0  0  0  0  0
  -30.2885  -11.2683   19.8309 H   0  0  0  0  0  0
  -29.7271  -11.7559   17.4296 H   0  0  0  0  0  0
  -29.6776  -13.4674   17.7653 H   0  0  0  0  0  0
  -27.8087  -11.3116   18.8064 H   0  0  0  0  0  0
  -27.3684  -12.6499   17.7807 H   0  0  0  0  0  0
  -27.7047  -14.2545   19.5720 H   0  0  0  0  0  0
  -28.6628  -11.9693   21.3641 H   0  0  0  0  0  0
  -28.4809  -13.6298   21.8547 H   0  0  0  0  0  0
  -25.2759   -9.5672   22.4749 H   0  0  0  0  0  0
  -23.9998   -7.4616   22.7475 H   0  0  0  0  0  0
  -21.0802   -8.8785   19.8975 H   0  0  0  0  0  0
  -22.3668  -10.9681   19.6182 H   0  0  0  0  0  0
  -21.2022   -7.6148   23.9724 H   0  0  0  0  0  0
  -21.1483   -6.0524   25.9086 H   0  0  0  0  0  0
  -22.0590   -2.7602   23.2857 H   0  0  0  0  0  0
  -22.4075  -11.9966   22.4854 H   0  0  0  0  0  0
  -21.1089  -13.1326   22.2577 H   0  0  0  0  0  0
  -24.6651  -15.8462   20.5327 H   0  0  0  0  0  0
  -26.2928  -15.6296   20.1281 H   0  0  0  0  0  0
  -26.7097  -32.5562   23.1163 H   0  0  0  0  0  0
  -25.0040  -33.9803   25.0484 H   0  0  0  0  0  0
  -22.6864  -31.3120   21.4129 H   0  0  0  0  0  0
  -23.3745  -35.9659   23.3322 H   0  0  0  0  0  0
  -24.3584  -36.8913   22.2048 H   0  0  0  0  0  0
  -23.7236  -37.6530   23.6637 H   0  0  0  0  0  0
  -26.0383  -31.6023   20.5963 H   0  0  0  0  0  0
  -26.8144  -30.8915   21.9828 H   0  0  0  0  0  0
  -28.0911  -29.1150   21.1671 H   0  0  0  0  0  0
  -26.0216  -25.9942   18.9915 H   0  0  0  0  0  0
  -23.9724  -27.2991   19.0407 H   0  0  0  0  0  0
  -23.7126  -30.6021   19.4049 H   0  0  0  0  0  0
  -22.7302  -29.2461   19.8721 H   0  0  0  0  0  0
  -25.1283  -36.2003   25.0829 H   0  0  0  0  0  0
  -20.9959  -28.3239   24.1434 H   0  0  0  0  0  0
  -20.5663  -26.2276   23.3605 H   0  0  0  0  0  0
  -21.6647  -26.7453   22.1223 H   0  0  0  0  0  0
  -19.6924  -25.6299   21.1232 H   0  0  0  0  0  0
  -19.6701  -27.3201   20.6736 H   0  0  0  0  0  0
  -17.4201  -26.6673   21.4009 H   0  0  0  0  0  0
  -18.0337  -26.0061   22.9005 H   0  0  0  0  0  0
  -19.7932  -30.7244   24.2305 H   0  0  0  0  0  0
  -17.5019  -31.6270   24.5162 H   0  0  0  0  0  0
  -15.5354  -30.3002   23.7634 H   0  0  0  0  0  0
  -15.8663  -28.0830   22.7050 H   0  0  0  0  0  0
  -24.5892  -30.7073   25.7792 H   0  0  0  0  0  0
  -24.8920  -32.2865   26.4925 H   0  0  0  0  0  0
  -25.8068  -30.8861   27.0215 H   0  0  0  0  0  0
  -26.2844  -29.6823   24.1127 H   0  0  0  0  0  0
  -27.4073  -29.7289   25.4536 H   0  0  0  0  0  0
  -27.8674  -30.4398   23.9236 H   0  0  0  0  0  0
  -27.2685  -33.3609   26.2091 H   0  0  0  0  0  0
  -28.3828  -32.6897   25.0273 H   0  0  0  0  0  0
  -28.0751  -31.8413   26.5347 H   0  0  0  0  0  0
  -28.2614  -38.0106   24.7505 H   0  0  0  0  0  0
  -28.1070  -36.2637   24.6297 H   0  0  0  0  0  0
  -27.2306  -37.1482   25.8867 H   0  0  0  0  0  0
  -20.9274  -29.8760   21.6949 H   0  0  0  0  0  0
  -26.0197  -38.2890   24.1388 H   0  0  0  0  0  0
  -29.6234  -18.9641   18.4880 H   0  0  0  0  0  0
  -29.9015  -21.4476   18.2469 H   0  0  0  0  0  0
  -29.7560  -17.0412   22.4316 H   0  0  0  0  0  0
  -31.4281  -16.3915   22.3235 H   0  0  0  0  0  0
  -29.7637  -16.2542   18.8881 H   0  0  0  0  0  0
  -28.6192  -16.9372   20.0920 H   0  0  0  0  0  0
  -31.6910  -17.1173   20.0428 H   0  0  0  0  0  0
  -31.7941  -23.2630   19.0522 H   0  0  0  0  0  0
  -31.9691  -23.4422   20.7794 H   0  0  0  0  0  0
  -30.7420  -25.8551   19.5982 H   0  0  0  0  0  0
  -30.3505  -24.8550   18.2200 H   0  0  0  0  0  0
  -27.8653  -24.9563   19.1897 H   0  0  0  0  0  0
  -28.5052  -26.1904   18.1167 H   0  0  0  0  0  0
  -29.8462  -24.1179   21.0274 H   0  0  0  0  0  0
  -29.2955  -23.2826   19.7514 H   0  0  0  0  0  0
  1 25  1  0  0  0
  1 30  2  0  0  0
  1 83  1  0  0  0
  2  3  1  0  0  0
  2 25  1  0  0  0
  2 85  1  0  0  0
  2 86  1  0  0  0
  3  4  1  0  0  0
  3 87  1  0  0  0
  3 88  1  0  0  0
  4  5  1  0  0  0
  4 89  1  0  0  0
  4 90  1  0  0  0
  5  6  1  0  0  0
  5 26  1  0  0  0
  5 91  1  0  0  0
  6 25  1  0  0  0
  6 92  1  0  0  0
  6 93  1  0  0  0
  7  8  2  0  0  0
  7 26  1  0  0  0
  7 29  1  0  0  0
  8  9  1  0  0  0
  8 22  1  0  0  0
  9 10  1  0  0  0
  9 27  2  0  0  0
 10 11  2  0  0  0
 10 15  1  0  0  0
 11 12  1  0  0  0
 11 94  1  0  0  0
 12 13  2  0  0  0
 12 95  1  0  0  0
 13 14  1  0  0  0
 13 31  1  0  0  0
 14 15  2  0  0  0
 14 96  1  0  0  0
 15 97  1  0  0  0
 16 17  2  0  0  0
 16 21  1  0  0  0
 16 31  1  0  0  0
 17 18  1  0  0  0
 17 98  1  0  0  0
 18 19  2  0  0  0
 18 99  1  0  0  0
 19 20  1  0  0  0
 19 24  1  0  0  0
 20 21  2  0  0  0
 20100  1  0  0  0
 21 23  1  0  0  0
 22 28  1  0  0  0
 22 32  2  0  0  0
 26 27  1  0  0  0
 28101  1  0  0  0
 28102  1  0  0  0
 29103  1  0  0  0
 29104  1  0  0  0
 33 34  1  0  0  0
 33 66  1  0  0  0
 33 70  2  0  0  0
 34 36  1  0  0  0
 34 59  1  0  0  0
 34105  1  0  0  0
 35 44  2  0  0  0
 35 45  1  0  0  0
 35 68  1  0  0  0
 36 56  1  0  0  0
 36106  1  0  0  0
 37 39  1  0  0  0
 37 47  1  0  0  0
 37 66  1  0  0  0
 37107  1  0  0  0
 38 43  2  0  0  0
 38 46  1  0  0  0
 38 47  1  0  0  0
 39 64  1  0  0  0
 39 67  2  0  0  0
 40 52  1  0  0  0
 40 53  2  0  0  0
 40 58  1  0  0  0
 41108  1  0  0  0
 41109  1  0  0  0
 41110  1  0  0  0
 41 48  1  0  0  0
 42 43  1  0  0  0
 42 66  1  0  0  0
 42111  1  0  0  0
 42112  1  0  0  0
 43 44  1  0  0  0
 44113  1  0  0  0
 45 46  2  0  0  0
 45114  1  0  0  0
 46115  1  0  0  0
 47116  1  0  0  0
 47117  1  0  0  0
 48 56  1  0  0  0
 48 65  1  0  0  0
 48118  1  0  0  0
 49 50  1  0  0  0
 49 53  1  0  0  0
 49 64  1  0  0  0
 49119  1  0  0  0
 50 51  1  0  0  0
 50120  1  0  0  0
 50121  1  0  0  0
 51 52  1  0  0  0
 51122  1  0  0  0
 51123  1  0  0  0
 52124  1  0  0  0
 52125  1  0  0  0
 53 54  1  0  0  0
 54 55  2  0  0  0
 54126  1  0  0  0
 55 57  1  0  0  0
 55127  1  0  0  0
 56 69  2  0  0  0
 57 58  2  0  0  0
 57128  1  0  0  0
 58129  1  0  0  0
 59 60  1  0  0  0
 59 61  1  0  0  0
 59 62  1  0  0  0
 60130  1  0  0  0
 60131  1  0  0  0
 60132  1  0  0  0
 61133  1  0  0  0
 61134  1  0  0  0
 61135  1  0  0  0
 62136  1  0  0  0
 62137  1  0  0  0
 62138  1  0  0  0
 63 65  1  0  0  0
 63139  1  0  0  0
 63140  1  0  0  0
 63141  1  0  0  0
 64142  1  0  0  0
 65143  1  0  0  0
 68 80  1  0  0  0
 71 72  2  0  0  0
 71 73  1  0  0  0
 71144  1  0  0  0
 72 74  1  0  0  0
 72145  1  0  0  0
 73 81  2  0  0  0
 73 77  1  0  0  0
 74 78  1  0  0  0
 74 82  2  0  0  0
 75 77  1  0  0  0
 75 83  1  0  0  0
 75146  1  0  0  0
 75147  1  0  0  0
 76 77  1  0  0  0
 76 83  1  0  0  0
 76148  1  0  0  0
 76149  1  0  0  0
 77150  1  0  0  0
 78 84  1  0  0  0
 78151  1  0  0  0
 78152  1  0  0  0
 79 80  1  0  0  0
 79 84  1  0  0  0
 79153  1  0  0  0
 79154  1  0  0  0
 80155  1  0  0  0
 80156  1  0  0  0
 81 82  1  0  0  0
 84157  1  0  0  0
 84158  1  0  0  0
M  CHG  1  84   1
M  ISO  4   1 100  68 101  80 101  83 100
M  END
> <chiral flag>
0

> <version>
0

> <s_m_source_file>
/data/baiqing/PycharmProjects/Reinvent-master-3.2/result/LINK_invent/BTK/process_docking_weight1_custom_sum_contain_oxygen_bond_distance_aromatic_linkinvent_7_9_3/rearranged_h_0197.sdf

> <i_m_source_file_index>
34

> <r_mmod_Potential_Energy-OPLS-2005>
-150.970901489258

> <r_mmod_Stretch_Energy-OPLS-2005>
36.5441627502441

> <r_mmod_Bend_Energy-OPLS-2005>
105.649475097656

> <r_mmod_Torsional_Energy-OPLS-2005>
266.209106445312

> <r_mmod_Improper_Torsional_Energy-OPLS-2005>
13.1556606292725

> <r_mmod_Van_der_Waal_Energy-OPLS-2005>
162.758270263672

> <r_mmod_Electrostatic_Energy-OPLS-2005>
-257.683624267578

> <r_mmod_Solvation_Energy-OPLS-2005>
-490.512268066406

> <b_mmod_Minimization_Converged-OPLS-2005>
0

> <r_mmod_RMS_Derivative-OPLS-2005>
1.79586362838745

$$$$
34
                    3D
 Structure written by MMmdl.
153163  0  0  1  0            999 V2000
  -30.5654  -14.5313   20.6874 C   0  0  0  0  0  0
  -30.4287  -12.3632   19.4486 C   0  0  0  0  0  0
  -29.4985  -12.5405   18.2289 C   0  0  0  0  0  0
  -28.0131  -12.3751   18.6257 C   0  0  0  0  0  0
  -27.6460  -13.2052   19.8843 C   0  0  2  0  0  0
  -28.6641  -12.9096   20.9978 C   0  0  0  0  0  0
  -25.2339  -13.8099   20.5400 C   0  0  0  0  0  0
  -24.1620  -13.0366   20.9114 C   0  0  0  0  0  0
  -24.6220  -11.6885   20.8792 C   0  0  0  0  0  0
  -23.8912  -10.4215   21.0559 C   0  0  0  0  0  0
  -24.3442   -9.4183   21.9343 C   0  0  0  0  0  0
  -23.6182   -8.2146   22.0842 C   0  0  0  0  0  0
  -22.4220   -8.0141   21.3575 C   0  0  0  0  0  0
  -21.9848   -9.0116   20.4664 C   0  0  0  0  0  0
  -22.7108  -10.2022   20.3161 C   0  0  0  0  0  0
  -21.6753   -6.0685   22.5279 C   0  0  0  0  0  0
  -21.3990   -6.5603   23.8206 C   0  0  0  0  0  0
  -21.3744   -5.6772   24.9186 C   0  0  0  0  0  0
  -21.6084   -4.3019   24.7215 C   0  0  0  0  0  0
  -21.8759   -3.8103   23.4309 C   0  0  0  0  0  0
  -21.9148   -4.6925   22.3389 C   0  0  0  0  0  0
  -22.7690  -13.5189   21.1856 C   0  0  0  0  0  0
  -22.1590   -4.2133   21.0975 F   0  0  0  0  0  0
  -21.5674   -3.4538   25.7738 F   0  0  0  0  0  0
  -29.9987  -13.3018   20.5015 N   0  0  0  0  0  0
  -26.2791  -12.9325   20.3263 N   0  0  0  0  0  0
  -25.9143  -11.6471   20.5753 N   0  0  0  0  0  0
  -22.0522  -12.8487   22.0791 N   0  0  0  0  0  0
  -25.3997  -15.1756   20.3275 N   0  0  0  0  0  0
  -31.6613  -14.8404   20.1962 O   0  0  0  0  0  0
  -21.6543   -6.8778   21.4218 O   0  0  0  0  0  0
  -22.3257  -14.5316   20.6498 O   0  0  0  0  0  0
  -24.6201  -31.8669   23.2030 C   0  0  0  0  0  0
  -25.9050  -32.4855   23.8374 C   0  0  1  0  0  0
  -27.1737  -27.3488   20.0907 C   0  0  0  0  0  0
  -25.5849  -33.8657   24.2299 N   0  0  0  0  0  0
  -23.4047  -30.4907   21.5591 C   0  0  2  0  0  0
  -24.8310  -28.9332   20.1268 C   0  0  0  0  0  0
  -22.7425  -29.4705   22.5121 C   0  0  0  0  0  0
  -18.0317  -28.1320   22.8511 C   0  0  0  0  0  0
  -24.1553  -36.7479   23.2635 C   0  0  0  0  0  0
  -25.9428  -30.8040   21.3540 C   0  0  0  0  0  0
  -26.0067  -29.4294   20.7038 C   0  0  0  0  0  0
  -27.1950  -28.6520   20.6666 C   0  0  0  0  0  0
  -25.9808  -26.8819   19.5176 C   0  0  0  0  0  0
  -24.8137  -27.6616   19.5273 C   0  0  0  0  0  0
  -23.6019  -29.8135   20.1793 C   0  0  0  0  0  0
  -25.4152  -36.3215   24.0340 C   0  0  1  0  0  0
  -20.5889  -28.3636   23.1356 C   0  0  2  0  0  0
  -20.6805  -26.9370   22.5437 C   0  0  0  0  0  0
  -19.5789  -26.6355   21.5206 C   0  0  0  0  0  0
  -18.1973  -26.7878   22.1626 C   0  0  0  0  0  0
  -19.1554  -28.8798   23.2928 C   0  0  0  0  0  0
  -18.9463  -30.1423   23.8883 C   0  0  0  0  0  0
  -17.6454  -30.6518   24.0566 C   0  0  0  0  0  0
  -25.9035  -34.9541   23.5152 C   0  0  0  0  0  0
  -16.5355  -29.9008   23.6312 C   0  0  0  0  0  0
  -16.7309  -28.6448   23.0305 C   0  0  0  0  0  0
  -26.4359  -31.6663   25.0767 C   0  0  0  0  0  0
  -25.3589  -31.3820   26.1526 C   0  0  0  0  0  0
  -27.0152  -30.3096   24.6172 C   0  0  0  0  0  0
  -27.5945  -32.4387   25.7491 C   0  0  0  0  0  0
  -27.5648  -37.1943   24.8428 C   0  0  0  0  0  0
  -21.4180  -29.3036   22.3821 N   0  0  0  0  0  0
  -26.4393  -37.3847   23.9312 N   0  0  0  0  0  0
  -24.6794  -31.0733   22.0943 N   0  0  0  0  0  0
  -23.4195  -28.8186   23.3134 O   0  0  0  0  0  0
  -28.2832  -26.5242   20.0261 O   0  0  0  0  0  0
  -26.5680  -34.8948   22.4765 O   0  0  0  0  0  0
  -23.5413  -32.1418   23.7443 O   0  0  0  0  0  0
  -28.3427  -21.2403   20.3822 C   0  0  0  0  0  0
  -26.7122  -23.0975   21.3117 C   0  0  0  0  0  0
  -28.2220  -17.3071   21.6675 C   0  0  0  0  0  0
  -28.1150  -22.6134   21.0314 C   0  0  2  0  0  0
  -27.5967  -23.9279   20.3693 C   0  0  2  0  0  0
  -28.8174  -17.6903   20.3255 C   0  0  2  0  0  0
  -29.6610  -16.8870   21.3739 C   0  0  2  0  0  0
  -28.2549  -25.2856   20.8013 C   0  0  0  0  0  0
  -28.2974  -20.9990   19.0347 N   0  0  0  0  0  0
  -28.6306  -20.1371   21.0938 N   0  0  0  0  0  0
  -28.5509  -19.7293   18.8736 N   0  0  0  0  0  0
  -28.7634  -19.1890   20.1180 N   0  0  0  0  0  0
  -29.7350  -15.4226   21.3094 N   0  0  0  0  0  0
  -31.4707  -12.5128   19.1542 H   0  0  0  0  0  0
  -30.3649  -11.3397   19.8215 H   0  0  0  0  0  0
  -29.7623  -11.8053   17.4631 H   0  0  0  0  0  0
  -29.6497  -13.5310   17.7982 H   0  0  0  0  0  0
  -27.8454  -11.3151   18.8410 H   0  0  0  0  0  0
  -27.3562  -12.6210   17.7918 H   0  0  0  0  0  0
  -27.7125  -14.2645   19.6351 H   0  0  0  0  0  0
  -28.6317  -11.8406   21.2275 H   0  0  0  0  0  0
  -28.3660  -13.4134   21.9140 H   0  0  0  0  0  0
  -25.2473   -9.5738   22.5066 H   0  0  0  0  0  0
  -23.9897   -7.4578   22.7606 H   0  0  0  0  0  0
  -21.0814   -8.8530   19.8955 H   0  0  0  0  0  0
  -22.3503  -10.9535   19.6310 H   0  0  0  0  0  0
  -21.1917   -7.6117   23.9691 H   0  0  0  0  0  0
  -21.1729   -6.0542   25.9118 H   0  0  0  0  0  0
  -22.0474   -2.7553   23.2808 H   0  0  0  0  0  0
  -22.4284  -12.0436   22.5591 H   0  0  0  0  0  0
  -21.1283  -13.1784   22.3203 H   0  0  0  0  0  0
  -24.5709  -15.7414   20.1777 H   0  0  0  0  0  0
  -26.1646  -15.4689   19.7306 H   0  0  0  0  0  0
  -26.7148  -32.5463   23.1148 H   0  0  0  0  0  0
  -24.9772  -33.9777   25.0290 H   0  0  0  0  0  0
  -22.6985  -31.3127   21.4239 H   0  0  0  0  0  0
  -23.3760  -35.9879   23.3299 H   0  0  0  0  0  0
  -24.3663  -36.9086   22.2052 H   0  0  0  0  0  0
  -23.7351  -37.6720   23.6622 H   0  0  0  0  0  0
  -26.0519  -31.5484   20.5659 H   0  0  0  0  0  0
  -26.8385  -30.8717   21.9637 H   0  0  0  0  0  0
  -28.1122  -29.0391   21.0834 H   0  0  0  0  0  0
  -25.9471  -25.9026   19.0579 H   0  0  0  0  0  0
  -23.9032  -27.2674   19.0973 H   0  0  0  0  0  0
  -23.7142  -30.5782   19.4120 H   0  0  0  0  0  0
  -22.7156  -29.2402   19.8947 H   0  0  0  0  0  0
  -25.1337  -36.2186   25.0851 H   0  0  0  0  0  0
  -20.9999  -28.3151   24.1464 H   0  0  0  0  0  0
  -20.5680  -26.2211   23.3604 H   0  0  0  0  0  0
  -21.6676  -26.7384   22.1217 H   0  0  0  0  0  0
  -19.6923  -25.6257   21.1219 H   0  0  0  0  0  0
  -19.6711  -27.3176   20.6728 H   0  0  0  0  0  0
  -17.4243  -26.6667   21.4024 H   0  0  0  0  0  0
  -18.0379  -25.9981   22.8983 H   0  0  0  0  0  0
  -19.7918  -30.7305   24.2192 H   0  0  0  0  0  0
  -17.4959  -31.6159   24.5218 H   0  0  0  0  0  0
  -15.5328  -30.2865   23.7616 H   0  0  0  0  0  0
  -15.8737  -28.0749   22.6943 H   0  0  0  0  0  0
  -24.5729  -30.7180   25.7894 H   0  0  0  0  0  0
  -24.8778  -32.2984   26.4978 H   0  0  0  0  0  0
  -25.7898  -30.8990   27.0305 H   0  0  0  0  0  0
  -26.2721  -29.6977   24.1056 H   0  0  0  0  0  0
  -27.3679  -29.7229   25.4656 H   0  0  0  0  0  0
  -27.8636  -30.4400   23.9460 H   0  0  0  0  0  0
  -27.2559  -33.3658   26.2123 H   0  0  0  0  0  0
  -28.3658  -32.7031   25.0253 H   0  0  0  0  0  0
  -28.0713  -31.8502   26.5333 H   0  0  0  0  0  0
  -28.2726  -38.0192   24.7415 H   0  0  0  0  0  0
  -28.1111  -36.2733   24.6351 H   0  0  0  0  0  0
  -27.2364  -37.1709   25.8834 H   0  0  0  0  0  0
  -20.9342  -29.8846   21.7108 H   0  0  0  0  0  0
  -26.0362  -38.3013   24.1067 H   0  0  0  0  0  0
  -26.4953  -23.4897   22.3047 H   0  0  0  0  0  0
  -25.9085  -22.4817   20.9053 H   0  0  0  0  0  0
  -27.4191  -16.5760   21.6438 H   0  0  0  0  0  0
  -28.0745  -18.0766   22.4307 H   0  0  0  0  0  0
  -28.8598  -22.7432   21.8129 H   0  0  0  0  0  0
  -27.3479  -23.8778   19.3107 H   0  0  0  0  0  0
  -28.6098  -17.1408   19.4048 H   0  0  0  0  0  0
  -30.3694  -17.3948   22.0418 H   0  0  0  0  0  0
  -29.3163  -25.0568   20.8909 H   0  0  0  0  0  0
  -27.9293  -25.5320   21.8140 H   0  0  0  0  0  0
  -28.9212  -14.9657   21.7046 H   0  0  0  0  0  0
  1 25  1  0  0  0
  1 30  2  0  0  0
  1 83  1  0  0  0
  2  3  1  0  0  0
  2 25  1  0  0  0
  2 84  1  0  0  0
  2 85  1  0  0  0
  3  4  1  0  0  0
  3 86  1  0  0  0
  3 87  1  0  0  0
  4  5  1  0  0  0
  4 88  1  0  0  0
  4 89  1  0  0  0
  5  6  1  0  0  0
  5 26  1  0  0  0
  5 90  1  0  0  0
  6 25  1  0  0  0
  6 91  1  0  0  0
  6 92  1  0  0  0
  7  8  2  0  0  0
  7 26  1  0  0  0
  7 29  1  0  0  0
  8  9  1  0  0  0
  8 22  1  0  0  0
  9 10  1  0  0  0
  9 27  2  0  0  0
 10 11  2  0  0  0
 10 15  1  0  0  0
 11 12  1  0  0  0
 11 93  1  0  0  0
 12 13  2  0  0  0
 12 94  1  0  0  0
 13 14  1  0  0  0
 13 31  1  0  0  0
 14 15  2  0  0  0
 14 95  1  0  0  0
 15 96  1  0  0  0
 16 17  2  0  0  0
 16 21  1  0  0  0
 16 31  1  0  0  0
 17 18  1  0  0  0
 17 97  1  0  0  0
 18 19  2  0  0  0
 18 98  1  0  0  0
 19 20  1  0  0  0
 19 24  1  0  0  0
 20 21  2  0  0  0
 20 99  1  0  0  0
 21 23  1  0  0  0
 22 28  1  0  0  0
 22 32  2  0  0  0
 26 27  1  0  0  0
 28100  1  0  0  0
 28101  1  0  0  0
 29102  1  0  0  0
 29103  1  0  0  0
 33 34  1  0  0  0
 33 66  1  0  0  0
 33 70  2  0  0  0
 34 36  1  0  0  0
 34 59  1  0  0  0
 34104  1  0  0  0
 35 44  2  0  0  0
 35 45  1  0  0  0
 35 68  1  0  0  0
 36 56  1  0  0  0
 36105  1  0  0  0
 37 39  1  0  0  0
 37 47  1  0  0  0
 37 66  1  0  0  0
 37106  1  0  0  0
 38 43  2  0  0  0
 38 46  1  0  0  0
 38 47  1  0  0  0
 39 64  1  0  0  0
 39 67  2  0  0  0
 40 52  1  0  0  0
 40 53  2  0  0  0
 40 58  1  0  0  0
 41107  1  0  0  0
 41108  1  0  0  0
 41109  1  0  0  0
 41 48  1  0  0  0
 42 43  1  0  0  0
 42 66  1  0  0  0
 42110  1  0  0  0
 42111  1  0  0  0
 43 44  1  0  0  0
 44112  1  0  0  0
 45 46  2  0  0  0
 45113  1  0  0  0
 46114  1  0  0  0
 47115  1  0  0  0
 47116  1  0  0  0
 48 56  1  0  0  0
 48 65  1  0  0  0
 48117  1  0  0  0
 49 50  1  0  0  0
 49 53  1  0  0  0
 49 64  1  0  0  0
 49118  1  0  0  0
 50 51  1  0  0  0
 50119  1  0  0  0
 50120  1  0  0  0
 51 52  1  0  0  0
 51121  1  0  0  0
 51122  1  0  0  0
 52123  1  0  0  0
 52124  1  0  0  0
 53 54  1  0  0  0
 54 55  2  0  0  0
 54125  1  0  0  0
 55 57  1  0  0  0
 55126  1  0  0  0
 56 69  2  0  0  0
 57 58  2  0  0  0
 57127  1  0  0  0
 58128  1  0  0  0
 59 60  1  0  0  0
 59 61  1  0  0  0
 59 62  1  0  0  0
 60129  1  0  0  0
 60130  1  0  0  0
 60131  1  0  0  0
 61132  1  0  0  0
 61133  1  0  0  0
 61134  1  0  0  0
 62135  1  0  0  0
 62136  1  0  0  0
 62137  1  0  0  0
 63 65  1  0  0  0
 63138  1  0  0  0
 63139  1  0  0  0
 63140  1  0  0  0
 64141  1  0  0  0
 65142  1  0  0  0
 68 78  1  0  0  0
 71 79  1  0  0  0
 71 80  2  0  0  0
 71 74  1  0  0  0
 72 74  1  0  0  0
 72 75  1  0  0  0
 72143  1  0  0  0
 72144  1  0  0  0
 73 76  1  0  0  0
 73 77  1  0  0  0
 73145  1  0  0  0
 73146  1  0  0  0
 74 75  1  0  0  0
 74147  1  0  0  0
 75 78  1  0  0  0
 75148  1  0  0  0
 76 77  1  0  0  0
 76 82  1  0  0  0
 76149  1  0  0  0
 77 83  1  0  0  0
 77150  1  0  0  0
 78151  1  0  0  0
 78152  1  0  0  0
 79 81  2  0  0  0
 80 82  1  0  0  0
 81 82  1  0  0  0
 83153  1  0  0  0
M  ISO  4   1 100  68 101  78 101  83 100
M  END
> <chiral flag>
0

> <version>
0

> <s_m_source_file>
/data/baiqing/PycharmProjects/Reinvent-master-3.2/result/LINK_invent/BTK/process_docking_weight1_custom_sum_contain_oxygen_bond_distance_aromatic_linkinvent_7_9_3/rearranged_h_0197.sdf

> <i_m_source_file_index>
35

> <r_mmod_Potential_Energy-OPLS-2005>
141.878646850586

> <r_mmod_Stretch_Energy-OPLS-2005>
66.6793441772461

> <r_mmod_Bend_Energy-OPLS-2005>
175.963760375977

> <r_mmod_Torsional_Energy-OPLS-2005>
328.150390625

> <r_mmod_Improper_Torsional_Energy-OPLS-2005>
9.60003852844238

> <r_mmod_Van_der_Waal_Energy-OPLS-2005>
116.624282836914

> <r_mmod_Electrostatic_Energy-OPLS-2005>
-365.038909912109

> <r_mmod_Solvation_Energy-OPLS-2005>
-230.032241821289

> <b_mmod_Minimization_Converged-OPLS-2005>
0

> <r_mmod_RMS_Derivative-OPLS-2005>
13.0369310379028

$$$$
35
                    3D
 Structure written by MMmdl.
163173  0  0  1  0            999 V2000
  -30.6266  -14.7296   20.4981 C   0  0  0  0  0  0
  -30.4286  -12.4520   19.4763 C   0  0  0  0  0  0
  -29.5100  -12.5137   18.2372 C   0  0  0  0  0  0
  -28.0359  -12.3383   18.6487 C   0  0  0  0  0  0
  -27.6430  -13.2327   19.8550 C   0  0  2  0  0  0
  -28.6844  -13.1565   20.9925 C   0  0  0  0  0  0
  -25.2517  -13.8197   20.5693 C   0  0  0  0  0  0
  -24.1799  -13.0441   20.9187 C   0  0  0  0  0  0
  -24.6388  -11.6924   20.8727 C   0  0  0  0  0  0
  -23.9060  -10.4300   21.0386 C   0  0  0  0  0  0
  -24.3608   -9.4220   21.9172 C   0  0  0  0  0  0
  -23.6287   -8.2251   22.0750 C   0  0  0  0  0  0
  -22.4272   -8.0278   21.3536 C   0  0  0  0  0  0
  -21.9901   -9.0253   20.4642 C   0  0  0  0  0  0
  -22.7221  -10.2142   20.3042 C   0  0  0  0  0  0
  -21.6856   -6.0728   22.5272 C   0  0  0  0  0  0
  -21.4020   -6.5630   23.8208 C   0  0  0  0  0  0
  -21.3662   -5.6783   24.9170 C   0  0  0  0  0  0
  -21.6036   -4.3042   24.7218 C   0  0  0  0  0  0
  -21.8820   -3.8136   23.4340 C   0  0  0  0  0  0
  -21.9195   -4.6955   22.3396 C   0  0  0  0  0  0
  -22.7819  -13.5231   21.1841 C   0  0  0  0  0  0
  -22.1659   -4.2142   21.0971 F   0  0  0  0  0  0
  -21.5627   -3.4521   25.7728 F   0  0  0  0  0  0
  -29.9895  -13.5094   20.4193 N   0  0  0  0  0  0
  -26.2940  -12.9405   20.3292 N   0  0  0  0  0  0
  -25.9320  -11.6548   20.5748 N   0  0  0  0  0  0
  -22.0449  -12.8240   22.0406 N   0  0  0  0  0  0
  -25.4235  -15.1919   20.4140 N   0  0  0  0  0  0
  -31.7827  -14.8379   20.0745 O   0  0  0  0  0  0
  -21.6637   -6.8872   21.4234 O   0  0  0  0  0  0
  -22.3504  -14.5530   20.6691 O   0  0  0  0  0  0
  -24.6323  -31.8554   23.1987 C   0  0  0  0  0  0
  -25.9154  -32.4741   23.8331 C   0  0  1  0  0  0
  -27.2159  -27.2534   20.1179 C   0  0  0  0  0  0
  -25.5946  -33.8546   24.2251 N   0  0  0  0  0  0
  -23.4269  -30.4800   21.5439 C   0  0  2  0  0  0
  -24.8719  -28.9293   20.1094 C   0  0  0  0  0  0
  -22.7504  -29.4601   22.4921 C   0  0  0  0  0  0
  -18.0303  -28.1380   22.8493 C   0  0  0  0  0  0
  -24.1492  -36.7281   23.2636 C   0  0  0  0  0  0
  -25.9759  -30.7624   21.3834 C   0  0  0  0  0  0
  -26.0437  -29.3861   20.7234 C   0  0  0  0  0  0
  -27.2139  -28.5597   20.7210 C   0  0  0  0  0  0
  -26.0173  -26.8761   19.4648 C   0  0  0  0  0  0
  -24.8651  -27.6833   19.4710 C   0  0  0  0  0  0
  -23.6448  -29.8180   20.1583 C   0  0  0  0  0  0
  -25.4119  -36.3064   24.0319 C   0  0  1  0  0  0
  -20.5904  -28.3680   23.1282 C   0  0  2  0  0  0
  -20.6789  -26.9397   22.5423 C   0  0  0  0  0  0
  -19.5765  -26.6362   21.5233 C   0  0  0  0  0  0
  -18.1943  -26.7914   22.1640 C   0  0  0  0  0  0
  -19.1557  -28.8850   23.2883 C   0  0  0  0  0  0
  -18.9477  -30.1451   23.8897 C   0  0  0  0  0  0
  -17.6477  -30.6575   24.0577 C   0  0  0  0  0  0
  -25.9063  -34.9432   23.5087 C   0  0  0  0  0  0
  -16.5367  -29.9075   23.6341 C   0  0  0  0  0  0
  -16.7287  -28.6497   23.0353 C   0  0  0  0  0  0
  -26.4515  -31.6573   25.0725 C   0  0  0  0  0  0
  -25.3738  -31.3732   26.1443 C   0  0  0  0  0  0
  -27.0362  -30.2979   24.6236 C   0  0  0  0  0  0
  -27.6061  -32.4326   25.7497 C   0  0  0  0  0  0
  -27.5582  -37.1795   24.8463 C   0  0  0  0  0  0
  -21.4211  -29.3034   22.3670 N   0  0  0  0  0  0
  -26.4292  -37.3765   23.9411 N   0  0  0  0  0  0
  -24.6976  -31.0508   22.0978 N   0  0  0  0  0  0
  -23.4210  -28.8146   23.3018 O   0  0  0  0  0  0
  -28.3302  -26.3779   20.1956 O   0  0  0  0  0  0
  -26.5631  -34.8907   22.4653 O   0  0  0  0  0  0
  -23.5471  -32.1387   23.7282 O   0  0  0  0  0  0
  -27.5881  -19.5918   20.2743 C   0  0  0  0  0  0
  -28.8969  -19.7525   20.5596 C   0  0  0  0  0  0
  -29.3758  -21.1954   20.6529 C   0  0  0  0  0  0
  -27.0702  -21.8608   20.4124 C   0  0  0  0  0  0
  -24.8328  -22.6845   21.5563 C   0  0  0  0  0  0
  -25.8262  -23.7719   21.8606 C   0  0  0  0  0  0
  -29.4337  -17.8294   22.2430 C   0  0  0  0  0  0
  -29.9145  -16.3567   22.2137 C   0  0  0  0  0  0
  -29.7498  -17.1357   19.9994 C   0  0  0  0  0  0
  -29.7889  -18.4631   20.8917 C   0  0  1  0  0  0
  -25.9916  -22.9269   20.6084 C   0  0  0  0  0  0
  -28.7919  -23.7371   20.7628 C   0  0  0  0  0  0
  -28.2933  -24.9284   19.7744 C   0  0  0  0  0  0
  -26.6782  -20.6429   20.1999 N   0  0  0  0  0  0
  -28.4367  -22.2389   20.5499 N   0  0  0  0  0  0
  -29.8919  -15.8693   20.8279 N   0  0  0  0  0  0
  -30.5708  -21.4563   20.8288 O   0  0  0  0  0  0
  -31.4702  -12.5713   19.1725 H   0  0  0  0  0  0
  -30.3697  -11.4714   19.9511 H   0  0  0  0  0  0
  -29.7923  -11.7409   17.5212 H   0  0  0  0  0  0
  -29.6412  -13.4689   17.7255 H   0  0  0  0  0  0
  -27.8907  -11.2888   18.9063 H   0  0  0  0  0  0
  -27.3786  -12.5338   17.8000 H   0  0  0  0  0  0
  -27.6407  -14.2578   19.4853 H   0  0  0  0  0  0
  -28.7170  -12.1578   21.4288 H   0  0  0  0  0  0
  -28.4091  -13.8345   21.8012 H   0  0  0  0  0  0
  -25.2745   -9.5706   22.4757 H   0  0  0  0  0  0
  -23.9990   -7.4649   22.7477 H   0  0  0  0  0  0
  -21.0825   -8.8758   19.8960 H   0  0  0  0  0  0
  -22.3646  -10.9680   19.6159 H   0  0  0  0  0  0
  -21.2011   -7.6141   23.9701 H   0  0  0  0  0  0
  -21.1490   -6.0516   25.9071 H   0  0  0  0  0  0
  -22.0604   -2.7596   23.2833 H   0  0  0  0  0  0
  -22.4042  -11.9927   22.4861 H   0  0  0  0  0  0
  -21.1065  -13.1296   22.2571 H   0  0  0  0  0  0
  -24.6605  -15.8497   20.5310 H   0  0  0  0  0  0
  -26.2865  -15.6338   20.1214 H   0  0  0  0  0  0
  -26.7219  -32.5379   23.1063 H   0  0  0  0  0  0
  -25.0102  -33.9694   25.0400 H   0  0  0  0  0  0
  -22.7223  -31.3027   21.4005 H   0  0  0  0  0  0
  -23.3756  -35.9615   23.3289 H   0  0  0  0  0  0
  -24.3582  -36.8910   22.2056 H   0  0  0  0  0  0
  -23.7253  -37.6476   23.6669 H   0  0  0  0  0  0
  -26.1226  -31.5251   20.6175 H   0  0  0  0  0  0
  -26.8499  -30.8036   22.0215 H   0  0  0  0  0  0
  -28.1087  -28.9074   21.2197 H   0  0  0  0  0  0
  -25.9091  -25.9457   18.9360 H   0  0  0  0  0  0
  -23.9703  -27.3321   18.9758 H   0  0  0  0  0  0
  -23.7728  -30.5977   19.4059 H   0  0  0  0  0  0
  -22.7612  -29.2551   19.8518 H   0  0  0  0  0  0
  -25.1309  -36.1896   25.0813 H   0  0  0  0  0  0
  -21.0006  -28.3259   24.1402 H   0  0  0  0  0  0
  -20.5702  -26.2293   23.3629 H   0  0  0  0  0  0
  -21.6655  -26.7421   22.1223 H   0  0  0  0  0  0
  -19.6922  -25.6272   21.1261 H   0  0  0  0  0  0
  -19.6693  -27.3183   20.6780 H   0  0  0  0  0  0
  -17.4214  -26.6664   21.4038 H   0  0  0  0  0  0
  -18.0327  -26.0056   22.9039 H   0  0  0  0  0  0
  -19.7953  -30.7262   24.2262 H   0  0  0  0  0  0
  -17.5028  -31.6239   24.5203 H   0  0  0  0  0  0
  -15.5365  -30.2969   23.7668 H   0  0  0  0  0  0
  -15.8686  -28.0816   22.7066 H   0  0  0  0  0  0
  -24.5923  -30.7055   25.7782 H   0  0  0  0  0  0
  -24.8918  -32.2906   26.4835 H   0  0  0  0  0  0
  -25.8061  -30.8940   27.0239 H   0  0  0  0  0  0
  -26.2951  -29.6711   24.1253 H   0  0  0  0  0  0
  -27.4020  -29.7250   25.4771 H   0  0  0  0  0  0
  -27.8844  -30.4229   23.9499 H   0  0  0  0  0  0
  -27.2653  -33.3632   26.2052 H   0  0  0  0  0  0
  -28.3880  -32.6880   25.0330 H   0  0  0  0  0  0
  -28.0721  -31.8469   26.5432 H   0  0  0  0  0  0
  -28.2598  -38.0095   24.7512 H   0  0  0  0  0  0
  -28.1080  -36.2624   24.6288 H   0  0  0  0  0  0
  -27.2296  -37.1443   25.8865 H   0  0  0  0  0  0
  -20.9383  -29.8797   21.6919 H   0  0  0  0  0  0
  -26.0158  -38.2832   24.1410 H   0  0  0  0  0  0
  -27.1554  -18.6025   20.2143 H   0  0  0  0  0  0
  -23.8407  -22.9913   21.2313 H   0  0  0  0  0  0
  -24.8608  -21.7946   22.1828 H   0  0  0  0  0  0
  -26.4824  -23.5946   22.7105 H   0  0  0  0  0  0
  -25.5100  -24.8049   21.7268 H   0  0  0  0  0  0
  -29.8643  -18.3814   23.0796 H   0  0  0  0  0  0
  -28.3519  -17.8376   22.3825 H   0  0  0  0  0  0
  -29.2984  -15.7316   22.8616 H   0  0  0  0  0  0
  -30.9370  -16.3054   22.5937 H   0  0  0  0  0  0
  -30.5234  -17.1769   19.2309 H   0  0  0  0  0  0
  -28.8017  -17.0646   19.4660 H   0  0  0  0  0  0
  -30.8289  -18.7899   20.9385 H   0  0  0  0  0  0
  -25.6790  -23.3192   19.6435 H   0  0  0  0  0  0
  -28.4823  -23.9886   21.7750 H   0  0  0  0  0  0
  -29.8766  -23.8328   20.8087 H   0  0  0  0  0  0
  -27.3354  -24.6538   19.3716 H   0  0  0  0  0  0
  -28.9286  -24.8804   18.8900 H   0  0  0  0  0  0
  1 25  1  0  0  0
  1 30  2  0  0  0
  1 86  1  0  0  0
  2  3  1  0  0  0
  2 25  1  0  0  0
  2 88  1  0  0  0
  2 89  1  0  0  0
  3  4  1  0  0  0
  3 90  1  0  0  0
  3 91  1  0  0  0
  4  5  1  0  0  0
  4 92  1  0  0  0
  4 93  1  0  0  0
  5  6  1  0  0  0
  5 26  1  0  0  0
  5 94  1  0  0  0
  6 25  1  0  0  0
  6 95  1  0  0  0
  6 96  1  0  0  0
  7  8  2  0  0  0
  7 26  1  0  0  0
  7 29  1  0  0  0
  8  9  1  0  0  0
  8 22  1  0  0  0
  9 10  1  0  0  0
  9 27  2  0  0  0
 10 11  2  0  0  0
 10 15  1  0  0  0
 11 12  1  0  0  0
 11 97  1  0  0  0
 12 13  2  0  0  0
 12 98  1  0  0  0
 13 14  1  0  0  0
 13 31  1  0  0  0
 14 15  2  0  0  0
 14 99  1  0  0  0
 15100  1  0  0  0
 16 17  2  0  0  0
 16 21  1  0  0  0
 16 31  1  0  0  0
 17 18  1  0  0  0
 17101  1  0  0  0
 18 19  2  0  0  0
 18102  1  0  0  0
 19 20  1  0  0  0
 19 24  1  0  0  0
 20 21  2  0  0  0
 20103  1  0  0  0
 21 23  1  0  0  0
 22 28  1  0  0  0
 22 32  2  0  0  0
 26 27  1  0  0  0
 28104  1  0  0  0
 28105  1  0  0  0
 29106  1  0  0  0
 29107  1  0  0  0
 33 34  1  0  0  0
 33 66  1  0  0  0
 33 70  2  0  0  0
 34 36  1  0  0  0
 34 59  1  0  0  0
 34108  1  0  0  0
 35 44  2  0  0  0
 35 45  1  0  0  0
 35 68  1  0  0  0
 36 56  1  0  0  0
 36109  1  0  0  0
 37 39  1  0  0  0
 37 47  1  0  0  0
 37 66  1  0  0  0
 37110  1  0  0  0
 38 43  2  0  0  0
 38 46  1  0  0  0
 38 47  1  0  0  0
 39 64  1  0  0  0
 39 67  2  0  0  0
 40 52  1  0  0  0
 40 53  2  0  0  0
 40 58  1  0  0  0
 41111  1  0  0  0
 41112  1  0  0  0
 41113  1  0  0  0
 41 48  1  0  0  0
 42 43  1  0  0  0
 42 66  1  0  0  0
 42114  1  0  0  0
 42115  1  0  0  0
 43 44  1  0  0  0
 44116  1  0  0  0
 45 46  2  0  0  0
 45117  1  0  0  0
 46118  1  0  0  0
 47119  1  0  0  0
 47120  1  0  0  0
 48 56  1  0  0  0
 48 65  1  0  0  0
 48121  1  0  0  0
 49 50  1  0  0  0
 49 53  1  0  0  0
 49 64  1  0  0  0
 49122  1  0  0  0
 50 51  1  0  0  0
 50123  1  0  0  0
 50124  1  0  0  0
 51 52  1  0  0  0
 51125  1  0  0  0
 51126  1  0  0  0
 52127  1  0  0  0
 52128  1  0  0  0
 53 54  1  0  0  0
 54 55  2  0  0  0
 54129  1  0  0  0
 55 57  1  0  0  0
 55130  1  0  0  0
 56 69  2  0  0  0
 57 58  2  0  0  0
 57131  1  0  0  0
 58132  1  0  0  0
 59 60  1  0  0  0
 59 61  1  0  0  0
 59 62  1  0  0  0
 60133  1  0  0  0
 60134  1  0  0  0
 60135  1  0  0  0
 61136  1  0  0  0
 61137  1  0  0  0
 61138  1  0  0  0
 62139  1  0  0  0
 62140  1  0  0  0
 62141  1  0  0  0
 63 65  1  0  0  0
 63142  1  0  0  0
 63143  1  0  0  0
 63144  1  0  0  0
 64145  1  0  0  0
 65146  1  0  0  0
 68 83  1  0  0  0
 71 72  2  0  0  0
 71 84  1  0  0  0
 71147  1  0  0  0
 72 73  1  0  0  0
 72 80  1  0  0  0
 73 85  1  0  0  0
 73 87  2  0  0  0
 74 84  2  0  0  0
 74 85  1  0  0  0
 74 81  1  0  0  0
 75 76  1  0  0  0
 75 81  1  0  0  0
 75148  1  0  0  0
 75149  1  0  0  0
 76 81  1  0  0  0
 76150  1  0  0  0
 76151  1  0  0  0
 77 78  1  0  0  0
 77 80  1  0  0  0
 77152  1  0  0  0
 77153  1  0  0  0
 78 86  1  0  0  0
 78154  1  0  0  0
 78155  1  0  0  0
 79 80  1  0  0  0
 79 86  1  0  0  0
 79156  1  0  0  0
 79157  1  0  0  0
 80158  1  0  0  0
 81159  1  0  0  0
 82 83  1  0  0  0
 82 85  1  0  0  0
 82160  1  0  0  0
 82161  1  0  0  0
 83162  1  0  0  0
 83163  1  0  0  0
M  ISO  4   1 100  68 101  83 101  86 100
M  END
> <chiral flag>
0

> <version>
0

> <s_m_source_file>
/data/baiqing/PycharmProjects/Reinvent-master-3.2/result/LINK_invent/BTK/process_docking_weight1_custom_sum_contain_oxygen_bond_distance_aromatic_linkinvent_7_9_3/rearranged_h_0197.sdf

> <i_m_source_file_index>
36

> <r_mmod_Potential_Energy-OPLS-2005>
420.797271728516

> <r_mmod_Stretch_Energy-OPLS-2005>
143.874588012695

> <r_mmod_Bend_Energy-OPLS-2005>
218.031280517578

> <r_mmod_Torsional_Energy-OPLS-2005>
352.625030517578

> <r_mmod_Improper_Torsional_Energy-OPLS-2005>
9.35645771026611

> <r_mmod_Van_der_Waal_Energy-OPLS-2005>
151.72721862793

> <r_mmod_Electrostatic_Energy-OPLS-2005>
-328.091766357422

> <r_mmod_Solvation_Energy-OPLS-2005>
-207.632522583008

> <b_mmod_Minimization_Converged-OPLS-2005>
0

> <r_mmod_RMS_Derivative-OPLS-2005>
1.67363572120667

$$$$
36
                    3D
 Structure written by MMmdl.
164174  0  0  1  0            999 V2000
  -30.7559  -14.3808   20.6624 C   0  0  0  0  0  0
  -30.4180  -12.2832   19.4022 C   0  0  0  0  0  0
  -29.4867  -12.5214   18.1978 C   0  0  0  0  0  0
  -28.0097  -12.3799   18.6124 C   0  0  0  0  0  0
  -27.6676  -13.2012   19.8829 C   0  0  2  0  0  0
  -28.7060  -12.9380   20.9971 C   0  0  0  0  0  0
  -25.2608  -13.8157   20.5680 C   0  0  0  0  0  0
  -24.1847  -13.0442   20.9162 C   0  0  0  0  0  0
  -24.6389  -11.6903   20.8722 C   0  0  0  0  0  0
  -23.9054  -10.4292   21.0396 C   0  0  0  0  0  0
  -24.3607   -9.4210   21.9177 C   0  0  0  0  0  0
  -23.6285   -8.2245   22.0751 C   0  0  0  0  0  0
  -22.4268   -8.0280   21.3541 C   0  0  0  0  0  0
  -21.9903   -9.0252   20.4643 C   0  0  0  0  0  0
  -22.7228  -10.2131   20.3047 C   0  0  0  0  0  0
  -21.6848   -6.0735   22.5275 C   0  0  0  0  0  0
  -21.4012   -6.5638   23.8210 C   0  0  0  0  0  0
  -21.3662   -5.6792   24.9173 C   0  0  0  0  0  0
  -21.6045   -4.3055   24.7223 C   0  0  0  0  0  0
  -21.8820   -3.8148   23.4343 C   0  0  0  0  0  0
  -21.9192   -4.6963   22.3400 C   0  0  0  0  0  0
  -22.7869  -13.5240   21.1836 C   0  0  0  0  0  0
  -22.1660   -4.2151   21.0977 F   0  0  0  0  0  0
  -21.5633   -3.4540   25.7736 F   0  0  0  0  0  0
  -30.0503  -13.2341   20.4619 N   0  0  0  0  0  0
  -26.3050  -12.9317   20.3397 N   0  0  0  0  0  0
  -25.9316  -11.6481   20.5761 N   0  0  0  0  0  0
  -22.0510  -12.8227   22.0390 N   0  0  0  0  0  0
  -25.4370  -15.1874   20.4113 N   0  0  0  0  0  0
  -31.8095  -14.6248   20.0604 O   0  0  0  0  0  0
  -21.6634   -6.8875   21.4237 O   0  0  0  0  0  0
  -22.3556  -14.5554   20.6696 O   0  0  0  0  0  0
  -24.6129  -31.8696   23.2131 C   0  0  0  0  0  0
  -25.9037  -32.4828   23.8407 C   0  0  1  0  0  0
  -27.2400  -27.4570   20.0753 C   0  0  0  0  0  0
  -25.5909  -33.8630   24.2345 N   0  0  0  0  0  0
  -23.3983  -30.4959   21.5525 C   0  0  2  0  0  0
  -24.8425  -28.9640   20.1178 C   0  0  0  0  0  0
  -22.7393  -29.4677   22.4997 C   0  0  0  0  0  0
  -18.0269  -28.1369   22.8489 C   0  0  0  0  0  0
  -24.1489  -36.7325   23.2633 C   0  0  0  0  0  0
  -25.9254  -30.8402   21.3636 C   0  0  0  0  0  0
  -26.0019  -29.4757   20.7118 C   0  0  0  0  0  0
  -27.1989  -28.7268   20.6935 C   0  0  0  0  0  0
  -26.0523  -26.9539   19.4859 C   0  0  0  0  0  0
  -24.8606  -27.6994   19.5084 C   0  0  0  0  0  0
  -23.6055  -29.8307   20.1662 C   0  0  0  0  0  0
  -25.4109  -36.3124   24.0337 C   0  0  1  0  0  0
  -20.5855  -28.3661   23.1320 C   0  0  2  0  0  0
  -20.6762  -26.9404   22.5416 C   0  0  0  0  0  0
  -19.5743  -26.6384   21.5207 C   0  0  0  0  0  0
  -18.1917  -26.7917   22.1616 C   0  0  0  0  0  0
  -19.1515  -28.8831   23.2901 C   0  0  0  0  0  0
  -18.9450  -30.1439   23.8909 C   0  0  0  0  0  0
  -17.6453  -30.6580   24.0567 C   0  0  0  0  0  0
  -25.9040  -34.9485   23.5136 C   0  0  0  0  0  0
  -16.5344  -29.9085   23.6321 C   0  0  0  0  0  0
  -16.7260  -28.6502   23.0341 C   0  0  0  0  0  0
  -26.4478  -31.6583   25.0719 C   0  0  0  0  0  0
  -25.3764  -31.3641   26.1470 C   0  0  0  0  0  0
  -27.0299  -30.3037   24.6059 C   0  0  0  0  0  0
  -27.6066  -32.4279   25.7481 C   0  0  0  0  0  0
  -27.5587  -37.1806   24.8460 C   0  0  0  0  0  0
  -21.4126  -29.3035   22.3732 N   0  0  0  0  0  0
  -26.4289  -37.3811   23.9424 N   0  0  0  0  0  0
  -24.6636  -31.0822   22.1018 N   0  0  0  0  0  0
  -23.4180  -28.8212   23.3023 O   0  0  0  0  0  0
  -28.4390  -26.7696   20.0703 O   0  0  0  0  0  0
  -26.5592  -34.8933   22.4689 O   0  0  0  0  0  0
  -23.5334  -32.1435   23.7549 O   0  0  0  0  0  0
  -29.4849  -18.6548   21.6685 C   0  0  0  0  0  0
  -30.7317  -19.2092   22.0124 C   0  0  0  0  0  0
  -31.7623  -18.3116   22.2092 C   0  0  0  0  0  0
  -30.4271  -16.5564   21.6997 C   0  0  0  0  0  0
  -33.0101  -19.0268   22.6129 C   0  0  0  0  0  0
  -32.4920  -20.4803   22.7456 C   0  0  0  0  0  0
  -31.1313  -23.3116   21.0808 C   0  0  0  0  0  0
  -29.2322  -23.7199   21.7484 C   0  0  0  0  0  0
  -30.3835  -22.9209   22.3604 C   0  0  1  0  0  0
  -30.1174  -21.4652   22.7471 C   0  0  0  0  0  0
  -29.8479  -24.8210   19.5600 C   0  0  0  0  0  0
  -28.4698  -25.4913   19.4354 C   0  0  0  0  0  0
  -29.3457  -17.3186   21.5302 N   0  0  0  0  0  0
  -31.6408  -16.9794   22.0701 N   0  0  0  0  0  0
  -31.1173  -20.5429   22.2128 N   0  0  0  0  0  0
  -30.2070  -15.2216   21.5516 N   0  0  0  0  0  0
  -30.2172  -24.4504   20.9511 N   0  3  2  0  0  0
  -31.4621  -12.3757   19.0980 H   0  0  0  0  0  0
  -30.3111  -11.2610   19.7690 H   0  0  0  0  0  0
  -29.7182  -11.8172   17.3977 H   0  0  0  0  0  0
  -29.6599  -13.5180   17.7885 H   0  0  0  0  0  0
  -27.8141  -11.3221   18.7917 H   0  0  0  0  0  0
  -27.3573  -12.6736   17.7891 H   0  0  0  0  0  0
  -27.7267  -14.2553   19.6103 H   0  0  0  0  0  0
  -28.6673  -11.8911   21.3027 H   0  0  0  0  0  0
  -28.4530  -13.5008   21.8960 H   0  0  0  0  0  0
  -25.2750   -9.5691   22.4754 H   0  0  0  0  0  0
  -23.9998   -7.4637   22.7468 H   0  0  0  0  0  0
  -21.0839   -8.8767   19.8942 H   0  0  0  0  0  0
  -22.3685  -10.9670   19.6158 H   0  0  0  0  0  0
  -21.1998   -7.6144   23.9713 H   0  0  0  0  0  0
  -21.1487   -6.0520   25.9076 H   0  0  0  0  0  0
  -22.0596   -2.7610   23.2841 H   0  0  0  0  0  0
  -22.4114  -11.9873   22.4762 H   0  0  0  0  0  0
  -21.1132  -13.1262   22.2603 H   0  0  0  0  0  0
  -24.6784  -15.8506   20.5262 H   0  0  0  0  0  0
  -26.3051  -15.6256   20.1279 H   0  0  0  0  0  0
  -26.7105  -32.5557   23.1169 H   0  0  0  0  0  0
  -25.0108  -33.9795   25.0522 H   0  0  0  0  0  0
  -22.6868  -31.3129   21.4170 H   0  0  0  0  0  0
  -23.3767  -35.9639   23.3270 H   0  0  0  0  0  0
  -24.3601  -36.8972   22.2057 H   0  0  0  0  0  0
  -23.7218  -37.6512   23.6663 H   0  0  0  0  0  0
  -26.0347  -31.6063   20.5947 H   0  0  0  0  0  0
  -26.8143  -30.8940   21.9796 H   0  0  0  0  0  0
  -28.0959  -29.1244   21.1483 H   0  0  0  0  0  0
  -26.0119  -25.9933   18.9942 H   0  0  0  0  0  0
  -23.9664  -27.2991   19.0507 H   0  0  0  0  0  0
  -23.7172  -30.6066   19.4080 H   0  0  0  0  0  0
  -22.7285  -29.2528   19.8677 H   0  0  0  0  0  0
  -25.1275  -36.1984   25.0827 H   0  0  0  0  0  0
  -20.9941  -28.3224   24.1440 H   0  0  0  0  0  0
  -20.5677  -26.2268   23.3596 H   0  0  0  0  0  0
  -21.6633  -26.7451   22.1204 H   0  0  0  0  0  0
  -19.6918  -25.6304   21.1218 H   0  0  0  0  0  0
  -19.6681  -27.3210   20.6750 H   0  0  0  0  0  0
  -17.4191  -26.6671   21.4016 H   0  0  0  0  0  0
  -18.0323  -26.0047   22.9004 H   0  0  0  0  0  0
  -19.7932  -30.7245   24.2281 H   0  0  0  0  0  0
  -17.5015  -31.6259   24.5173 H   0  0  0  0  0  0
  -15.5348  -30.2997   23.7631 H   0  0  0  0  0  0
  -15.8659  -28.0830   22.7040 H   0  0  0  0  0  0
  -24.5967  -30.6953   25.7801 H   0  0  0  0  0  0
  -24.8920  -32.2771   26.4943 H   0  0  0  0  0  0
  -25.8152  -30.8802   27.0207 H   0  0  0  0  0  0
  -26.2814  -29.6789   24.1170 H   0  0  0  0  0  0
  -27.4153  -29.7273   25.4480 H   0  0  0  0  0  0
  -27.8614  -30.4376   23.9136 H   0  0  0  0  0  0
  -27.2709  -33.3579   26.2077 H   0  0  0  0  0  0
  -28.3867  -32.6820   25.0293 H   0  0  0  0  0  0
  -28.0733  -31.8379   26.5378 H   0  0  0  0  0  0
  -28.2564  -38.0146   24.7579 H   0  0  0  0  0  0
  -28.1124  -36.2682   24.6190 H   0  0  0  0  0  0
  -27.2317  -37.1348   25.8864 H   0  0  0  0  0  0
  -20.9279  -29.8772   21.6969 H   0  0  0  0  0  0
  -26.0178  -38.2878   24.1477 H   0  0  0  0  0  0
  -28.6083  -19.2605   21.4965 H   0  0  0  0  0  0
  -33.7619  -18.9356   21.8289 H   0  0  0  0  0  0
  -33.4165  -18.6437   23.5488 H   0  0  0  0  0  0
  -33.1483  -21.1773   22.2221 H   0  0  0  0  0  0
  -32.4856  -20.7747   23.7965 H   0  0  0  0  0  0
  -31.0290  -22.5693   20.2866 H   0  0  0  0  0  0
  -32.1733  -23.5955   21.2285 H   0  0  0  0  0  0
  -28.6803  -24.3437   22.4523 H   0  0  0  0  0  0
  -28.5658  -23.0982   21.1460 H   0  0  0  0  0  0
  -30.8154  -23.4717   23.1996 H   0  0  0  0  0  0
  -29.1173  -21.1825   22.4190 H   0  0  0  0  0  0
  -30.0981  -21.3700   23.8347 H   0  0  0  0  0  0
  -30.6224  -25.4689   19.1495 H   0  0  0  0  0  0
  -29.8363  -23.9265   18.9367 H   0  0  0  0  0  0
  -27.6996  -24.8369   19.8443 H   0  0  0  0  0  0
  -28.2480  -25.6202   18.3750 H   0  0  0  0  0  0
  -29.3287  -14.8997   21.9186 H   0  0  0  0  0  0
  -30.5533  -25.2470   21.4736 H   0  0  0  0  0  0
  1 25  1  0  0  0
  1 30  2  0  0  0
  1 86  1  0  0  0
  2  3  1  0  0  0
  2 25  1  0  0  0
  2 88  1  0  0  0
  2 89  1  0  0  0
  3  4  1  0  0  0
  3 90  1  0  0  0
  3 91  1  0  0  0
  4  5  1  0  0  0
  4 92  1  0  0  0
  4 93  1  0  0  0
  5  6  1  0  0  0
  5 26  1  0  0  0
  5 94  1  0  0  0
  6 25  1  0  0  0
  6 95  1  0  0  0
  6 96  1  0  0  0
  7  8  2  0  0  0
  7 26  1  0  0  0
  7 29  1  0  0  0
  8  9  1  0  0  0
  8 22  1  0  0  0
  9 10  1  0  0  0
  9 27  2  0  0  0
 10 11  2  0  0  0
 10 15  1  0  0  0
 11 12  1  0  0  0
 11 97  1  0  0  0
 12 13  2  0  0  0
 12 98  1  0  0  0
 13 14  1  0  0  0
 13 31  1  0  0  0
 14 15  2  0  0  0
 14 99  1  0  0  0
 15100  1  0  0  0
 16 17  2  0  0  0
 16 21  1  0  0  0
 16 31  1  0  0  0
 17 18  1  0  0  0
 17101  1  0  0  0
 18 19  2  0  0  0
 18102  1  0  0  0
 19 20  1  0  0  0
 19 24  1  0  0  0
 20 21  2  0  0  0
 20103  1  0  0  0
 21 23  1  0  0  0
 22 28  1  0  0  0
 22 32  2  0  0  0
 26 27  1  0  0  0
 28104  1  0  0  0
 28105  1  0  0  0
 29106  1  0  0  0
 29107  1  0  0  0
 33 34  1  0  0  0
 33 66  1  0  0  0
 33 70  2  0  0  0
 34 36  1  0  0  0
 34 59  1  0  0  0
 34108  1  0  0  0
 35 44  2  0  0  0
 35 45  1  0  0  0
 35 68  1  0  0  0
 36 56  1  0  0  0
 36109  1  0  0  0
 37 39  1  0  0  0
 37 47  1  0  0  0
 37 66  1  0  0  0
 37110  1  0  0  0
 38 43  2  0  0  0
 38 46  1  0  0  0
 38 47  1  0  0  0
 39 64  1  0  0  0
 39 67  2  0  0  0
 40 52  1  0  0  0
 40 53  2  0  0  0
 40 58  1  0  0  0
 41111  1  0  0  0
 41112  1  0  0  0
 41113  1  0  0  0
 41 48  1  0  0  0
 42 43  1  0  0  0
 42 66  1  0  0  0
 42114  1  0  0  0
 42115  1  0  0  0
 43 44  1  0  0  0
 44116  1  0  0  0
 45 46  2  0  0  0
 45117  1  0  0  0
 46118  1  0  0  0
 47119  1  0  0  0
 47120  1  0  0  0
 48 56  1  0  0  0
 48 65  1  0  0  0
 48121  1  0  0  0
 49 50  1  0  0  0
 49 53  1  0  0  0
 49 64  1  0  0  0
 49122  1  0  0  0
 50 51  1  0  0  0
 50123  1  0  0  0
 50124  1  0  0  0
 51 52  1  0  0  0
 51125  1  0  0  0
 51126  1  0  0  0
 52127  1  0  0  0
 52128  1  0  0  0
 53 54  1  0  0  0
 54 55  2  0  0  0
 54129  1  0  0  0
 55 57  1  0  0  0
 55130  1  0  0  0
 56 69  2  0  0  0
 57 58  2  0  0  0
 57131  1  0  0  0
 58132  1  0  0  0
 59 60  1  0  0  0
 59 61  1  0  0  0
 59 62  1  0  0  0
 60133  1  0  0  0
 60134  1  0  0  0
 60135  1  0  0  0
 61136  1  0  0  0
 61137  1  0  0  0
 61138  1  0  0  0
 62139  1  0  0  0
 62140  1  0  0  0
 62141  1  0  0  0
 63 65  1  0  0  0
 63142  1  0  0  0
 63143  1  0  0  0
 63144  1  0  0  0
 64145  1  0  0  0
 65146  1  0  0  0
 68 82  1  0  0  0
 71 72  2  0  0  0
 71 83  1  0  0  0
 71147  1  0  0  0
 72 73  1  0  0  0
 72 85  1  0  0  0
 73 75  1  0  0  0
 73 84  2  0  0  0
 74 83  2  0  0  0
 74 84  1  0  0  0
 74 86  1  0  0  0
 75 76  1  0  0  0
 75148  1  0  0  0
 75149  1  0  0  0
 76 85  1  0  0  0
 76150  1  0  0  0
 76151  1  0  0  0
 77 79  1  0  0  0
 77 87  1  0  0  0
 77152  1  0  0  0
 77153  1  0  0  0
 78 79  1  0  0  0
 78 87  1  0  0  0
 78154  1  0  0  0
 78155  1  0  0  0
 79 80  1  0  0  0
 79156  1  0  0  0
 80 85  1  0  0  0
 80157  1  0  0  0
 80158  1  0  0  0
 81 82  1  0  0  0
 81159  1  0  0  0
 81160  1  0  0  0
 81 87  1  0  0  0
 82161  1  0  0  0
 82162  1  0  0  0
 86163  1  0  0  0
 87164  1  0  0  0
M  CHG  1  87   1
M  ISO  4   1 100  68 101  82 101  86 100
M  END
> <chiral flag>
0

> <version>
0

> <s_m_source_file>
/data/baiqing/PycharmProjects/Reinvent-master-3.2/result/LINK_invent/BTK/process_docking_weight1_custom_sum_contain_oxygen_bond_distance_aromatic_linkinvent_7_9_3/rearranged_h_0197.sdf

> <i_m_source_file_index>
37

> <r_mmod_Potential_Energy-OPLS-2005>
-435.158447265625

> <r_mmod_Stretch_Energy-OPLS-2005>
36.0613250732422

> <r_mmod_Bend_Energy-OPLS-2005>
163.6923828125

> <r_mmod_Torsional_Energy-OPLS-2005>
267.435272216797

> <r_mmod_Improper_Torsional_Energy-OPLS-2005>
6.52683591842651

> <r_mmod_Van_der_Waal_Energy-OPLS-2005>
167.491226196289

> <r_mmod_Electrostatic_Energy-OPLS-2005>
-623.470581054688

> <r_mmod_Solvation_Energy-OPLS-2005>
-460.629547119141

> <b_mmod_Minimization_Converged-OPLS-2005>
0

> <r_mmod_RMS_Derivative-OPLS-2005>
0.86069530248642

$$$$
37
                    3D
 Structure written by MMmdl.
167177  0  0  1  0            999 V2000
  -30.6720  -14.5171   20.4776 C   0  0  0  0  0  0
  -30.4224  -12.3144   19.4191 C   0  0  0  0  0  0
  -29.4860  -12.4770   18.2019 C   0  0  0  0  0  0
  -28.0108  -12.3352   18.6293 C   0  0  0  0  0  0
  -27.6516  -13.1976   19.8676 C   0  0  2  0  0  0
  -28.7040  -13.0049   20.9836 C   0  0  0  0  0  0
  -25.2593  -13.8114   20.5776 C   0  0  0  0  0  0
  -24.1829  -13.0416   20.9247 C   0  0  0  0  0  0
  -24.6353  -11.6879   20.8781 C   0  0  0  0  0  0
  -23.9021  -10.4269   21.0426 C   0  0  0  0  0  0
  -24.3581   -9.4186   21.9196 C   0  0  0  0  0  0
  -23.6271   -8.2213   22.0752 C   0  0  0  0  0  0
  -22.4257   -8.0259   21.3537 C   0  0  0  0  0  0
  -21.9890   -9.0237   20.4646 C   0  0  0  0  0  0
  -22.7208  -10.2119   20.3066 C   0  0  0  0  0  0
  -21.6847   -6.0723   22.5280 C   0  0  0  0  0  0
  -21.4002   -6.5631   23.8214 C   0  0  0  0  0  0
  -21.3660   -5.6793   24.9182 C   0  0  0  0  0  0
  -21.6052   -4.3059   24.7236 C   0  0  0  0  0  0
  -21.8812   -3.8143   23.4355 C   0  0  0  0  0  0
  -21.9186   -4.6955   22.3405 C   0  0  0  0  0  0
  -22.7863  -13.5213   21.1903 C   0  0  0  0  0  0
  -22.1655   -4.2135   21.0991 F   0  0  0  0  0  0
  -21.5638   -3.4552   25.7748 F   0  0  0  0  0  0
  -30.0185  -13.3240   20.4083 N   0  0  0  0  0  0
  -26.2976  -12.9249   20.3399 N   0  0  0  0  0  0
  -25.9266  -11.6421   20.5792 N   0  0  0  0  0  0
  -22.0493  -12.8191   22.0438 N   0  0  0  0  0  0
  -25.4430  -15.1817   20.4255 N   0  0  0  0  0  0
  -31.8647  -14.6246   20.1782 O   0  0  0  0  0  0
  -21.6625   -6.8853   21.4231 O   0  0  0  0  0  0
  -22.3571  -14.5538   20.6782 O   0  0  0  0  0  0
  -24.6145  -31.8678   23.2102 C   0  0  0  0  0  0
  -25.9051  -32.4836   23.8387 C   0  0  1  0  0  0
  -27.2362  -27.4436   20.0847 C   0  0  0  0  0  0
  -25.5917  -33.8624   24.2314 N   0  0  0  0  0  0
  -23.3997  -30.4953   21.5488 C   0  0  2  0  0  0
  -24.8449  -28.9609   20.1130 C   0  0  0  0  0  0
  -22.7385  -29.4686   22.4958 C   0  0  0  0  0  0
  -18.0265  -28.1363   22.8490 C   0  0  0  0  0  0
  -24.1479  -36.7303   23.2638 C   0  0  0  0  0  0
  -25.9279  -30.8374   21.3594 C   0  0  0  0  0  0
  -26.0047  -29.4728   20.7043 C   0  0  0  0  0  0
  -27.2038  -28.7241   20.6828 C   0  0  0  0  0  0
  -26.0513  -26.9433   19.4972 C   0  0  0  0  0  0
  -24.8622  -27.6923   19.5089 C   0  0  0  0  0  0
  -23.6082  -29.8284   20.1630 C   0  0  0  0  0  0
  -25.4101  -36.3127   24.0344 C   0  0  1  0  0  0
  -20.5856  -28.3646   23.1303 C   0  0  2  0  0  0
  -20.6755  -26.9378   22.5405 C   0  0  0  0  0  0
  -19.5745  -26.6374   21.5191 C   0  0  0  0  0  0
  -18.1921  -26.7904   22.1606 C   0  0  0  0  0  0
  -19.1519  -28.8820   23.2898 C   0  0  0  0  0  0
  -18.9463  -30.1429   23.8904 C   0  0  0  0  0  0
  -17.6471  -30.6580   24.0557 C   0  0  0  0  0  0
  -25.9045  -34.9493   23.5125 C   0  0  0  0  0  0
  -16.5364  -29.9087   23.6327 C   0  0  0  0  0  0
  -16.7255  -28.6493   23.0348 C   0  0  0  0  0  0
  -26.4456  -31.6616   25.0715 C   0  0  0  0  0  0
  -25.3737  -31.3734   26.1482 C   0  0  0  0  0  0
  -27.0265  -30.3064   24.6076 C   0  0  0  0  0  0
  -27.6034  -32.4316   25.7484 C   0  0  0  0  0  0
  -27.5573  -37.1821   24.8469 C   0  0  0  0  0  0
  -21.4113  -29.3039   22.3715 N   0  0  0  0  0  0
  -26.4282  -37.3821   23.9426 N   0  0  0  0  0  0
  -24.6658  -31.0810   22.0976 N   0  0  0  0  0  0
  -23.4164  -28.8192   23.2971 O   0  0  0  0  0  0
  -28.4180  -26.7257   20.0853 O   0  0  0  0  0  0
  -26.5595  -34.8947   22.4689 O   0  0  0  0  0  0
  -23.5361  -32.1394   23.7562 O   0  0  0  0  0  0
  -29.4107  -22.7123   22.0092 C   0  0  0  0  0  0
  -29.1791  -21.3657   21.9402 C   0  0  0  0  0  0
  -29.0748  -21.0945   20.5374 C   0  0  0  0  0  0
  -29.7867  -20.7257   24.3951 C   0  0  0  0  0  0
  -30.1429  -19.5225   23.5601 C   0  0  0  0  0  0
  -30.0214  -16.4482   19.1114 C   0  0  0  0  0  0
  -29.2782  -16.3188   21.4730 C   0  0  0  0  0  0
  -30.3912  -17.9237   19.4180 C   0  0  0  0  0  0
  -28.5589  -17.6330   21.0707 C   0  0  0  0  0  0
  -29.0287  -20.4448   23.1195 C   0  0  0  0  0  0
  -28.7355  -19.7870   19.8211 C   0  0  0  0  0  0
  -29.6313  -24.5982   20.3335 C   0  0  0  0  0  0
  -28.3128  -25.2996   19.9557 C   0  0  0  0  0  0
  -29.2415  -22.2130   19.8229 N   0  0  0  0  0  0
  -29.4367  -23.2055   20.7288 N   0  0  0  0  0  0
  -29.8698  -15.6095   20.3228 N   0  0  0  0  0  0
  -29.4551  -18.5949   20.3698 N   0  3  0  0  0  0
  -31.4678  -12.4087   19.1182 H   0  0  0  0  0  0
  -30.3260  -11.3154   19.8462 H   0  0  0  0  0  0
  -29.7265  -11.7278   17.4478 H   0  0  0  0  0  0
  -29.6449  -13.4486   17.7306 H   0  0  0  0  0  0
  -27.8439  -11.2839   18.8634 H   0  0  0  0  0  0
  -27.3450  -12.5653   17.7963 H   0  0  0  0  0  0
  -27.6767  -14.2359   19.5435 H   0  0  0  0  0  0
  -28.6957  -11.9716   21.3331 H   0  0  0  0  0  0
  -28.4756  -13.5970   21.8669 H   0  0  0  0  0  0
  -25.2720   -9.5655   22.4784 H   0  0  0  0  0  0
  -24.0007   -7.4573   22.7439 H   0  0  0  0  0  0
  -21.0846   -8.8733   19.8923 H   0  0  0  0  0  0
  -22.3674  -10.9660   19.6183 H   0  0  0  0  0  0
  -21.1979   -7.6140   23.9704 H   0  0  0  0  0  0
  -21.1502   -6.0535   25.9083 H   0  0  0  0  0  0
  -22.0589   -2.7602   23.2870 H   0  0  0  0  0  0
  -22.4146  -11.9851   22.4792 H   0  0  0  0  0  0
  -21.1095  -13.1200   22.2641 H   0  0  0  0  0  0
  -24.6948  -15.8558   20.5521 H   0  0  0  0  0  0
  -26.2990  -15.5925   20.0799 H   0  0  0  0  0  0
  -26.7099  -32.5507   23.1117 H   0  0  0  0  0  0
  -25.0121  -33.9776   25.0510 H   0  0  0  0  0  0
  -22.6903  -31.3153   21.4125 H   0  0  0  0  0  0
  -23.3773  -35.9614   23.3324 H   0  0  0  0  0  0
  -24.3580  -36.8898   22.2053 H   0  0  0  0  0  0
  -23.7199  -37.6511   23.6615 H   0  0  0  0  0  0
  -26.0404  -31.6075   20.5955 H   0  0  0  0  0  0
  -26.8191  -30.8883   21.9746 H   0  0  0  0  0  0
  -28.0978  -29.1253   21.1367 H   0  0  0  0  0  0
  -26.0237  -25.9772   19.0178 H   0  0  0  0  0  0
  -23.9717  -27.2864   19.0473 H   0  0  0  0  0  0
  -23.7138  -30.6054   19.4030 H   0  0  0  0  0  0
  -22.7311  -29.2516   19.8621 H   0  0  0  0  0  0
  -25.1287  -36.1993   25.0841 H   0  0  0  0  0  0
  -20.9954  -28.3190   24.1415 H   0  0  0  0  0  0
  -20.5624  -26.2249   23.3588 H   0  0  0  0  0  0
  -21.6625  -26.7397   22.1224 H   0  0  0  0  0  0
  -19.6910  -25.6289   21.1207 H   0  0  0  0  0  0
  -19.6691  -27.3189   20.6721 H   0  0  0  0  0  0
  -17.4186  -26.6650   21.4014 H   0  0  0  0  0  0
  -18.0339  -26.0034   22.8993 H   0  0  0  0  0  0
  -19.7951  -30.7233   24.2269 H   0  0  0  0  0  0
  -17.5042  -31.6265   24.5156 H   0  0  0  0  0  0
  -15.5363  -30.3011   23.7648 H   0  0  0  0  0  0
  -15.8644  -28.0834   22.7058 H   0  0  0  0  0  0
  -24.5900  -30.7068   25.7845 H   0  0  0  0  0  0
  -24.8925  -32.2899   26.4924 H   0  0  0  0  0  0
  -25.8123  -30.8925   27.0234 H   0  0  0  0  0  0
  -26.2796  -29.6885   24.1067 H   0  0  0  0  0  0
  -27.4005  -29.7244   25.4514 H   0  0  0  0  0  0
  -27.8635  -30.4438   23.9226 H   0  0  0  0  0  0
  -27.2650  -33.3611   26.2077 H   0  0  0  0  0  0
  -28.3816  -32.6894   25.0289 H   0  0  0  0  0  0
  -28.0690  -31.8416   26.5386 H   0  0  0  0  0  0
  -28.2624  -38.0095   24.7547 H   0  0  0  0  0  0
  -28.1054  -36.2649   24.6263 H   0  0  0  0  0  0
  -27.2299  -37.1414   25.8876 H   0  0  0  0  0  0
  -20.9248  -29.8825   21.7009 H   0  0  0  0  0  0
  -26.0182  -38.2910   24.1460 H   0  0  0  0  0  0
  -29.5406  -23.3615   22.8658 H   0  0  0  0  0  0
  -30.5044  -21.5449   24.3986 H   0  0  0  0  0  0
  -29.2569  -20.5683   25.3317 H   0  0  0  0  0  0
  -29.8678  -18.5452   23.9539 H   0  0  0  0  0  0
  -31.0931  -19.5689   23.0304 H   0  0  0  0  0  0
  -30.7623  -16.0365   18.4201 H   0  0  0  0  0  0
  -29.0804  -16.4226   18.5591 H   0  0  0  0  0  0
  -30.0678  -16.5459   22.1928 H   0  0  0  0  0  0
  -28.5618  -15.6879   21.9924 H   0  0  0  0  0  0
  -30.4915  -18.4727   18.4818 H   0  0  0  0  0  0
  -31.3840  -17.9490   19.8697 H   0  0  0  0  0  0
  -28.1143  -18.1027   21.9476 H   0  0  0  0  0  0
  -27.7215  -17.3830   20.4125 H   0  0  0  0  0  0
  -28.0032  -20.0994   23.2403 H   0  0  0  0  0  0
  -28.9313  -19.9022   18.7552 H   0  0  0  0  0  0
  -27.6566  -19.6279   19.8662 H   0  0  0  0  0  0
  -30.0724  -25.1185   21.1850 H   0  0  0  0  0  0
  -30.3627  -24.6556   19.5283 H   0  0  0  0  0  0
  -27.5186  -24.9395   20.6140 H   0  0  0  0  0  0
  -28.0385  -25.0292   18.9371 H   0  0  0  0  0  0
  -30.0565  -18.9960   21.0729 H   0  0  0  0  0  0
  1 25  1  0  0  0
  1 30  2  0  0  0
  1 86  1  0  0  0
  2  3  1  0  0  0
  2 25  1  0  0  0
  2 88  1  0  0  0
  2 89  1  0  0  0
  3  4  1  0  0  0
  3 90  1  0  0  0
  3 91  1  0  0  0
  4  5  1  0  0  0
  4 92  1  0  0  0
  4 93  1  0  0  0
  5  6  1  0  0  0
  5 26  1  0  0  0
  5 94  1  0  0  0
  6 25  1  0  0  0
  6 95  1  0  0  0
  6 96  1  0  0  0
  7  8  2  0  0  0
  7 26  1  0  0  0
  7 29  1  0  0  0
  8  9  1  0  0  0
  8 22  1  0  0  0
  9 10  1  0  0  0
  9 27  2  0  0  0
 10 11  2  0  0  0
 10 15  1  0  0  0
 11 12  1  0  0  0
 11 97  1  0  0  0
 12 13  2  0  0  0
 12 98  1  0  0  0
 13 14  1  0  0  0
 13 31  1  0  0  0
 14 15  2  0  0  0
 14 99  1  0  0  0
 15100  1  0  0  0
 16 17  2  0  0  0
 16 21  1  0  0  0
 16 31  1  0  0  0
 17 18  1  0  0  0
 17101  1  0  0  0
 18 19  2  0  0  0
 18102  1  0  0  0
 19 20  1  0  0  0
 19 24  1  0  0  0
 20 21  2  0  0  0
 20103  1  0  0  0
 21 23  1  0  0  0
 22 28  1  0  0  0
 22 32  2  0  0  0
 26 27  1  0  0  0
 28104  1  0  0  0
 28105  1  0  0  0
 29106  1  0  0  0
 29107  1  0  0  0
 33 34  1  0  0  0
 33 66  1  0  0  0
 33 70  2  0  0  0
 34 36  1  0  0  0
 34 59  1  0  0  0
 34108  1  0  0  0
 35 44  2  0  0  0
 35 45  1  0  0  0
 35 68  1  0  0  0
 36 56  1  0  0  0
 36109  1  0  0  0
 37 39  1  0  0  0
 37 47  1  0  0  0
 37 66  1  0  0  0
 37110  1  0  0  0
 38 43  2  0  0  0
 38 46  1  0  0  0
 38 47  1  0  0  0
 39 64  1  0  0  0
 39 67  2  0  0  0
 40 52  1  0  0  0
 40 53  2  0  0  0
 40 58  1  0  0  0
 41111  1  0  0  0
 41112  1  0  0  0
 41113  1  0  0  0
 41 48  1  0  0  0
 42 43  1  0  0  0
 42 66  1  0  0  0
 42114  1  0  0  0
 42115  1  0  0  0
 43 44  1  0  0  0
 44116  1  0  0  0
 45 46  2  0  0  0
 45117  1  0  0  0
 46118  1  0  0  0
 47119  1  0  0  0
 47120  1  0  0  0
 48 56  1  0  0  0
 48 65  1  0  0  0
 48121  1  0  0  0
 49 50  1  0  0  0
 49 53  1  0  0  0
 49 64  1  0  0  0
 49122  1  0  0  0
 50 51  1  0  0  0
 50123  1  0  0  0
 50124  1  0  0  0
 51 52  1  0  0  0
 51125  1  0  0  0
 51126  1  0  0  0
 52127  1  0  0  0
 52128  1  0  0  0
 53 54  1  0  0  0
 54 55  2  0  0  0
 54129  1  0  0  0
 55 57  1  0  0  0
 55130  1  0  0  0
 56 69  2  0  0  0
 57 58  2  0  0  0
 57131  1  0  0  0
 58132  1  0  0  0
 59 60  1  0  0  0
 59 61  1  0  0  0
 59 62  1  0  0  0
 60133  1  0  0  0
 60134  1  0  0  0
 60135  1  0  0  0
 61136  1  0  0  0
 61137  1  0  0  0
 61138  1  0  0  0
 62139  1  0  0  0
 62140  1  0  0  0
 62141  1  0  0  0
 63 65  1  0  0  0
 63142  1  0  0  0
 63143  1  0  0  0
 63144  1  0  0  0
 64145  1  0  0  0
 65146  1  0  0  0
 68 83  1  0  0  0
 71 72  2  0  0  0
 71 85  1  0  0  0
 71147  1  0  0  0
 72 73  1  0  0  0
 72 80  1  0  0  0
 73 81  1  0  0  0
 73 84  2  0  0  0
 74 75  1  0  0  0
 74 80  1  0  0  0
 74148  1  0  0  0
 74149  1  0  0  0
 75 80  1  0  0  0
 75150  1  0  0  0
 75151  1  0  0  0
 76 78  1  0  0  0
 76 86  1  0  0  0
 76152  1  0  0  0
 76153  1  0  0  0
 77 79  1  0  0  0
 77 86  1  0  0  0
 77154  1  0  0  0
 77155  1  0  0  0
 78 87  1  0  0  0
 78156  1  0  0  0
 78157  1  0  0  0
 79 87  1  0  0  0
 79158  1  0  0  0
 79159  1  0  0  0
 80160  1  0  0  0
 81161  1  0  0  0
 81162  1  0  0  0
 81 87  1  0  0  0
 82 83  1  0  0  0
 82 85  1  0  0  0
 82163  1  0  0  0
 82164  1  0  0  0
 83165  1  0  0  0
 83166  1  0  0  0
 84 85  1  0  0  0
 87167  1  0  0  0
M  CHG  1  87   1
M  ISO  4   1 100  68 101  83 101  86 100
M  END
> <chiral flag>
0

> <version>
0

> <s_m_source_file>
/data/baiqing/PycharmProjects/Reinvent-master-3.2/result/LINK_invent/BTK/process_docking_weight1_custom_sum_contain_oxygen_bond_distance_aromatic_linkinvent_7_9_3/rearranged_h_0197.sdf

> <i_m_source_file_index>
38

> <r_mmod_Potential_Energy-OPLS-2005>
42.7819747924805

> <r_mmod_Stretch_Energy-OPLS-2005>
40.9350471496582

> <r_mmod_Bend_Energy-OPLS-2005>
102.157173156738

> <r_mmod_Torsional_Energy-OPLS-2005>
431.236022949219

> <r_mmod_Improper_Torsional_Energy-OPLS-2005>
20.5366039276123

> <r_mmod_Van_der_Waal_Energy-OPLS-2005>
133.969009399414

> <r_mmod_Electrostatic_Energy-OPLS-2005>
-262.670135498047

> <r_mmod_Solvation_Energy-OPLS-2005>
-443.579010009766

> <b_mmod_Minimization_Converged-OPLS-2005>
0

> <r_mmod_RMS_Derivative-OPLS-2005>
3.94772362709045

$$$$
38
                    3D
 Structure written by MMmdl.
163172  0  0  1  0            999 V2000
  -30.7054  -14.4331   20.5948 C   0  0  0  0  0  0
  -30.4149  -12.2851   19.4213 C   0  0  0  0  0  0
  -29.4988  -12.4927   18.1993 C   0  0  0  0  0  0
  -28.0155  -12.3723   18.6026 C   0  0  0  0  0  0
  -27.6588  -13.2046   19.8641 C   0  0  2  0  0  0
  -28.6921  -12.9700   20.9877 C   0  0  0  0  0  0
  -25.2615  -13.8174   20.5671 C   0  0  0  0  0  0
  -24.1847  -13.0457   20.9144 C   0  0  0  0  0  0
  -24.6366  -11.6904   20.8696 C   0  0  0  0  0  0
  -23.9039  -10.4297   21.0404 C   0  0  0  0  0  0
  -24.3582   -9.4228   21.9206 C   0  0  0  0  0  0
  -23.6247   -8.2262   22.0785 C   0  0  0  0  0  0
  -22.4239   -8.0292   21.3560 C   0  0  0  0  0  0
  -21.9851   -9.0283   20.4669 C   0  0  0  0  0  0
  -22.7217  -10.2141   20.3065 C   0  0  0  0  0  0
  -21.6859   -6.0692   22.5275 C   0  0  0  0  0  0
  -21.4033   -6.5615   23.8204 C   0  0  0  0  0  0
  -21.3660   -5.6782   24.9177 C   0  0  0  0  0  0
  -21.6038   -4.3037   24.7248 C   0  0  0  0  0  0
  -21.8834   -3.8104   23.4377 C   0  0  0  0  0  0
  -21.9200   -4.6909   22.3416 C   0  0  0  0  0  0
  -22.7881  -13.5298   21.1776 C   0  0  0  0  0  0
  -22.1667   -4.2079   21.0992 F   0  0  0  0  0  0
  -21.5599   -3.4538   25.7767 F   0  0  0  0  0  0
  -30.0292  -13.2659   20.4440 N   0  0  0  0  0  0
  -26.3004  -12.9311   20.3266 N   0  0  0  0  0  0
  -25.9278  -11.6482   20.5671 N   0  0  0  0  0  0
  -22.0455  -12.8316   22.0285 N   0  0  0  0  0  0
  -25.4413  -15.1896   20.4155 N   0  0  0  0  0  0
  -31.8241  -14.6382   20.1179 O   0  0  0  0  0  0
  -21.6643   -6.8844   21.4230 O   0  0  0  0  0  0
  -22.3609  -14.5626   20.6633 O   0  0  0  0  0  0
  -24.6150  -31.8695   23.2106 C   0  0  0  0  0  0
  -25.9049  -32.4822   23.8377 C   0  0  1  0  0  0
  -27.2482  -27.4521   20.0603 C   0  0  0  0  0  0
  -25.5928  -33.8615   24.2334 N   0  0  0  0  0  0
  -23.4007  -30.4899   21.5540 C   0  0  2  0  0  0
  -24.8440  -28.9556   20.1168 C   0  0  0  0  0  0
  -22.7398  -29.4649   22.5020 C   0  0  0  0  0  0
  -18.0272  -28.1374   22.8479 C   0  0  0  0  0  0
  -24.1462  -36.7284   23.2617 C   0  0  0  0  0  0
  -25.9271  -30.8346   21.3607 C   0  0  0  0  0  0
  -26.0038  -29.4680   20.7099 C   0  0  0  0  0  0
  -27.2024  -28.7205   20.6872 C   0  0  0  0  0  0
  -26.0577  -26.9414   19.4884 C   0  0  0  0  0  0
  -24.8635  -27.6878   19.5123 C   0  0  0  0  0  0
  -23.6047  -29.8205   20.1695 C   0  0  0  0  0  0
  -25.4079  -36.3095   24.0327 C   0  0  1  0  0  0
  -20.5858  -28.3648   23.1316 C   0  0  2  0  0  0
  -20.6768  -26.9387   22.5414 C   0  0  0  0  0  0
  -19.5751  -26.6381   21.5201 C   0  0  0  0  0  0
  -18.1917  -26.7933   22.1590 C   0  0  0  0  0  0
  -19.1525  -28.8824   23.2896 C   0  0  0  0  0  0
  -18.9455  -30.1435   23.8910 C   0  0  0  0  0  0
  -17.6462  -30.6570   24.0565 C   0  0  0  0  0  0
  -25.9036  -34.9477   23.5129 C   0  0  0  0  0  0
  -16.5346  -29.9067   23.6332 C   0  0  0  0  0  0
  -16.7264  -28.6482   23.0345 C   0  0  0  0  0  0
  -26.4472  -31.6604   25.0708 C   0  0  0  0  0  0
  -25.3736  -31.3748   26.1468 C   0  0  0  0  0  0
  -27.0300  -30.3046   24.6077 C   0  0  0  0  0  0
  -27.6043  -32.4316   25.7493 C   0  0  0  0  0  0
  -27.5579  -37.1772   24.8412 C   0  0  0  0  0  0
  -21.4136  -29.3014   22.3732 N   0  0  0  0  0  0
  -26.4243  -37.3803   23.9434 N   0  0  0  0  0  0
  -24.6658  -31.0775   22.1011 N   0  0  0  0  0  0
  -23.4164  -28.8190   23.3064 O   0  0  0  0  0  0
  -28.4578  -26.7821   20.0303 O   0  0  0  0  0  0
  -26.5582  -34.8926   22.4685 O   0  0  0  0  0  0
  -23.5344  -32.1446   23.7508 O   0  0  0  0  0  0
  -28.5127  -20.6039   20.9133 C   0  0  0  0  0  0
  -29.4110  -17.8445   21.6942 C   0  0  0  0  0  0
  -30.7744  -17.6569   20.1977 C   0  0  0  0  0  0
  -29.8567  -21.3021   20.8717 C   0  0  1  0  0  0
  -30.4922  -16.7936   21.4295 C   0  0  2  0  0  0
  -29.6919  -19.9183   20.2434 C   0  0  1  0  0  0
  -31.5174  -22.8474   19.7440 C   0  0  0  0  0  0
  -28.2285  -24.3373   20.0160 C   0  0  0  0  0  0
  -28.6062  -25.6071   19.2205 C   0  0  0  0  0  0
  -30.0311  -22.5678   20.0265 C   0  0  2  0  0  0
  -30.0193  -15.4190   21.1985 N   0  0  0  0  0  0
  -30.3103  -18.7954   21.0121 N   0  3  1  0  0  0
  -29.3954  -23.7259   20.7083 N   0  3  0  0  0  0
  -31.4631  -12.3724   19.1301 H   0  0  0  0  0  0
  -30.2989  -11.2742   19.8146 H   0  0  0  0  0  0
  -29.7329  -11.7610   17.4245 H   0  0  0  0  0  0
  -29.6868  -13.4741   17.7597 H   0  0  0  0  0  0
  -27.8067  -11.3168   18.7821 H   0  0  0  0  0  0
  -27.3807  -12.6688   17.7651 H   0  0  0  0  0  0
  -27.7063  -14.2561   19.5767 H   0  0  0  0  0  0
  -28.6516  -11.9337   21.3266 H   0  0  0  0  0  0
  -28.4440  -13.5687   21.8664 H   0  0  0  0  0  0
  -25.2706   -9.5699   22.4794 H   0  0  0  0  0  0
  -23.9939   -7.4658   22.7526 H   0  0  0  0  0  0
  -21.0767   -8.8842   19.8983 H   0  0  0  0  0  0
  -22.3713  -10.9680   19.6155 H   0  0  0  0  0  0
  -21.2044   -7.6121   23.9707 H   0  0  0  0  0  0
  -21.1455   -6.0498   25.9080 H   0  0  0  0  0  0
  -22.0594   -2.7536   23.2952 H   0  0  0  0  0  0
  -22.3975  -11.9942   22.4694 H   0  0  0  0  0  0
  -21.1096  -13.1454   22.2418 H   0  0  0  0  0  0
  -24.6892  -15.8581   20.5533 H   0  0  0  0  0  0
  -26.2887  -15.6143   20.0611 H   0  0  0  0  0  0
  -26.7128  -32.5549   23.1149 H   0  0  0  0  0  0
  -25.0162  -33.9766   25.0538 H   0  0  0  0  0  0
  -22.6889  -31.3072   21.4169 H   0  0  0  0  0  0
  -23.3769  -35.9566   23.3202 H   0  0  0  0  0  0
  -24.3585  -36.8987   22.2050 H   0  0  0  0  0  0
  -23.7140  -37.6432   23.6686 H   0  0  0  0  0  0
  -26.0357  -31.5993   20.5896 H   0  0  0  0  0  0
  -26.8156  -30.8903   21.9780 H   0  0  0  0  0  0
  -28.1008  -29.1218   21.1351 H   0  0  0  0  0  0
  -26.0212  -25.9727   19.0122 H   0  0  0  0  0  0
  -23.9690  -27.2807   19.0589 H   0  0  0  0  0  0
  -23.7035  -30.5940   19.4070 H   0  0  0  0  0  0
  -22.7287  -29.2357   19.8817 H   0  0  0  0  0  0
  -25.1233  -36.1955   25.0811 H   0  0  0  0  0  0
  -20.9933  -28.3230   24.1448 H   0  0  0  0  0  0
  -20.5665  -26.2258   23.3595 H   0  0  0  0  0  0
  -21.6655  -26.7437   22.1219 H   0  0  0  0  0  0
  -19.6917  -25.6308   21.1199 H   0  0  0  0  0  0
  -19.6689  -27.3221   20.6753 H   0  0  0  0  0  0
  -17.4202  -26.6710   21.3967 H   0  0  0  0  0  0
  -18.0275  -26.0043   22.8936 H   0  0  0  0  0  0
  -19.7935  -30.7247   24.2273 H   0  0  0  0  0  0
  -17.5017  -31.6242   24.5169 H   0  0  0  0  0  0
  -15.5353  -30.2969   23.7649 H   0  0  0  0  0  0
  -15.8663  -28.0799   22.7065 H   0  0  0  0  0  0
  -24.5915  -30.7068   25.7842 H   0  0  0  0  0  0
  -24.8930  -32.2930   26.4853 H   0  0  0  0  0  0
  -25.8099  -30.8986   27.0255 H   0  0  0  0  0  0
  -26.2853  -29.6843   24.1074 H   0  0  0  0  0  0
  -27.4026  -29.7240   25.4523 H   0  0  0  0  0  0
  -27.8696  -30.4367   23.9249 H   0  0  0  0  0  0
  -27.2650  -33.3619   26.2058 H   0  0  0  0  0  0
  -28.3877  -32.6865   25.0348 H   0  0  0  0  0  0
  -28.0665  -31.8447   26.5438 H   0  0  0  0  0  0
  -28.2492  -38.0172   24.7642 H   0  0  0  0  0  0
  -28.1185  -36.2734   24.5986 H   0  0  0  0  0  0
  -27.2349  -37.1123   25.8814 H   0  0  0  0  0  0
  -20.9297  -29.8749   21.6970 H   0  0  0  0  0  0
  -26.0128  -38.2857   24.1551 H   0  0  0  0  0  0
  -27.7279  -20.9703   20.2521 H   0  0  0  0  0  0
  -28.1625  -20.2730   21.8891 H   0  0  0  0  0  0
  -29.2537  -18.0795   22.7458 H   0  0  0  0  0  0
  -28.4652  -17.6780   21.1710 H   0  0  0  0  0  0
  -30.1308  -17.4406   19.3387 H   0  0  0  0  0  0
  -31.8245  -17.7122   19.9118 H   0  0  0  0  0  0
  -30.3903  -21.3437   21.8224 H   0  0  0  0  0  0
  -31.3045  -16.8397   22.1607 H   0  0  0  0  0  0
  -29.7089  -19.8110   19.1604 H   0  0  0  0  0  0
  -31.9844  -21.9982   19.2436 H   0  0  0  0  0  0
  -32.0750  -23.0280   20.6635 H   0  0  0  0  0  0
  -31.6537  -23.7139   19.0918 H   0  0  0  0  0  0
  -27.7398  -23.6062   19.3694 H   0  0  0  0  0  0
  -27.4831  -24.5995   20.7661 H   0  0  0  0  0  0
  -28.0347  -25.6824   18.2954 H   0  0  0  0  0  0
  -29.6429  -25.5518   18.8842 H   0  0  0  0  0  0
  -29.5514  -22.4017   19.0598 H   0  0  0  0  0  0
  -29.1040  -15.1637   21.5431 H   0  0  0  0  0  0
  -31.0444  -19.1058   21.6313 H   0  0  0  0  0  0
  -29.0733  -23.3980   21.6059 H   0  0  0  0  0  0
  -30.0822  -24.4414   20.8964 H   0  0  0  0  0  0
  1 25  1  0  0  0
  1 30  2  0  0  0
  1 81  1  0  0  0
  2  3  1  0  0  0
  2 25  1  0  0  0
  2 84  1  0  0  0
  2 85  1  0  0  0
  3  4  1  0  0  0
  3 86  1  0  0  0
  3 87  1  0  0  0
  4  5  1  0  0  0
  4 88  1  0  0  0
  4 89  1  0  0  0
  5  6  1  0  0  0
  5 26  1  0  0  0
  5 90  1  0  0  0
  6 25  1  0  0  0
  6 91  1  0  0  0
  6 92  1  0  0  0
  7  8  2  0  0  0
  7 26  1  0  0  0
  7 29  1  0  0  0
  8  9  1  0  0  0
  8 22  1  0  0  0
  9 10  1  0  0  0
  9 27  2  0  0  0
 10 11  2  0  0  0
 10 15  1  0  0  0
 11 12  1  0  0  0
 11 93  1  0  0  0
 12 13  2  0  0  0
 12 94  1  0  0  0
 13 14  1  0  0  0
 13 31  1  0  0  0
 14 15  2  0  0  0
 14 95  1  0  0  0
 15 96  1  0  0  0
 16 17  2  0  0  0
 16 21  1  0  0  0
 16 31  1  0  0  0
 17 18  1  0  0  0
 17 97  1  0  0  0
 18 19  2  0  0  0
 18 98  1  0  0  0
 19 20  1  0  0  0
 19 24  1  0  0  0
 20 21  2  0  0  0
 20 99  1  0  0  0
 21 23  1  0  0  0
 22 28  1  0  0  0
 22 32  2  0  0  0
 26 27  1  0  0  0
 28100  1  0  0  0
 28101  1  0  0  0
 29102  1  0  0  0
 29103  1  0  0  0
 33 34  1  0  0  0
 33 66  1  0  0  0
 33 70  2  0  0  0
 34 36  1  0  0  0
 34 59  1  0  0  0
 34104  1  0  0  0
 35 44  2  0  0  0
 35 45  1  0  0  0
 35 68  1  0  0  0
 36 56  1  0  0  0
 36105  1  0  0  0
 37 39  1  0  0  0
 37 47  1  0  0  0
 37 66  1  0  0  0
 37106  1  0  0  0
 38 43  2  0  0  0
 38 46  1  0  0  0
 38 47  1  0  0  0
 39 64  1  0  0  0
 39 67  2  0  0  0
 40 52  1  0  0  0
 40 53  2  0  0  0
 40 58  1  0  0  0
 41107  1  0  0  0
 41108  1  0  0  0
 41109  1  0  0  0
 41 48  1  0  0  0
 42 43  1  0  0  0
 42 66  1  0  0  0
 42110  1  0  0  0
 42111  1  0  0  0
 43 44  1  0  0  0
 44112  1  0  0  0
 45 46  2  0  0  0
 45113  1  0  0  0
 46114  1  0  0  0
 47115  1  0  0  0
 47116  1  0  0  0
 48 56  1  0  0  0
 48 65  1  0  0  0
 48117  1  0  0  0
 49 50  1  0  0  0
 49 53  1  0  0  0
 49 64  1  0  0  0
 49118  1  0  0  0
 50 51  1  0  0  0
 50119  1  0  0  0
 50120  1  0  0  0
 51 52  1  0  0  0
 51121  1  0  0  0
 51122  1  0  0  0
 52123  1  0  0  0
 52124  1  0  0  0
 53 54  1  0  0  0
 54 55  2  0  0  0
 54125  1  0  0  0
 55 57  1  0  0  0
 55126  1  0  0  0
 56 69  2  0  0  0
 57 58  2  0  0  0
 57127  1  0  0  0
 58128  1  0  0  0
 59 60  1  0  0  0
 59 61  1  0  0  0
 59 62  1  0  0  0
 60129  1  0  0  0
 60130  1  0  0  0
 60131  1  0  0  0
 61132  1  0  0  0
 61133  1  0  0  0
 61134  1  0  0  0
 62135  1  0  0  0
 62136  1  0  0  0
 62137  1  0  0  0
 63 65  1  0  0  0
 63138  1  0  0  0
 63139  1  0  0  0
 63140  1  0  0  0
 64141  1  0  0  0
 65142  1  0  0  0
 68 79  1  0  0  0
 71143  1  0  0  0
 71144  1  0  0  0
 71 74  1  0  0  0
 71 76  1  0  0  0
 72 75  1  0  0  0
 72145  1  0  0  0
 72146  1  0  0  0
 72 82  1  0  0  0
 73 75  1  0  0  0
 73 82  1  0  0  0
 73147  1  0  0  0
 73148  1  0  0  0
 74 76  1  0  0  0
 74 80  1  0  0  0
 74149  1  0  0  0
 75 81  1  0  0  0
 75150  1  0  0  0
 76 82  1  0  0  0
 76151  1  0  0  0
 77152  1  0  0  0
 77153  1  0  0  0
 77154  1  0  0  0
 77 80  1  0  0  0
 78 79  1  0  0  0
 78 83  1  0  0  0
 78155  1  0  0  0
 78156  1  0  0  0
 79157  1  0  0  0
 79158  1  0  0  0
 80 83  1  0  0  0
 80159  1  0  0  0
 81160  1  0  0  0
 82161  1  0  0  0
 83162  1  0  0  0
 83163  1  0  0  0
M  CHG  2  82   1  83   1
M  ISO  4   1 100  68 101  79 101  81 100
M  END
> <chiral flag>
0

> <version>
0

> <s_m_source_file>
/data/baiqing/PycharmProjects/Reinvent-master-3.2/result/LINK_invent/BTK/process_docking_weight1_custom_sum_contain_oxygen_bond_distance_aromatic_linkinvent_7_9_3/rearranged_h_0197.sdf

> <i_m_source_file_index>
39

> <r_mmod_Potential_Energy-OPLS-2005>
-267.655975341797

> <r_mmod_Stretch_Energy-OPLS-2005>
36.4757385253906

> <r_mmod_Bend_Energy-OPLS-2005>
129.935913085938

> <r_mmod_Torsional_Energy-OPLS-2005>
312.808624267578

> <r_mmod_Improper_Torsional_Energy-OPLS-2005>
2.82260918617249

> <r_mmod_Van_der_Waal_Energy-OPLS-2005>
134.499893188477

> <r_mmod_Electrostatic_Energy-OPLS-2005>
62.2171516418457

> <r_mmod_Solvation_Energy-OPLS-2005>
-957.30908203125

> <b_mmod_Minimization_Converged-OPLS-2005>
0

> <r_mmod_RMS_Derivative-OPLS-2005>
4.45924472808838

$$$$
39
                    3D
 Structure written by MMmdl.
158167  0  0  1  0            999 V2000
  -30.6841  -14.5691   20.5204 C   0  0  0  0  0  0
  -30.4273  -12.3563   19.4389 C   0  0  0  0  0  0
  -29.5024  -12.5052   18.2126 C   0  0  0  0  0  0
  -28.0213  -12.3700   18.6213 C   0  0  0  0  0  0
  -27.6582  -13.2183   19.8713 C   0  0  2  0  0  0
  -28.7059  -13.0341   20.9915 C   0  0  0  0  0  0
  -25.2589  -13.8184   20.5708 C   0  0  0  0  0  0
  -24.1846  -13.0446   20.9190 C   0  0  0  0  0  0
  -24.6410  -11.6919   20.8740 C   0  0  0  0  0  0
  -23.9071  -10.4304   21.0399 C   0  0  0  0  0  0
  -24.3622   -9.4215   21.9174 C   0  0  0  0  0  0
  -23.6293   -8.2255   22.0744 C   0  0  0  0  0  0
  -22.4275   -8.0294   21.3543 C   0  0  0  0  0  0
  -21.9909   -9.0275   20.4650 C   0  0  0  0  0  0
  -22.7240  -10.2150   20.3055 C   0  0  0  0  0  0
  -21.6859   -6.0738   22.5277 C   0  0  0  0  0  0
  -21.4018   -6.5639   23.8210 C   0  0  0  0  0  0
  -21.3660   -5.6791   24.9170 C   0  0  0  0  0  0
  -21.6040   -4.3053   24.7222 C   0  0  0  0  0  0
  -21.8821   -3.8148   23.4344 C   0  0  0  0  0  0
  -21.9201   -4.6965   22.3405 C   0  0  0  0  0  0
  -22.7870  -13.5247   21.1841 C   0  0  0  0  0  0
  -22.1671   -4.2154   21.0980 F   0  0  0  0  0  0
  -21.5626   -3.4535   25.7729 F   0  0  0  0  0  0
  -30.0183  -13.3763   20.4249 N   0  0  0  0  0  0
  -26.3022  -12.9365   20.3366 N   0  0  0  0  0  0
  -25.9342  -11.6512   20.5758 N   0  0  0  0  0  0
  -22.0511  -12.8254   22.0405 N   0  0  0  0  0  0
  -25.4307  -15.1901   20.4135 N   0  0  0  0  0  0
  -31.8428  -14.6758   20.1050 O   0  0  0  0  0  0
  -21.6643   -6.8884   21.4235 O   0  0  0  0  0  0
  -22.3555  -14.5554   20.6681 O   0  0  0  0  0  0
  -24.6190  -31.8638   23.2051 C   0  0  0  0  0  0
  -25.9063  -32.4801   23.8369 C   0  0  1  0  0  0
  -27.2308  -27.3890   20.1106 C   0  0  0  0  0  0
  -25.5920  -33.8604   24.2301 N   0  0  0  0  0  0
  -23.4088  -30.4862   21.5457 C   0  0  2  0  0  0
  -24.8555  -28.9446   20.1137 C   0  0  0  0  0  0
  -22.7422  -29.4639   22.4956 C   0  0  0  0  0  0
  -18.0275  -28.1373   22.8490 C   0  0  0  0  0  0
  -24.1489  -36.7295   23.2634 C   0  0  0  0  0  0
  -25.9411  -30.8191   21.3615 C   0  0  0  0  0  0
  -26.0191  -29.4491   20.7087 C   0  0  0  0  0  0
  -27.2128  -28.6823   20.6962 C   0  0  0  0  0  0
  -26.0503  -26.9102   19.5040 C   0  0  0  0  0  0
  -24.8679  -27.6770   19.5058 C   0  0  0  0  0  0
  -23.6185  -29.8162   20.1618 C   0  0  0  0  0  0
  -25.4113  -36.3097   24.0330 C   0  0  1  0  0  0
  -20.5867  -28.3661   23.1304 C   0  0  2  0  0  0
  -20.6770  -26.9393   22.5410 C   0  0  0  0  0  0
  -19.5748  -26.6380   21.5209 C   0  0  0  0  0  0
  -18.1923  -26.7918   22.1620 C   0  0  0  0  0  0
  -19.1524  -28.8833   23.2895 C   0  0  0  0  0  0
  -18.9457  -30.1444   23.8903 C   0  0  0  0  0  0
  -17.6459  -30.6582   24.0561 C   0  0  0  0  0  0
  -25.9042  -34.9465   23.5103 C   0  0  0  0  0  0
  -16.5348  -29.9082   23.6328 C   0  0  0  0  0  0
  -16.7263  -28.6495   23.0351 C   0  0  0  0  0  0
  -26.4471  -31.6588   25.0713 C   0  0  0  0  0  0
  -25.3739  -31.3702   26.1465 C   0  0  0  0  0  0
  -27.0287  -30.3022   24.6105 C   0  0  0  0  0  0
  -27.6041  -32.4302   25.7493 C   0  0  0  0  0  0
  -27.5571  -37.1803   24.8466 C   0  0  0  0  0  0
  -21.4144  -29.3026   22.3701 N   0  0  0  0  0  0
  -26.4285  -37.3793   23.9411 N   0  0  0  0  0  0
  -24.6747  -31.0719   22.0954 N   0  0  0  0  0  0
  -23.4174  -28.8175   23.3010 O   0  0  0  0  0  0
  -28.3756  -26.6053   20.1155 O   0  0  0  0  0  0
  -26.5597  -34.8920   22.4659 O   0  0  0  0  0  0
  -23.5375  -32.1391   23.7432 O   0  0  0  0  0  0
  -27.6865  -21.9984   20.9420 C   0  0  0  0  0  0
  -29.2406  -20.6705   20.5311 C   0  0  0  0  0  0
  -29.4368  -17.6189   22.0902 C   0  0  0  0  0  0
  -29.2885  -16.0905   21.9531 C   0  0  0  0  0  0
  -30.1902  -16.9649   19.9433 C   0  0  0  0  0  0
  -29.4291  -18.1203   20.6494 C   0  0  2  0  0  0
  -26.3800  -22.5721   21.3802 C   0  0  0  0  0  0
  -28.6078  -24.0828   19.7006 C   0  0  0  0  0  0
  -28.2536  -25.2620   20.6710 C   0  0  0  0  0  0
  -28.0303  -20.7222   21.1514 N   0  0  0  0  0  0
  -29.6420  -21.8297   19.9954 N   0  0  0  0  0  0
  -28.6170  -22.7027   20.2694 N   0  0  0  0  0  0
  -29.9308  -15.7047   20.6905 N   0  0  0  0  0  0
  -30.0070  -19.4697   20.4563 N   0  0  0  0  0  0
  -31.4712  -12.4567   19.1355 H   0  0  0  0  0  0
  -30.3395  -11.3563   19.8669 H   0  0  0  0  0  0
  -29.7520  -11.7556   17.4601 H   0  0  0  0  0  0
  -29.6676  -13.4764   17.7426 H   0  0  0  0  0  0
  -27.8336  -11.3148   18.8220 H   0  0  0  0  0  0
  -27.3753  -12.6400   17.7846 H   0  0  0  0  0  0
  -27.6878  -14.2629   19.5603 H   0  0  0  0  0  0
  -28.7108  -12.0011   21.3418 H   0  0  0  0  0  0
  -28.4641  -13.6292   21.8683 H   0  0  0  0  0  0
  -25.2775   -9.5687   22.4736 H   0  0  0  0  0  0
  -24.0013   -7.4642   22.7457 H   0  0  0  0  0  0
  -21.0839   -8.8790   19.8965 H   0  0  0  0  0  0
  -22.3693  -10.9686   19.6165 H   0  0  0  0  0  0
  -21.2004   -7.6144   23.9713 H   0  0  0  0  0  0
  -21.1480   -6.0518   25.9076 H   0  0  0  0  0  0
  -22.0600   -2.7608   23.2839 H   0  0  0  0  0  0
  -22.4128  -11.9927   22.4817 H   0  0  0  0  0  0
  -21.1127  -13.1272   22.2595 H   0  0  0  0  0  0
  -24.6685  -15.8487   20.5315 H   0  0  0  0  0  0
  -26.2905  -15.6291   20.1084 H   0  0  0  0  0  0
  -26.7135  -32.5498   23.1135 H   0  0  0  0  0  0
  -25.0131  -33.9767   25.0487 H   0  0  0  0  0  0
  -22.6995  -31.3038   21.4036 H   0  0  0  0  0  0
  -23.3752  -35.9629   23.3317 H   0  0  0  0  0  0
  -24.3579  -36.8891   22.2045 H   0  0  0  0  0  0
  -23.7240  -37.6503   23.6640 H   0  0  0  0  0  0
  -26.0572  -31.5851   20.5937 H   0  0  0  0  0  0
  -26.8262  -30.8715   21.9838 H   0  0  0  0  0  0
  -28.1126  -29.0692   21.1547 H   0  0  0  0  0  0
  -26.0402  -25.9392   19.0305 H   0  0  0  0  0  0
  -23.9740  -27.2829   19.0415 H   0  0  0  0  0  0
  -23.7278  -30.5898   19.4001 H   0  0  0  0  0  0
  -22.7403  -29.2382   19.8674 H   0  0  0  0  0  0
  -25.1291  -36.1947   25.0823 H   0  0  0  0  0  0
  -20.9972  -28.3240   24.1420 H   0  0  0  0  0  0
  -20.5672  -26.2270   23.3602 H   0  0  0  0  0  0
  -21.6642  -26.7429   22.1206 H   0  0  0  0  0  0
  -19.6911  -25.6294   21.1234 H   0  0  0  0  0  0
  -19.6699  -27.3202   20.6750 H   0  0  0  0  0  0
  -17.4197  -26.6669   21.4021 H   0  0  0  0  0  0
  -18.0319  -26.0058   22.9011 H   0  0  0  0  0  0
  -19.7936  -30.7256   24.2276 H   0  0  0  0  0  0
  -17.5015  -31.6267   24.5155 H   0  0  0  0  0  0
  -15.5347  -30.2986   23.7655 H   0  0  0  0  0  0
  -15.8662  -28.0821   22.7062 H   0  0  0  0  0  0
  -24.5923  -30.7033   25.7810 H   0  0  0  0  0  0
  -24.8925  -32.2861   26.4902 H   0  0  0  0  0  0
  -25.8100  -30.8887   27.0228 H   0  0  0  0  0  0
  -26.2829  -29.6817   24.1126 H   0  0  0  0  0  0
  -27.3999  -29.7227   25.4567 H   0  0  0  0  0  0
  -27.8696  -30.4318   23.9287 H   0  0  0  0  0  0
  -27.2648  -33.3586   26.2097 H   0  0  0  0  0  0
  -28.3853  -32.6882   25.0330 H   0  0  0  0  0  0
  -28.0713  -31.8409   26.5398 H   0  0  0  0  0  0
  -28.2600  -38.0088   24.7504 H   0  0  0  0  0  0
  -28.1048  -36.2618   24.6301 H   0  0  0  0  0  0
  -27.2281  -37.1460   25.8866 H   0  0  0  0  0  0
  -20.9294  -29.8749   21.6935 H   0  0  0  0  0  0
  -26.0167  -38.2863   24.1436 H   0  0  0  0  0  0
  -30.3929  -17.8477   22.5649 H   0  0  0  0  0  0
  -28.6482  -18.0621   22.7003 H   0  0  0  0  0  0
  -28.2285  -15.8408   21.8930 H   0  0  0  0  0  0
  -29.7138  -15.5665   22.8112 H   0  0  0  0  0  0
  -31.2633  -17.1663   19.9418 H   0  0  0  0  0  0
  -29.8787  -16.8686   18.9017 H   0  0  0  0  0  0
  -28.3977  -18.1263   20.2907 H   0  0  0  0  0  0
  -25.6918  -21.7774   21.6688 H   0  0  0  0  0  0
  -25.9202  -23.1388   20.5706 H   0  0  0  0  0  0
  -26.5272  -23.2249   22.2404 H   0  0  0  0  0  0
  -29.5881  -24.2753   19.2636 H   0  0  0  0  0  0
  -27.9028  -24.0884   18.8692 H   0  0  0  0  0  0
  -27.2581  -25.1183   21.0885 H   0  0  0  0  0  0
  -28.9288  -25.2188   21.5257 H   0  0  0  0  0  0
  -30.8657  -19.5445   19.9218 H   0  0  0  0  0  0
  1 25  1  0  0  0
  1 30  2  0  0  0
  1 83  1  0  0  0
  2  3  1  0  0  0
  2 25  1  0  0  0
  2 85  1  0  0  0
  2 86  1  0  0  0
  3  4  1  0  0  0
  3 87  1  0  0  0
  3 88  1  0  0  0
  4  5  1  0  0  0
  4 89  1  0  0  0
  4 90  1  0  0  0
  5  6  1  0  0  0
  5 26  1  0  0  0
  5 91  1  0  0  0
  6 25  1  0  0  0
  6 92  1  0  0  0
  6 93  1  0  0  0
  7  8  2  0  0  0
  7 26  1  0  0  0
  7 29  1  0  0  0
  8  9  1  0  0  0
  8 22  1  0  0  0
  9 10  1  0  0  0
  9 27  2  0  0  0
 10 11  2  0  0  0
 10 15  1  0  0  0
 11 12  1  0  0  0
 11 94  1  0  0  0
 12 13  2  0  0  0
 12 95  1  0  0  0
 13 14  1  0  0  0
 13 31  1  0  0  0
 14 15  2  0  0  0
 14 96  1  0  0  0
 15 97  1  0  0  0
 16 17  2  0  0  0
 16 21  1  0  0  0
 16 31  1  0  0  0
 17 18  1  0  0  0
 17 98  1  0  0  0
 18 19  2  0  0  0
 18 99  1  0  0  0
 19 20  1  0  0  0
 19 24  1  0  0  0
 20 21  2  0  0  0
 20100  1  0  0  0
 21 23  1  0  0  0
 22 28  1  0  0  0
 22 32  2  0  0  0
 26 27  1  0  0  0
 28101  1  0  0  0
 28102  1  0  0  0
 29103  1  0  0  0
 29104  1  0  0  0
 33 34  1  0  0  0
 33 66  1  0  0  0
 33 70  2  0  0  0
 34 36  1  0  0  0
 34 59  1  0  0  0
 34105  1  0  0  0
 35 44  2  0  0  0
 35 45  1  0  0  0
 35 68  1  0  0  0
 36 56  1  0  0  0
 36106  1  0  0  0
 37 39  1  0  0  0
 37 47  1  0  0  0
 37 66  1  0  0  0
 37107  1  0  0  0
 38 43  2  0  0  0
 38 46  1  0  0  0
 38 47  1  0  0  0
 39 64  1  0  0  0
 39 67  2  0  0  0
 40 52  1  0  0  0
 40 53  2  0  0  0
 40 58  1  0  0  0
 41108  1  0  0  0
 41109  1  0  0  0
 41110  1  0  0  0
 41 48  1  0  0  0
 42 43  1  0  0  0
 42 66  1  0  0  0
 42111  1  0  0  0
 42112  1  0  0  0
 43 44  1  0  0  0
 44113  1  0  0  0
 45 46  2  0  0  0
 45114  1  0  0  0
 46115  1  0  0  0
 47116  1  0  0  0
 47117  1  0  0  0
 48 56  1  0  0  0
 48 65  1  0  0  0
 48118  1  0  0  0
 49 50  1  0  0  0
 49 53  1  0  0  0
 49 64  1  0  0  0
 49119  1  0  0  0
 50 51  1  0  0  0
 50120  1  0  0  0
 50121  1  0  0  0
 51 52  1  0  0  0
 51122  1  0  0  0
 51123  1  0  0  0
 52124  1  0  0  0
 52125  1  0  0  0
 53 54  1  0  0  0
 54 55  2  0  0  0
 54126  1  0  0  0
 55 57  1  0  0  0
 55127  1  0  0  0
 56 69  2  0  0  0
 57 58  2  0  0  0
 57128  1  0  0  0
 58129  1  0  0  0
 59 60  1  0  0  0
 59 61  1  0  0  0
 59 62  1  0  0  0
 60130  1  0  0  0
 60131  1  0  0  0
 60132  1  0  0  0
 61133  1  0  0  0
 61134  1  0  0  0
 61135  1  0  0  0
 62136  1  0  0  0
 62137  1  0  0  0
 62138  1  0  0  0
 63 65  1  0  0  0
 63139  1  0  0  0
 63140  1  0  0  0
 63141  1  0  0  0
 64142  1  0  0  0
 65143  1  0  0  0
 68 79  1  0  0  0
 71 77  1  0  0  0
 71 80  2  0  0  0
 71 82  1  0  0  0
 72 80  1  0  0  0
 72 81  2  0  0  0
 72 84  1  0  0  0
 73 74  1  0  0  0
 73 76  1  0  0  0
 73144  1  0  0  0
 73145  1  0  0  0
 74 83  1  0  0  0
 74146  1  0  0  0
 74147  1  0  0  0
 75 76  1  0  0  0
 75 83  1  0  0  0
 75148  1  0  0  0
 75149  1  0  0  0
 76 84  1  0  0  0
 76150  1  0  0  0
 77151  1  0  0  0
 77152  1  0  0  0
 77153  1  0  0  0
 78 79  1  0  0  0
 78 82  1  0  0  0
 78154  1  0  0  0
 78155  1  0  0  0
 79156  1  0  0  0
 79157  1  0  0  0
 81 82  1  0  0  0
 84158  1  0  0  0
M  ISO  4   1 100  68 101  79 101  83 100
M  END
> <chiral flag>
0

> <version>
0

> <s_m_source_file>
/data/baiqing/PycharmProjects/Reinvent-master-3.2/result/LINK_invent/BTK/process_docking_weight1_custom_sum_contain_oxygen_bond_distance_aromatic_linkinvent_7_9_3/rearranged_h_0197.sdf

> <i_m_source_file_index>
40

> <r_mmod_Potential_Energy-OPLS-2005>
-3.97268390655518

> <r_mmod_Stretch_Energy-OPLS-2005>
51.678092956543

> <r_mmod_Bend_Energy-OPLS-2005>
148.36767578125

> <r_mmod_Torsional_Energy-OPLS-2005>
330.493530273438

> <r_mmod_Improper_Torsional_Energy-OPLS-2005>
15.4301147460938

> <r_mmod_Van_der_Waal_Energy-OPLS-2005>
117.476249694824

> <r_mmod_Electrostatic_Energy-OPLS-2005>
-465.41162109375

> <r_mmod_Solvation_Energy-OPLS-2005>
-227.262588500977

> <b_mmod_Minimization_Converged-OPLS-2005>
0

> <r_mmod_RMS_Derivative-OPLS-2005>
1.58254849910736

$$$$
40
                    3D
 Structure written by MMmdl.
163172  0  0  1  0            999 V2000
  -30.5648  -15.0385   20.3893 C   0  0  0  0  0  0
  -30.4327  -12.6560   19.4903 C   0  0  0  0  0  0
  -29.5136  -12.5236   18.2552 C   0  0  0  0  0  0
  -28.0587  -12.2725   18.6913 C   0  0  0  0  0  0
  -27.6145  -13.2294   19.8245 C   0  0  2  0  0  0
  -28.6655  -13.3574   20.9508 C   0  0  0  0  0  0
  -25.2413  -13.8126   20.5716 C   0  0  0  0  0  0
  -24.1735  -13.0380   20.9263 C   0  0  0  0  0  0
  -24.6348  -11.6867   20.8798 C   0  0  0  0  0  0
  -23.9035  -10.4260   21.0435 C   0  0  0  0  0  0
  -24.3595   -9.4177   21.9204 C   0  0  0  0  0  0
  -23.6278   -8.2212   22.0758 C   0  0  0  0  0  0
  -22.4264   -8.0257   21.3541 C   0  0  0  0  0  0
  -21.9896   -9.0231   20.4647 C   0  0  0  0  0  0
  -22.7218  -10.2112   20.3070 C   0  0  0  0  0  0
  -21.6843   -6.0725   22.5280 C   0  0  0  0  0  0
  -21.4006   -6.5631   23.8212 C   0  0  0  0  0  0
  -21.3657   -5.6785   24.9175 C   0  0  0  0  0  0
  -21.6048   -4.3050   24.7227 C   0  0  0  0  0  0
  -21.8818   -3.8139   23.4348 C   0  0  0  0  0  0
  -21.9189   -4.6954   22.3405 C   0  0  0  0  0  0
  -22.7764  -13.5182   21.1899 C   0  0  0  0  0  0
  -22.1660   -4.2140   21.0982 F   0  0  0  0  0  0
  -21.5631   -3.4535   25.7741 F   0  0  0  0  0  0
  -29.9217  -13.7915   20.3200 N   0  0  0  0  0  0
  -26.2818  -12.9320   20.3260 N   0  0  0  0  0  0
  -25.9273  -11.6477   20.5792 N   0  0  0  0  0  0
  -22.0398  -12.8191   22.0454 N   0  0  0  0  0  0
  -25.4021  -15.1846   20.4067 N   0  0  0  0  0  0
  -31.7910  -15.0083   20.2316 O   0  0  0  0  0  0
  -21.6624   -6.8862   21.4240 O   0  0  0  0  0  0
  -22.3470  -14.5493   20.6737 O   0  0  0  0  0  0
  -24.6479  -31.8407   23.1851 C   0  0  0  0  0  0
  -25.9229  -32.4680   23.8258 C   0  0  1  0  0  0
  -27.2190  -27.0937   20.1568 C   0  0  0  0  0  0
  -25.5958  -33.8488   24.2168 N   0  0  0  0  0  0
  -23.4540  -30.4590   21.5322 C   0  0  2  0  0  0
  -24.9041  -28.8793   20.1133 C   0  0  0  0  0  0
  -22.7591  -29.4532   22.4849 C   0  0  0  0  0  0
  -18.0310  -28.1399   22.8476 C   0  0  0  0  0  0
  -24.1493  -36.7249   23.2643 C   0  0  0  0  0  0
  -26.0138  -30.7009   21.3911 C   0  0  0  0  0  0
  -26.0846  -29.3078   20.7331 C   0  0  0  0  0  0
  -27.2424  -28.4339   20.7339 C   0  0  0  0  0  0
  -26.0087  -26.7803   19.4968 C   0  0  0  0  0  0
  -24.8816  -27.6299   19.4787 C   0  0  0  0  0  0
  -23.6833  -29.7868   20.1531 C   0  0  0  0  0  0
  -25.4127  -36.3025   24.0313 C   0  0  1  0  0  0
  -20.5925  -28.3731   23.1225 C   0  0  2  0  0  0
  -20.6792  -26.9429   22.5403 C   0  0  0  0  0  0
  -19.5765  -26.6380   21.5213 C   0  0  0  0  0  0
  -18.1947  -26.7936   22.1624 C   0  0  0  0  0  0
  -19.1567  -28.8883   23.2841 C   0  0  0  0  0  0
  -18.9481  -30.1478   23.8869 C   0  0  0  0  0  0
  -17.6476  -30.6594   24.0558 C   0  0  0  0  0  0
  -25.9079  -34.9401   23.5053 C   0  0  0  0  0  0
  -16.5368  -29.9085   23.6338 C   0  0  0  0  0  0
  -16.7293  -28.6504   23.0358 C   0  0  0  0  0  0
  -26.4529  -31.6564   25.0719 C   0  0  0  0  0  0
  -25.3694  -31.3766   26.1400 C   0  0  0  0  0  0
  -27.0402  -30.2954   24.6334 C   0  0  0  0  0  0
  -27.6050  -32.4340   25.7508 C   0  0  0  0  0  0
  -27.5577  -37.1782   24.8464 C   0  0  0  0  0  0
  -21.4278  -29.3051   22.3596 N   0  0  0  0  0  0
  -26.4287  -37.3741   23.9407 N   0  0  0  0  0  0
  -24.7255  -31.0220   22.0910 N   0  0  0  0  0  0
  -23.4212  -28.8079   23.3018 O   0  0  0  0  0  0
  -28.2660  -26.0845   20.2097 O   0  0  0  0  0  0
  -26.5671  -34.8904   22.4636 O   0  0  0  0  0  0
  -23.5584  -32.1305   23.7036 O   0  0  0  0  0  0
  -28.3037  -18.1741   19.7417 C   0  0  0  0  0  0
  -28.5098  -16.6324   20.0310 C   0  0  0  0  0  0
  -30.4524  -17.7801   20.5538 C   0  0  0  0  0  0
  -30.4330  -21.3055   21.1512 C   0  0  0  0  0  0
  -28.4142  -21.5835   20.0162 C   0  0  0  0  0  0
  -29.9171  -22.8097   21.3262 C   0  0  2  0  0  0
  -28.9579  -23.1434   20.1503 C   0  0  2  0  0  0
  -29.2985  -18.9660   20.5984 C   0  0  1  0  0  0
  -31.0532  -23.8519   21.4745 C   0  0  0  0  0  0
  -27.9577  -24.5357   20.2326 C   0  0  0  0  0  0
  -29.8934  -16.3244   20.4506 N   0  0  0  0  0  0
  -29.5328  -20.5234   20.2502 N   0  3  2  0  0  0
  -31.7807  -23.7535   22.7547 N   0  3  0  0  0  0
  -31.4607  -12.8177   19.1624 H   0  0  0  0  0  0
  -30.4477  -11.7290   20.0659 H   0  0  0  0  0  0
  -29.8578  -11.7138   17.6100 H   0  0  0  0  0  0
  -29.5662  -13.4356   17.6585 H   0  0  0  0  0  0
  -27.9922  -11.2406   19.0378 H   0  0  0  0  0  0
  -27.3849  -12.3516   17.8371 H   0  0  0  0  0  0
  -27.5269  -14.1873   19.3294 H   0  0  0  0  0  0
  -28.7920  -12.4130   21.4821 H   0  0  0  0  0  0
  -28.3455  -14.0898   21.6930 H   0  0  0  0  0  0
  -25.2734   -9.5660   22.4786 H   0  0  0  0  0  0
  -23.9987   -7.4600   22.7475 H   0  0  0  0  0  0
  -21.0829   -8.8751   19.8952 H   0  0  0  0  0  0
  -22.3679  -10.9658   19.6187 H   0  0  0  0  0  0
  -21.1995   -7.6139   23.9714 H   0  0  0  0  0  0
  -21.1482   -6.0515   25.9079 H   0  0  0  0  0  0
  -22.0602   -2.7603   23.2847 H   0  0  0  0  0  0
  -22.3996  -11.9851   22.4853 H   0  0  0  0  0  0
  -21.1017  -13.1233   22.2650 H   0  0  0  0  0  0
  -24.6277  -15.8304   20.5161 H   0  0  0  0  0  0
  -26.2407  -15.6269   20.0574 H   0  0  0  0  0  0
  -26.7297  -32.5271   23.0985 H   0  0  0  0  0  0
  -25.0072  -33.9595   25.0293 H   0  0  0  0  0  0
  -22.7595  -31.2868   21.3749 H   0  0  0  0  0  0
  -23.3765  -35.9571   23.3286 H   0  0  0  0  0  0
  -24.3578  -36.8902   22.2062 H   0  0  0  0  0  0
  -23.7236  -37.6433   23.6696 H   0  0  0  0  0  0
  -26.1750  -31.4536   20.6182 H   0  0  0  0  0  0
  -26.8818  -30.7519   22.0367 H   0  0  0  0  0  0
  -28.1417  -28.7599   21.2373 H   0  0  0  0  0  0
  -25.8906  -25.8360   18.9909 H   0  0  0  0  0  0
  -23.9828  -27.2970   18.9778 H   0  0  0  0  0  0
  -23.8252  -30.5606   19.3979 H   0  0  0  0  0  0
  -22.7970  -29.2324   19.8398 H   0  0  0  0  0  0
  -25.1316  -36.1851   25.0805 H   0  0  0  0  0  0
  -21.0015  -28.3323   24.1347 H   0  0  0  0  0  0
  -20.5685  -26.2344   23.3626 H   0  0  0  0  0  0
  -21.6657  -26.7430   22.1200 H   0  0  0  0  0  0
  -19.6924  -25.6283   21.1262 H   0  0  0  0  0  0
  -19.6700  -27.3173   20.6729 H   0  0  0  0  0  0
  -17.4214  -26.6681   21.4029 H   0  0  0  0  0  0
  -18.0345  -26.0086   22.9028 H   0  0  0  0  0  0
  -19.7956  -30.7304   24.2224 H   0  0  0  0  0  0
  -17.5028  -31.6271   24.5165 H   0  0  0  0  0  0
  -15.5366  -30.2976   23.7679 H   0  0  0  0  0  0
  -15.8694  -28.0814   22.7087 H   0  0  0  0  0  0
  -24.5876  -30.7117   25.7708 H   0  0  0  0  0  0
  -24.8879  -32.2953   26.4762 H   0  0  0  0  0  0
  -25.7955  -30.8971   27.0221 H   0  0  0  0  0  0
  -26.3033  -29.6665   24.1326 H   0  0  0  0  0  0
  -27.3982  -29.7272   25.4929 H   0  0  0  0  0  0
  -27.8955  -30.4180   23.9686 H   0  0  0  0  0  0
  -27.2635  -33.3661   26.2021 H   0  0  0  0  0  0
  -28.3891  -32.6866   25.0359 H   0  0  0  0  0  0
  -28.0684  -31.8509   26.5475 H   0  0  0  0  0  0
  -28.2580  -38.0092   24.7520 H   0  0  0  0  0  0
  -28.1087  -36.2620   24.6284 H   0  0  0  0  0  0
  -27.2294  -37.1417   25.8867 H   0  0  0  0  0  0
  -20.9498  -29.8767   21.6771 H   0  0  0  0  0  0
  -26.0153  -38.2809   24.1410 H   0  0  0  0  0  0
  -27.2738  -18.4841   19.9224 H   0  0  0  0  0  0
  -28.5100  -18.3678   18.6879 H   0  0  0  0  0  0
  -28.2745  -16.0947   19.1156 H   0  0  0  0  0  0
  -27.8373  -16.3053   20.8231 H   0  0  0  0  0  0
  -31.0999  -17.8552   21.4279 H   0  0  0  0  0  0
  -31.0957  -17.9377   19.6873 H   0  0  0  0  0  0
  -30.5081  -20.8205   22.1252 H   0  0  0  0  0  0
  -31.4322  -21.2819   20.7141 H   0  0  0  0  0  0
  -27.9416  -21.4159   19.0480 H   0  0  0  0  0  0
  -27.6386  -21.4162   20.7649 H   0  0  0  0  0  0
  -29.3052  -22.8418   22.2295 H   0  0  0  0  0  0
  -29.5776  -23.3032   19.2670 H   0  0  0  0  0  0
  -28.8967  -18.9645   21.6128 H   0  0  0  0  0  0
  -30.6351  -24.8580   21.4142 H   0  0  0  0  0  0
  -31.7607  -23.7685   20.6483 H   0  0  0  0  0  0
  -27.3196  -24.3953   21.1056 H   0  0  0  0  0  0
  -27.2979  -24.3733   19.3842 H   0  0  0  0  0  0
  -30.0192  -20.5017   19.3659 H   0  0  0  0  0  0
  -31.1628  -23.8829   23.5360 H   0  0  0  0  0  0
  -32.4779  -24.4764   22.7984 H   0  0  0  0  0  0
  -32.2544  -22.8742   22.8542 H   0  0  0  0  0  0
  1 25  1  0  0  0
  1 30  2  0  0  0
  1 81  1  0  0  0
  2  3  1  0  0  0
  2 25  1  0  0  0
  2 84  1  0  0  0
  2 85  1  0  0  0
  3  4  1  0  0  0
  3 86  1  0  0  0
  3 87  1  0  0  0
  4  5  1  0  0  0
  4 88  1  0  0  0
  4 89  1  0  0  0
  5  6  1  0  0  0
  5 26  1  0  0  0
  5 90  1  0  0  0
  6 25  1  0  0  0
  6 91  1  0  0  0
  6 92  1  0  0  0
  7  8  2  0  0  0
  7 26  1  0  0  0
  7 29  1  0  0  0
  8  9  1  0  0  0
  8 22  1  0  0  0
  9 10  1  0  0  0
  9 27  2  0  0  0
 10 11  2  0  0  0
 10 15  1  0  0  0
 11 12  1  0  0  0
 11 93  1  0  0  0
 12 13  2  0  0  0
 12 94  1  0  0  0
 13 14  1  0  0  0
 13 31  1  0  0  0
 14 15  2  0  0  0
 14 95  1  0  0  0
 15 96  1  0  0  0
 16 17  2  0  0  0
 16 21  1  0  0  0
 16 31  1  0  0  0
 17 18  1  0  0  0
 17 97  1  0  0  0
 18 19  2  0  0  0
 18 98  1  0  0  0
 19 20  1  0  0  0
 19 24  1  0  0  0
 20 21  2  0  0  0
 20 99  1  0  0  0
 21 23  1  0  0  0
 22 28  1  0  0  0
 22 32  2  0  0  0
 26 27  1  0  0  0
 28100  1  0  0  0
 28101  1  0  0  0
 29102  1  0  0  0
 29103  1  0  0  0
 33 34  1  0  0  0
 33 66  1  0  0  0
 33 70  2  0  0  0
 34 36  1  0  0  0
 34 59  1  0  0  0
 34104  1  0  0  0
 35 44  2  0  0  0
 35 45  1  0  0  0
 35 68  1  0  0  0
 36 56  1  0  0  0
 36105  1  0  0  0
 37 39  1  0  0  0
 37 47  1  0  0  0
 37 66  1  0  0  0
 37106  1  0  0  0
 38 43  2  0  0  0
 38 46  1  0  0  0
 38 47  1  0  0  0
 39 64  1  0  0  0
 39 67  2  0  0  0
 40 52  1  0  0  0
 40 53  2  0  0  0
 40 58  1  0  0  0
 41107  1  0  0  0
 41108  1  0  0  0
 41109  1  0  0  0
 41 48  1  0  0  0
 42 43  1  0  0  0
 42 66  1  0  0  0
 42110  1  0  0  0
 42111  1  0  0  0
 43 44  1  0  0  0
 44112  1  0  0  0
 45 46  2  0  0  0
 45113  1  0  0  0
 46114  1  0  0  0
 47115  1  0  0  0
 47116  1  0  0  0
 48 56  1  0  0  0
 48 65  1  0  0  0
 48117  1  0  0  0
 49 50  1  0  0  0
 49 53  1  0  0  0
 49 64  1  0  0  0
 49118  1  0  0  0
 50 51  1  0  0  0
 50119  1  0  0  0
 50120  1  0  0  0
 51 52  1  0  0  0
 51121  1  0  0  0
 51122  1  0  0  0
 52123  1  0  0  0
 52124  1  0  0  0
 53 54  1  0  0  0
 54 55  2  0  0  0
 54125  1  0  0  0
 55 57  1  0  0  0
 55126  1  0  0  0
 56 69  2  0  0  0
 57 58  2  0  0  0
 57127  1  0  0  0
 58128  1  0  0  0
 59 60  1  0  0  0
 59 61  1  0  0  0
 59 62  1  0  0  0
 60129  1  0  0  0
 60130  1  0  0  0
 60131  1  0  0  0
 61132  1  0  0  0
 61133  1  0  0  0
 61134  1  0  0  0
 62135  1  0  0  0
 62136  1  0  0  0
 62137  1  0  0  0
 63 65  1  0  0  0
 63138  1  0  0  0
 63139  1  0  0  0
 63140  1  0  0  0
 64141  1  0  0  0
 65142  1  0  0  0
 68 80  1  0  0  0
 71 72  1  0  0  0
 71143  1  0  0  0
 71144  1  0  0  0
 71 78  1  0  0  0
 72 81  1  0  0  0
 72145  1  0  0  0
 72146  1  0  0  0
 73 78  1  0  0  0
 73 81  1  0  0  0
 73147  1  0  0  0
 73148  1  0  0  0
 74 76  1  0  0  0
 74149  1  0  0  0
 74150  1  0  0  0
 74 82  1  0  0  0
 75 77  1  0  0  0
 75 82  1  0  0  0
 75151  1  0  0  0
 75152  1  0  0  0
 76 77  1  0  0  0
 76 79  1  0  0  0
 76153  1  0  0  0
 77 80  1  0  0  0
 77154  1  0  0  0
 78 82  1  0  0  0
 78155  1  0  0  0
 79 83  1  0  0  0
 79156  1  0  0  0
 79157  1  0  0  0
 80158  1  0  0  0
 80159  1  0  0  0
 82160  1  0  0  0
 83161  1  0  0  0
 83162  1  0  0  0
 83163  1  0  0  0
M  CHG  2  82   1  83   1
M  ISO  4   1 100  68 101  80 101  81 100
M  END
> <chiral flag>
0

> <version>
0

> <s_m_source_file>
/data/baiqing/PycharmProjects/Reinvent-master-3.2/result/LINK_invent/BTK/process_docking_weight1_custom_sum_contain_oxygen_bond_distance_aromatic_linkinvent_7_9_3/rearranged_h_0197.sdf

> <i_m_source_file_index>
41

> <r_mmod_Potential_Energy-OPLS-2005>
495.853179931641

> <r_mmod_Stretch_Energy-OPLS-2005>
287.108184814453

> <r_mmod_Bend_Energy-OPLS-2005>
363.700225830078

> <r_mmod_Torsional_Energy-OPLS-2005>
389.010894775391

> <r_mmod_Improper_Torsional_Energy-OPLS-2005>
4.43351030349731

> <r_mmod_Van_der_Waal_Energy-OPLS-2005>
104.567237854004

> <r_mmod_Electrostatic_Energy-OPLS-2005>
126.726341247559

> <r_mmod_Solvation_Energy-OPLS-2005>
-1028.68591308594

> <b_mmod_Minimization_Converged-OPLS-2005>
0

> <r_mmod_RMS_Derivative-OPLS-2005>
0.492038816213608

$$$$
41
                    3D
 Structure written by MMmdl.
160168  0  0  1  0            999 V2000
  -30.6510  -14.5109   20.4572 C   0  0  0  0  0  0
  -30.4342  -12.2967   19.4294 C   0  0  0  0  0  0
  -29.4969  -12.4618   18.2114 C   0  0  0  0  0  0
  -28.0171  -12.3311   18.6255 C   0  0  0  0  0  0
  -27.6536  -13.1917   19.8636 C   0  0  2  0  0  0
  -28.7044  -13.0234   20.9875 C   0  0  0  0  0  0
  -25.2584  -13.8122   20.5685 C   0  0  0  0  0  0
  -24.1820  -13.0415   20.9190 C   0  0  0  0  0  0
  -24.6357  -11.6881   20.8755 C   0  0  0  0  0  0
  -23.9032  -10.4276   21.0418 C   0  0  0  0  0  0
  -24.3592   -9.4200   21.9198 C   0  0  0  0  0  0
  -23.6281   -8.2226   22.0767 C   0  0  0  0  0  0
  -22.4265   -8.0256   21.3542 C   0  0  0  0  0  0
  -21.9888   -9.0235   20.4660 C   0  0  0  0  0  0
  -22.7211  -10.2119   20.3072 C   0  0  0  0  0  0
  -21.6837   -6.0712   22.5286 C   0  0  0  0  0  0
  -21.4000   -6.5623   23.8219 C   0  0  0  0  0  0
  -21.3674   -5.6787   24.9184 C   0  0  0  0  0  0
  -21.6047   -4.3051   24.7233 C   0  0  0  0  0  0
  -21.8827   -3.8133   23.4358 C   0  0  0  0  0  0
  -21.9192   -4.6942   22.3406 C   0  0  0  0  0  0
  -22.7849  -13.5229   21.1850 C   0  0  0  0  0  0
  -22.1658   -4.2122   21.0986 F   0  0  0  0  0  0
  -21.5643   -3.4547   25.7752 F   0  0  0  0  0  0
  -30.0343  -13.3020   20.4202 N   0  0  0  0  0  0
  -26.2986  -12.9242   20.3344 N   0  0  0  0  0  0
  -25.9268  -11.6422   20.5780 N   0  0  0  0  0  0
  -22.0482  -12.8229   22.0414 N   0  0  0  0  0  0
  -25.4353  -15.1846   20.4094 N   0  0  0  0  0  0
  -31.8531  -14.6741   20.2352 O   0  0  0  0  0  0
  -21.6632   -6.8848   21.4237 O   0  0  0  0  0  0
  -22.3543  -14.5549   20.6725 O   0  0  0  0  0  0
  -24.6149  -31.8677   23.2130 C   0  0  0  0  0  0
  -25.9041  -32.4820   23.8423 C   0  0  1  0  0  0
  -27.2232  -27.4163   20.0971 C   0  0  0  0  0  0
  -25.5898  -33.8623   24.2351 N   0  0  0  0  0  0
  -23.4040  -30.4949   21.5530 C   0  0  2  0  0  0
  -24.8475  -28.9663   20.1107 C   0  0  0  0  0  0
  -22.7417  -29.4650   22.4973 C   0  0  0  0  0  0
  -18.0272  -28.1357   22.8489 C   0  0  0  0  0  0
  -24.1486  -36.7324   23.2640 C   0  0  0  0  0  0
  -25.9349  -30.8280   21.3697 C   0  0  0  0  0  0
  -26.0108  -29.4638   20.7111 C   0  0  0  0  0  0
  -27.2013  -28.6973   20.7003 C   0  0  0  0  0  0
  -26.0389  -26.9514   19.4728 C   0  0  0  0  0  0
  -24.8576  -27.7103   19.4872 C   0  0  0  0  0  0
  -23.6128  -29.8362   20.1641 C   0  0  0  0  0  0
  -25.4103  -36.3110   24.0344 C   0  0  1  0  0  0
  -20.5862  -28.3651   23.1304 C   0  0  2  0  0  0
  -20.6755  -26.9385   22.5410 C   0  0  0  0  0  0
  -19.5739  -26.6373   21.5198 C   0  0  0  0  0  0
  -18.1918  -26.7907   22.1617 C   0  0  0  0  0  0
  -19.1522  -28.8820   23.2898 C   0  0  0  0  0  0
  -18.9452  -30.1424   23.8911 C   0  0  0  0  0  0
  -17.6459  -30.6574   24.0558 C   0  0  0  0  0  0
  -25.9025  -34.9470   23.5142 C   0  0  0  0  0  0
  -16.5347  -29.9075   23.6315 C   0  0  0  0  0  0
  -16.7261  -28.6487   23.0346 C   0  0  0  0  0  0
  -26.4477  -31.6597   25.0749 C   0  0  0  0  0  0
  -25.3772  -31.3687   26.1520 C   0  0  0  0  0  0
  -27.0303  -30.3041   24.6119 C   0  0  0  0  0  0
  -27.6048  -32.4315   25.7519 C   0  0  0  0  0  0
  -27.5579  -37.1820   24.8466 C   0  0  0  0  0  0
  -21.4142  -29.3035   22.3726 N   0  0  0  0  0  0
  -26.4293  -37.3794   23.9407 N   0  0  0  0  0  0
  -24.6697  -31.0774   22.1032 N   0  0  0  0  0  0
  -23.4186  -28.8168   23.2994 O   0  0  0  0  0  0
  -28.3705  -26.6390   20.1474 O   0  0  0  0  0  0
  -26.5585  -34.8918   22.4697 O   0  0  0  0  0  0
  -23.5344  -32.1418   23.7525 O   0  0  0  0  0  0
  -30.1120  -17.4380   19.5192 C   0  0  0  0  0  0
  -29.6648  -16.1227   18.9109 C   0  0  0  0  0  0
  -29.6214  -16.8834   20.8466 C   0  0  2  0  0  0
  -30.3894  -17.1776   22.1425 C   0  0  0  0  0  0
  -29.2917  -24.3334   20.6671 C   0  0  0  0  0  0
  -30.4738  -19.7290   22.0862 C   0  0  0  0  0  0
  -28.1544  -25.2123   20.0961 C   0  0  0  0  0  0
  -28.8399  -22.8563   20.8067 C   0  0  0  0  0  0
  -29.3376  -20.7172   21.7362 C   0  0  0  0  0  0
  -29.7742  -15.5266   20.2573 N   0  0  0  0  0  0
  -29.9729  -18.4807   22.7315 N   0  3  0  0  0  0
  -29.8556  -21.9933   21.3279 O   0  0  0  0  0  0
  -31.4761  -12.4148   19.1204 H   0  0  0  0  0  0
  -30.3482  -11.2954   19.8527 H   0  0  0  0  0  0
  -29.7344  -11.7117   17.4546 H   0  0  0  0  0  0
  -29.6603  -13.4301   17.7383 H   0  0  0  0  0  0
  -27.8300  -11.2788   18.8409 H   0  0  0  0  0  0
  -27.3665  -12.5878   17.7881 H   0  0  0  0  0  0
  -27.6646  -14.2256   19.5268 H   0  0  0  0  0  0
  -28.6758  -12.0114   21.3939 H   0  0  0  0  0  0
  -28.4875  -13.6966   21.8190 H   0  0  0  0  0  0
  -25.2728   -9.5673   22.4787 H   0  0  0  0  0  0
  -23.9990   -7.4606   22.7488 H   0  0  0  0  0  0
  -21.0819   -8.8754   19.8957 H   0  0  0  0  0  0
  -22.3674  -10.9656   19.6195 H   0  0  0  0  0  0
  -21.1979   -7.6136   23.9705 H   0  0  0  0  0  0
  -21.1494   -6.0525   25.9087 H   0  0  0  0  0  0
  -22.0595   -2.7590   23.2879 H   0  0  0  0  0  0
  -22.4052  -11.9855   22.4769 H   0  0  0  0  0  0
  -21.1120  -13.1299   22.2650 H   0  0  0  0  0  0
  -24.6774  -15.8507   20.5162 H   0  0  0  0  0  0
  -26.2981  -15.6123   20.0959 H   0  0  0  0  0  0
  -26.7107  -32.5528   23.1185 H   0  0  0  0  0  0
  -25.0061  -33.9799   25.0504 H   0  0  0  0  0  0
  -22.6936  -31.3127   21.4178 H   0  0  0  0  0  0
  -23.3739  -35.9666   23.3304 H   0  0  0  0  0  0
  -24.3582  -36.8937   22.2052 H   0  0  0  0  0  0
  -23.7250  -37.6539   23.6648 H   0  0  0  0  0  0
  -26.0509  -31.5975   20.6059 H   0  0  0  0  0  0
  -26.8215  -30.8783   21.9893 H   0  0  0  0  0  0
  -28.0945  -29.0711   21.1804 H   0  0  0  0  0  0
  -25.9999  -25.9958   18.9705 H   0  0  0  0  0  0
  -23.9651  -27.3254   19.0132 H   0  0  0  0  0  0
  -23.7292  -30.6156   19.4108 H   0  0  0  0  0  0
  -22.7344  -29.2638   19.8613 H   0  0  0  0  0  0
  -25.1272  -36.1989   25.0840 H   0  0  0  0  0  0
  -20.9959  -28.3206   24.1419 H   0  0  0  0  0  0
  -20.5611  -26.2265   23.3596 H   0  0  0  0  0  0
  -21.6628  -26.7392   22.1226 H   0  0  0  0  0  0
  -19.6894  -25.6283   21.1219 H   0  0  0  0  0  0
  -19.6673  -27.3184   20.6724 H   0  0  0  0  0  0
  -17.4181  -26.6635   21.4031 H   0  0  0  0  0  0
  -18.0338  -26.0043   22.9008 H   0  0  0  0  0  0
  -19.7931  -30.7228   24.2294 H   0  0  0  0  0  0
  -17.5014  -31.6254   24.5151 H   0  0  0  0  0  0
  -15.5346  -30.2981   23.7631 H   0  0  0  0  0  0
  -15.8659  -28.0808   22.7054 H   0  0  0  0  0  0
  -24.5950  -30.7014   25.7885 H   0  0  0  0  0  0
  -24.8963  -32.2833   26.5000 H   0  0  0  0  0  0
  -25.8175  -30.8859   27.0257 H   0  0  0  0  0  0
  -26.2839  -29.6817   24.1170 H   0  0  0  0  0  0
  -27.4066  -29.7265   25.4571 H   0  0  0  0  0  0
  -27.8680  -30.4359   23.9269 H   0  0  0  0  0  0
  -27.2657  -33.3598   26.2132 H   0  0  0  0  0  0
  -28.3856  -32.6905   25.0355 H   0  0  0  0  0  0
  -28.0722  -31.8420   26.5421 H   0  0  0  0  0  0
  -28.2600  -38.0112   24.7491 H   0  0  0  0  0  0
  -28.1072  -36.2641   24.6308 H   0  0  0  0  0  0
  -27.2301  -37.1492   25.8874 H   0  0  0  0  0  0
  -20.9279  -29.8829   21.7025 H   0  0  0  0  0  0
  -26.0184  -38.2879   24.1397 H   0  0  0  0  0  0
  -29.5721  -18.3147   19.1595 H   0  0  0  0  0  0
  -31.1940  -17.5801   19.4776 H   0  0  0  0  0  0
  -30.3609  -15.7457   18.1590 H   0  0  0  0  0  0
  -28.6471  -16.1392   18.5162 H   0  0  0  0  0  0
  -28.5582  -17.1019   20.9718 H   0  0  0  0  0  0
  -31.4693  -17.1603   21.9873 H   0  0  0  0  0  0
  -30.1733  -16.4030   22.8800 H   0  0  0  0  0  0
  -29.5873  -24.7102   21.6461 H   0  0  0  0  0  0
  -30.1710  -24.3977   20.0258 H   0  0  0  0  0  0
  -31.1553  -20.2030   22.7932 H   0  0  0  0  0  0
  -31.0594  -19.5125   21.1935 H   0  0  0  0  0  0
  -27.2552  -24.9715   20.6682 H   0  0  0  0  0  0
  -27.9662  -24.9128   19.0634 H   0  0  0  0  0  0
  -28.5159  -22.4750   19.8375 H   0  0  0  0  0  0
  -27.9679  -22.8198   21.4615 H   0  0  0  0  0  0
  -28.6900  -20.8658   22.6028 H   0  0  0  0  0  0
  -28.7212  -20.2870   20.9438 H   0  0  0  0  0  0
  -30.2912  -18.4911   23.6884 H   0  0  0  0  0  0
  -28.9662  -18.5017   22.7762 H   0  0  0  0  0  0
  1 25  1  0  0  0
  1 30  2  0  0  0
  1 80  1  0  0  0
  2  3  1  0  0  0
  2 25  1  0  0  0
  2 83  1  0  0  0
  2 84  1  0  0  0
  3  4  1  0  0  0
  3 85  1  0  0  0
  3 86  1  0  0  0
  4  5  1  0  0  0
  4 87  1  0  0  0
  4 88  1  0  0  0
  5  6  1  0  0  0
  5 26  1  0  0  0
  5 89  1  0  0  0
  6 25  1  0  0  0
  6 90  1  0  0  0
  6 91  1  0  0  0
  7  8  2  0  0  0
  7 26  1  0  0  0
  7 29  1  0  0  0
  8  9  1  0  0  0
  8 22  1  0  0  0
  9 10  1  0  0  0
  9 27  2  0  0  0
 10 11  2  0  0  0
 10 15  1  0  0  0
 11 12  1  0  0  0
 11 92  1  0  0  0
 12 13  2  0  0  0
 12 93  1  0  0  0
 13 14  1  0  0  0
 13 31  1  0  0  0
 14 15  2  0  0  0
 14 94  1  0  0  0
 15 95  1  0  0  0
 16 17  2  0  0  0
 16 21  1  0  0  0
 16 31  1  0  0  0
 17 18  1  0  0  0
 17 96  1  0  0  0
 18 19  2  0  0  0
 18 97  1  0  0  0
 19 20  1  0  0  0
 19 24  1  0  0  0
 20 21  2  0  0  0
 20 98  1  0  0  0
 21 23  1  0  0  0
 22 28  1  0  0  0
 22 32  2  0  0  0
 26 27  1  0  0  0
 28 99  1  0  0  0
 28100  1  0  0  0
 29101  1  0  0  0
 29102  1  0  0  0
 33 34  1  0  0  0
 33 66  1  0  0  0
 33 70  2  0  0  0
 34 36  1  0  0  0
 34 59  1  0  0  0
 34103  1  0  0  0
 35 44  2  0  0  0
 35 45  1  0  0  0
 35 68  1  0  0  0
 36 56  1  0  0  0
 36104  1  0  0  0
 37 39  1  0  0  0
 37 47  1  0  0  0
 37 66  1  0  0  0
 37105  1  0  0  0
 38 43  2  0  0  0
 38 46  1  0  0  0
 38 47  1  0  0  0
 39 64  1  0  0  0
 39 67  2  0  0  0
 40 52  1  0  0  0
 40 53  2  0  0  0
 40 58  1  0  0  0
 41106  1  0  0  0
 41107  1  0  0  0
 41108  1  0  0  0
 41 48  1  0  0  0
 42 43  1  0  0  0
 42 66  1  0  0  0
 42109  1  0  0  0
 42110  1  0  0  0
 43 44  1  0  0  0
 44111  1  0  0  0
 45 46  2  0  0  0
 45112  1  0  0  0
 46113  1  0  0  0
 47114  1  0  0  0
 47115  1  0  0  0
 48 56  1  0  0  0
 48 65  1  0  0  0
 48116  1  0  0  0
 49 50  1  0  0  0
 49 53  1  0  0  0
 49 64  1  0  0  0
 49117  1  0  0  0
 50 51  1  0  0  0
 50118  1  0  0  0
 50119  1  0  0  0
 51 52  1  0  0  0
 51120  1  0  0  0
 51121  1  0  0  0
 52122  1  0  0  0
 52123  1  0  0  0
 53 54  1  0  0  0
 54 55  2  0  0  0
 54124  1  0  0  0
 55 57  1  0  0  0
 55125  1  0  0  0
 56 69  2  0  0  0
 57 58  2  0  0  0
 57126  1  0  0  0
 58127  1  0  0  0
 59 60  1  0  0  0
 59 61  1  0  0  0
 59 62  1  0  0  0
 60128  1  0  0  0
 60129  1  0  0  0
 60130  1  0  0  0
 61131  1  0  0  0
 61132  1  0  0  0
 61133  1  0  0  0
 62134  1  0  0  0
 62135  1  0  0  0
 62136  1  0  0  0
 63 65  1  0  0  0
 63137  1  0  0  0
 63138  1  0  0  0
 63139  1  0  0  0
 64140  1  0  0  0
 65141  1  0  0  0
 68 77  1  0  0  0
 71 72  1  0  0  0
 71 73  1  0  0  0
 71142  1  0  0  0
 71143  1  0  0  0
 72 80  1  0  0  0
 72144  1  0  0  0
 72145  1  0  0  0
 73 74  1  0  0  0
 73 80  1  0  0  0
 73146  1  0  0  0
 74 81  1  0  0  0
 74147  1  0  0  0
 74148  1  0  0  0
 75 77  1  0  0  0
 75 78  1  0  0  0
 75149  1  0  0  0
 75150  1  0  0  0
 76 79  1  0  0  0
 76 81  1  0  0  0
 76151  1  0  0  0
 76152  1  0  0  0
 77153  1  0  0  0
 77154  1  0  0  0
 78 82  1  0  0  0
 78155  1  0  0  0
 78156  1  0  0  0
 79 82  1  0  0  0
 79157  1  0  0  0
 79158  1  0  0  0
 81159  1  0  0  0
 81160  1  0  0  0
M  CHG  1  81   1
M  ISO  4   1 100  68 101  77 101  80 100
M  END
> <chiral flag>
0

> <version>
0

> <s_m_source_file>
/data/baiqing/PycharmProjects/Reinvent-master-3.2/result/LINK_invent/BTK/process_docking_weight1_custom_sum_contain_oxygen_bond_distance_aromatic_linkinvent_7_9_3/rearranged_h_0197.sdf

> <i_m_source_file_index>
42

> <r_mmod_Potential_Energy-OPLS-2005>
-44.918701171875

> <r_mmod_Stretch_Energy-OPLS-2005>
40.0734062194824

> <r_mmod_Bend_Energy-OPLS-2005>
111.827972412109

> <r_mmod_Torsional_Energy-OPLS-2005>
303.801330566406

> <r_mmod_Improper_Torsional_Energy-OPLS-2005>
21.2549648284912

> <r_mmod_Van_der_Waal_Energy-OPLS-2005>
132.665130615234

> <r_mmod_Electrostatic_Energy-OPLS-2005>
-217.242111206055

> <r_mmod_Solvation_Energy-OPLS-2005>
-463.072784423828

> <b_mmod_Minimization_Converged-OPLS-2005>
0

> <r_mmod_RMS_Derivative-OPLS-2005>
2.34418678283691

$$$$
42
                    3D
 Structure written by MMmdl.
165174  0  0  1  0            999 V2000
  -30.6887  -14.6656   20.4447 C   0  0  0  0  0  0
  -30.4090  -12.4050   19.4577 C   0  0  0  0  0  0
  -29.4942  -12.4928   18.2207 C   0  0  0  0  0  0
  -28.0200  -12.3388   18.6398 C   0  0  0  0  0  0
  -27.6392  -13.2367   19.8489 C   0  0  2  0  0  0
  -28.6906  -13.1718   20.9770 C   0  0  0  0  0  0
  -25.2496  -13.8203   20.5736 C   0  0  0  0  0  0
  -24.1798  -13.0443   20.9225 C   0  0  0  0  0  0
  -24.6398  -11.6922   20.8766 C   0  0  0  0  0  0
  -23.9074  -10.4296   21.0405 C   0  0  0  0  0  0
  -24.3617   -9.4208   21.9179 C   0  0  0  0  0  0
  -23.6293   -8.2246   22.0751 C   0  0  0  0  0  0
  -22.4275   -8.0278   21.3543 C   0  0  0  0  0  0
  -21.9918   -9.0258   20.4641 C   0  0  0  0  0  0
  -22.7250  -10.2137   20.3053 C   0  0  0  0  0  0
  -21.6853   -6.0729   22.5273 C   0  0  0  0  0  0
  -21.4018   -6.5642   23.8204 C   0  0  0  0  0  0
  -21.3665   -5.6801   24.9170 C   0  0  0  0  0  0
  -21.6039   -4.3060   24.7220 C   0  0  0  0  0  0
  -21.8819   -3.8144   23.4346 C   0  0  0  0  0  0
  -21.9197   -4.6957   22.3402 C   0  0  0  0  0  0
  -22.7813  -13.5200   21.1891 C   0  0  0  0  0  0
  -22.1665   -4.2149   21.0983 F   0  0  0  0  0  0
  -21.5626   -3.4547   25.7742 F   0  0  0  0  0  0
  -29.9905  -13.4867   20.3740 N   0  0  0  0  0  0
  -26.2934  -12.9432   20.3320 N   0  0  0  0  0  0
  -25.9331  -11.6577   20.5787 N   0  0  0  0  0  0
  -22.0482  -12.8182   22.0439 N   0  0  0  0  0  0
  -25.4183  -15.1937   20.4185 N   0  0  0  0  0  0
  -31.8961  -14.6650   20.1832 O   0  0  0  0  0  0
  -21.6641   -6.8874   21.4241 O   0  0  0  0  0  0
  -22.3506  -14.5524   20.6747 O   0  0  0  0  0  0
  -24.6246  -31.8593   23.2035 C   0  0  0  0  0  0
  -25.9084  -32.4780   23.8367 C   0  0  1  0  0  0
  -27.2285  -27.3083   20.1463 C   0  0  0  0  0  0
  -25.5908  -33.8574   24.2300 N   0  0  0  0  0  0
  -23.4213  -30.4799   21.5470 C   0  0  2  0  0  0
  -24.8733  -28.9248   20.1293 C   0  0  0  0  0  0
  -22.7486  -29.4605   22.4969 C   0  0  0  0  0  0
  -18.0278  -28.1375   22.8480 C   0  0  0  0  0  0
  -24.1487  -36.7296   23.2637 C   0  0  0  0  0  0
  -25.9628  -30.7864   21.3797 C   0  0  0  0  0  0
  -26.0401  -29.4044   20.7411 C   0  0  0  0  0  0
  -27.2232  -28.6055   20.7497 C   0  0  0  0  0  0
  -26.0476  -26.8850   19.5056 C   0  0  0  0  0  0
  -24.8760  -27.6661   19.5088 C   0  0  0  0  0  0
  -23.6421  -29.8082   20.1666 C   0  0  0  0  0  0
  -25.4108  -36.3072   24.0312 C   0  0  1  0  0  0
  -20.5882  -28.3675   23.1278 C   0  0  2  0  0  0
  -20.6773  -26.9402   22.5410 C   0  0  0  0  0  0
  -19.5754  -26.6372   21.5210 C   0  0  0  0  0  0
  -18.1926  -26.7915   22.1613 C   0  0  0  0  0  0
  -19.1535  -28.8849   23.2870 C   0  0  0  0  0  0
  -18.9462  -30.1449   23.8894 C   0  0  0  0  0  0
  -17.6463  -30.6586   24.0551 C   0  0  0  0  0  0
  -25.9039  -34.9440   23.5104 C   0  0  0  0  0  0
  -16.5351  -29.9080   23.6332 C   0  0  0  0  0  0
  -16.7266  -28.6493   23.0361 C   0  0  0  0  0  0
  -26.4479  -31.6593   25.0732 C   0  0  0  0  0  0
  -25.3705  -31.3705   26.1453 C   0  0  0  0  0  0
  -27.0326  -30.3021   24.6177 C   0  0  0  0  0  0
  -27.6078  -32.4316   25.7470 C   0  0  0  0  0  0
  -27.5575  -37.1788   24.8451 C   0  0  0  0  0  0
  -21.4205  -29.3035   22.3691 N   0  0  0  0  0  0
  -26.4292  -37.3761   23.9394 N   0  0  0  0  0  0
  -24.6884  -31.0590   22.1003 N   0  0  0  0  0  0
  -23.4212  -28.8151   23.3052 O   0  0  0  0  0  0
  -28.3459  -26.4744   20.0404 O   0  0  0  0  0  0
  -26.5623  -34.8896   22.4678 O   0  0  0  0  0  0
  -23.5404  -32.1399   23.7354 O   0  0  0  0  0  0
  -28.0269  -20.5346   18.7632 C   0  0  0  0  0  0
  -27.1186  -19.9566   19.8003 C   0  0  0  0  0  0
  -29.6458  -16.6448   21.5685 C   0  0  0  0  0  0
  -30.5472  -16.8742   19.3962 C   0  0  0  0  0  0
  -28.8035  -17.9567   21.3135 C   0  0  0  0  0  0
  -29.6814  -18.1526   19.1669 C   0  0  0  0  0  0
  -28.5817  -20.2060   20.1570 C   0  0  0  0  0  0
  -26.6577  -23.7865   20.8078 C   0  0  0  0  0  0
  -28.8683  -21.4228   21.1321 C   0  0  0  0  0  0
  -28.6682  -25.4816   21.0821 C   0  0  0  0  0  0
  -28.1503  -23.9527   21.1372 C   0  0  2  0  0  0
  -30.0047  -15.8712   20.3552 N   0  0  0  0  0  0
  -29.4149  -18.9411   20.3860 N   0  0  0  0  0  0
  -29.0058  -22.8289   20.5447 N   0  3  0  0  0  0
  -31.4555  -12.4816   19.1587 H   0  0  0  0  0  0
  -30.3086  -11.4337   19.9439 H   0  0  0  0  0  0
  -29.7596  -11.7229   17.4954 H   0  0  0  0  0  0
  -29.6371  -13.4502   17.7183 H   0  0  0  0  0  0
  -27.8621  -11.2906   18.8941 H   0  0  0  0  0  0
  -27.3615  -12.5442   17.7953 H   0  0  0  0  0  0
  -27.6345  -14.2608   19.4733 H   0  0  0  0  0  0
  -28.7125  -12.1831   21.4389 H   0  0  0  0  0  0
  -28.4460  -13.8786   21.7704 H   0  0  0  0  0  0
  -25.2762   -9.5691   22.4757 H   0  0  0  0  0  0
  -24.0003   -7.4637   22.7477 H   0  0  0  0  0  0
  -21.0849   -8.8762   19.8947 H   0  0  0  0  0  0
  -22.3692  -10.9662   19.6170 H   0  0  0  0  0  0
  -21.2008   -7.6151   23.9715 H   0  0  0  0  0  0
  -21.1490   -6.0527   25.9075 H   0  0  0  0  0  0
  -22.0591   -2.7609   23.2850 H   0  0  0  0  0  0
  -22.4115  -11.9835   22.4793 H   0  0  0  0  0  0
  -21.1089  -13.1175   22.2656 H   0  0  0  0  0  0
  -24.6490  -15.8449   20.5328 H   0  0  0  0  0  0
  -26.2732  -15.6362   20.1072 H   0  0  0  0  0  0
  -26.7153  -32.5466   23.1128 H   0  0  0  0  0  0
  -25.0011  -33.9729   25.0413 H   0  0  0  0  0  0
  -22.7147  -31.2983   21.3987 H   0  0  0  0  0  0
  -23.3739  -35.9645   23.3309 H   0  0  0  0  0  0
  -24.3571  -36.8933   22.2060 H   0  0  0  0  0  0
  -23.7261  -37.6492   23.6671 H   0  0  0  0  0  0
  -26.0817  -31.5385   20.5979 H   0  0  0  0  0  0
  -26.8466  -30.8541   22.0019 H   0  0  0  0  0  0
  -28.1226  -28.9761   21.2234 H   0  0  0  0  0  0
  -26.0317  -25.9335   18.9951 H   0  0  0  0  0  0
  -23.9836  -27.2968   19.0227 H   0  0  0  0  0  0
  -23.7668  -30.5789   19.4052 H   0  0  0  0  0  0
  -22.7619  -29.2366   19.8636 H   0  0  0  0  0  0
  -25.1298  -36.1939   25.0804 H   0  0  0  0  0  0
  -20.9965  -28.3250   24.1399 H   0  0  0  0  0  0
  -20.5683  -26.2279   23.3603 H   0  0  0  0  0  0
  -21.6638  -26.7433   22.1208 H   0  0  0  0  0  0
  -19.6919  -25.6285   21.1237 H   0  0  0  0  0  0
  -19.6703  -27.3189   20.6746 H   0  0  0  0  0  0
  -17.4202  -26.6663   21.4012 H   0  0  0  0  0  0
  -18.0324  -26.0066   22.9018 H   0  0  0  0  0  0
  -19.7946  -30.7243   24.2295 H   0  0  0  0  0  0
  -17.5018  -31.6269   24.5137 H   0  0  0  0  0  0
  -15.5353  -30.2971   23.7658 H   0  0  0  0  0  0
  -15.8661  -28.0792   22.7102 H   0  0  0  0  0  0
  -24.5926  -30.7014   25.7755 H   0  0  0  0  0  0
  -24.8824  -32.2850   26.4838 H   0  0  0  0  0  0
  -25.8017  -30.8914   27.0257 H   0  0  0  0  0  0
  -26.2907  -29.6751   24.1215 H   0  0  0  0  0  0
  -27.4050  -29.7287   25.4669 H   0  0  0  0  0  0
  -27.8753  -30.4303   23.9379 H   0  0  0  0  0  0
  -27.2775  -33.3674   26.1981 H   0  0  0  0  0  0
  -28.3899  -32.6781   25.0279 H   0  0  0  0  0  0
  -28.0716  -31.8464   26.5418 H   0  0  0  0  0  0
  -28.2580  -38.0099   24.7524 H   0  0  0  0  0  0
  -28.1099  -36.2628   24.6284 H   0  0  0  0  0  0
  -27.2270  -37.1446   25.8846 H   0  0  0  0  0  0
  -20.9393  -29.8764   21.6906 H   0  0  0  0  0  0
  -26.0174  -38.2822   24.1450 H   0  0  0  0  0  0
  -27.8117  -21.5661   18.4926 H   0  0  0  0  0  0
  -28.2546  -19.9024   17.9087 H   0  0  0  0  0  0
  -26.7646  -18.9466   19.6047 H   0  0  0  0  0  0
  -26.3731  -20.6147   20.2423 H   0  0  0  0  0  0
  -29.0868  -16.0015   22.2482 H   0  0  0  0  0  0
  -30.5679  -16.9042   22.0919 H   0  0  0  0  0  0
  -31.5401  -17.1863   19.7287 H   0  0  0  0  0  0
  -30.6949  -16.3988   18.4238 H   0  0  0  0  0  0
  -28.6113  -18.4480   22.2694 H   0  0  0  0  0  0
  -27.8284  -17.6486   20.9354 H   0  0  0  0  0  0
  -28.7431  -17.8533   18.6983 H   0  0  0  0  0  0
  -30.2043  -18.7897   18.4506 H   0  0  0  0  0  0
  -26.0623  -24.5655   21.2843 H   0  0  0  0  0  0
  -26.2727  -22.8371   21.1797 H   0  0  0  0  0  0
  -26.4745  -23.8215   19.7347 H   0  0  0  0  0  0
  -29.7934  -21.2154   21.6706 H   0  0  0  0  0  0
  -28.0996  -21.4225   21.9054 H   0  0  0  0  0  0
  -29.7575  -25.4628   21.1395 H   0  0  0  0  0  0
  -28.3688  -25.9486   22.0220 H   0  0  0  0  0  0
  -28.2186  -23.7423   22.2062 H   0  0  0  0  0  0
  -28.8911  -22.7803   19.5446 H   0  0  0  0  0  0
  -29.9728  -23.0758   20.6930 H   0  0  0  0  0  0
  1 25  1  0  0  0
  1 30  2  0  0  0
  1 82  1  0  0  0
  2  3  1  0  0  0
  2 25  1  0  0  0
  2 85  1  0  0  0
  2 86  1  0  0  0
  3  4  1  0  0  0
  3 87  1  0  0  0
  3 88  1  0  0  0
  4  5  1  0  0  0
  4 89  1  0  0  0
  4 90  1  0  0  0
  5  6  1  0  0  0
  5 26  1  0  0  0
  5 91  1  0  0  0
  6 25  1  0  0  0
  6 92  1  0  0  0
  6 93  1  0  0  0
  7  8  2  0  0  0
  7 26  1  0  0  0
  7 29  1  0  0  0
  8  9  1  0  0  0
  8 22  1  0  0  0
  9 10  1  0  0  0
  9 27  2  0  0  0
 10 11  2  0  0  0
 10 15  1  0  0  0
 11 12  1  0  0  0
 11 94  1  0  0  0
 12 13  2  0  0  0
 12 95  1  0  0  0
 13 14  1  0  0  0
 13 31  1  0  0  0
 14 15  2  0  0  0
 14 96  1  0  0  0
 15 97  1  0  0  0
 16 17  2  0  0  0
 16 21  1  0  0  0
 16 31  1  0  0  0
 17 18  1  0  0  0
 17 98  1  0  0  0
 18 19  2  0  0  0
 18 99  1  0  0  0
 19 20  1  0  0  0
 19 24  1  0  0  0
 20 21  2  0  0  0
 20100  1  0  0  0
 21 23  1  0  0  0
 22 28  1  0  0  0
 22 32  2  0  0  0
 26 27  1  0  0  0
 28101  1  0  0  0
 28102  1  0  0  0
 29103  1  0  0  0
 29104  1  0  0  0
 33 34  1  0  0  0
 33 66  1  0  0  0
 33 70  2  0  0  0
 34 36  1  0  0  0
 34 59  1  0  0  0
 34105  1  0  0  0
 35 44  2  0  0  0
 35 45  1  0  0  0
 35 68  1  0  0  0
 36 56  1  0  0  0
 36106  1  0  0  0
 37 39  1  0  0  0
 37 47  1  0  0  0
 37 66  1  0  0  0
 37107  1  0  0  0
 38 43  2  0  0  0
 38 46  1  0  0  0
 38 47  1  0  0  0
 39 64  1  0  0  0
 39 67  2  0  0  0
 40 52  1  0  0  0
 40 53  2  0  0  0
 40 58  1  0  0  0
 41108  1  0  0  0
 41109  1  0  0  0
 41110  1  0  0  0
 41 48  1  0  0  0
 42 43  1  0  0  0
 42 66  1  0  0  0
 42111  1  0  0  0
 42112  1  0  0  0
 43 44  1  0  0  0
 44113  1  0  0  0
 45 46  2  0  0  0
 45114  1  0  0  0
 46115  1  0  0  0
 47116  1  0  0  0
 47117  1  0  0  0
 48 56  1  0  0  0
 48 65  1  0  0  0
 48118  1  0  0  0
 49 50  1  0  0  0
 49 53  1  0  0  0
 49 64  1  0  0  0
 49119  1  0  0  0
 50 51  1  0  0  0
 50120  1  0  0  0
 50121  1  0  0  0
 51 52  1  0  0  0
 51122  1  0  0  0
 51123  1  0  0  0
 52124  1  0  0  0
 52125  1  0  0  0
 53 54  1  0  0  0
 54 55  2  0  0  0
 54126  1  0  0  0
 55 57  1  0  0  0
 55127  1  0  0  0
 56 69  2  0  0  0
 57 58  2  0  0  0
 57128  1  0  0  0
 58129  1  0  0  0
 59 60  1  0  0  0
 59 61  1  0  0  0
 59 62  1  0  0  0
 60130  1  0  0  0
 60131  1  0  0  0
 60132  1  0  0  0
 61133  1  0  0  0
 61134  1  0  0  0
 61135  1  0  0  0
 62136  1  0  0  0
 62137  1  0  0  0
 62138  1  0  0  0
 63 65  1  0  0  0
 63139  1  0  0  0
 63140  1  0  0  0
 63141  1  0  0  0
 64142  1  0  0  0
 65143  1  0  0  0
 68 80  1  0  0  0
 71 72  1  0  0  0
 71 77  1  0  0  0
 71144  1  0  0  0
 71145  1  0  0  0
 72 77  1  0  0  0
 72146  1  0  0  0
 72147  1  0  0  0
 73 75  1  0  0  0
 73 82  1  0  0  0
 73148  1  0  0  0
 73149  1  0  0  0
 74 76  1  0  0  0
 74 82  1  0  0  0
 74150  1  0  0  0
 74151  1  0  0  0
 75 83  1  0  0  0
 75152  1  0  0  0
 75153  1  0  0  0
 76 83  1  0  0  0
 76154  1  0  0  0
 76155  1  0  0  0
 77 79  1  0  0  0
 77 83  1  0  0  0
 78156  1  0  0  0
 78157  1  0  0  0
 78158  1  0  0  0
 78 81  1  0  0  0
 79 84  1  0  0  0
 79159  1  0  0  0
 79160  1  0  0  0
 80 81  1  0  0  0
 80161  1  0  0  0
 80162  1  0  0  0
 81 84  1  0  0  0
 81163  1  0  0  0
 84164  1  0  0  0
 84165  1  0  0  0
M  CHG  1  84   1
M  ISO  4   1 100  68 101  80 101  82 100
M  END
> <chiral flag>
0

> <version>
0

> <s_m_source_file>
/data/baiqing/PycharmProjects/Reinvent-master-3.2/result/LINK_invent/BTK/process_docking_weight1_custom_sum_contain_oxygen_bond_distance_aromatic_linkinvent_7_9_3/rearranged_h_0197.sdf

> <i_m_source_file_index>
43

> <r_mmod_Potential_Energy-OPLS-2005>
310.034729003906

> <r_mmod_Stretch_Energy-OPLS-2005>
97.1725463867188

> <r_mmod_Bend_Energy-OPLS-2005>
195.79704284668

> <r_mmod_Torsional_Energy-OPLS-2005>
459.112121582031

> <r_mmod_Improper_Torsional_Energy-OPLS-2005>
18.3395328521729

> <r_mmod_Van_der_Waal_Energy-OPLS-2005>
131.6455078125

> <r_mmod_Electrostatic_Energy-OPLS-2005>
-228.236877441406

> <r_mmod_Solvation_Energy-OPLS-2005>
-422.661376953125

> <b_mmod_Minimization_Converged-OPLS-2005>
0

> <r_mmod_RMS_Derivative-OPLS-2005>
2.91789221763611

$$$$
43
                    3D
 Structure written by MMmdl.
185195  0  0  1  0            999 V2000
  -30.7191  -14.3654   20.6700 C   0  0  0  0  0  0
  -30.4272  -12.2770   19.3893 C   0  0  0  0  0  0
  -29.4793  -12.4756   18.1914 C   0  0  0  0  0  0
  -28.0054  -12.3462   18.6204 C   0  0  0  0  0  0
  -27.6628  -13.1797   19.8848 C   0  0  2  0  0  0
  -28.7022  -12.9051   20.9938 C   0  0  0  0  0  0
  -25.2583  -13.8124   20.5628 C   0  0  0  0  0  0
  -24.1822  -13.0446   20.9194 C   0  0  0  0  0  0
  -24.6364  -11.6902   20.8817 C   0  0  0  0  0  0
  -23.9033  -10.4308   21.0474 C   0  0  0  0  0  0
  -24.3605   -9.4200   21.9209 C   0  0  0  0  0  0
  -23.6312   -8.2224   22.0727 C   0  0  0  0  0  0
  -22.4298   -8.0282   21.3511 C   0  0  0  0  0  0
  -21.9927   -9.0249   20.4629 C   0  0  0  0  0  0
  -22.7230  -10.2146   20.3083 C   0  0  0  0  0  0
  -21.6858   -6.0769   22.5266 C   0  0  0  0  0  0
  -21.4015   -6.5653   23.8208 C   0  0  0  0  0  0
  -21.3631   -5.6770   24.9155 C   0  0  0  0  0  0
  -21.6032   -4.3037   24.7198 C   0  0  0  0  0  0
  -21.8819   -3.8155   23.4318 C   0  0  0  0  0  0
  -21.9204   -4.6999   22.3385 C   0  0  0  0  0  0
  -22.7858  -13.5279   21.1828 C   0  0  0  0  0  0
  -22.1685   -4.2205   21.0972 F   0  0  0  0  0  0
  -21.5611   -3.4483   25.7694 F   0  0  0  0  0  0
  -30.0386  -13.2154   20.4509 N   0  0  0  0  0  0
  -26.3005  -12.9237   20.3398 N   0  0  0  0  0  0
  -25.9273  -11.6440   20.5859 N   0  0  0  0  0  0
  -22.0477  -12.8297   22.0403 N   0  0  0  0  0  0
  -25.4246  -15.1815   20.3908 N   0  0  0  0  0  0
  -31.7597  -14.6716   20.0808 O   0  0  0  0  0  0
  -21.6643   -6.8905   21.4234 O   0  0  0  0  0  0
  -22.3565  -14.5579   20.6643 O   0  0  0  0  0  0
  -24.6067  -31.8711   23.2112 C   0  0  0  0  0  0
  -25.8982  -32.4843   23.8403 C   0  0  1  0  0  0
  -27.2718  -27.4986   20.1085 C   0  0  0  0  0  0
  -25.5855  -33.8638   24.2339 N   0  0  0  0  0  0
  -23.3920  -30.4908   21.5489 C   0  0  2  0  0  0
  -24.8456  -28.9593   20.1172 C   0  0  0  0  0  0
  -22.7369  -29.4666   22.5015 C   0  0  0  0  0  0
  -18.0272  -28.1378   22.8496 C   0  0  0  0  0  0
  -24.1480  -36.7345   23.2634 C   0  0  0  0  0  0
  -25.9063  -30.8676   21.3421 C   0  0  0  0  0  0
  -25.9947  -29.5016   20.7007 C   0  0  0  0  0  0
  -27.2046  -28.7887   20.6874 C   0  0  0  0  0  0
  -26.1037  -26.9612   19.5228 C   0  0  0  0  0  0
  -24.8928  -27.6846   19.5224 C   0  0  0  0  0  0
  -23.5993  -29.8133   20.1654 C   0  0  0  0  0  0
  -25.4091  -36.3133   24.0340 C   0  0  1  0  0  0
  -20.5846  -28.3652   23.1344 C   0  0  2  0  0  0
  -20.6756  -26.9397   22.5428 C   0  0  0  0  0  0
  -19.5739  -26.6391   21.5215 C   0  0  0  0  0  0
  -18.1915  -26.7929   22.1624 C   0  0  0  0  0  0
  -19.1514  -28.8834   23.2917 C   0  0  0  0  0  0
  -18.9446  -30.1436   23.8934 C   0  0  0  0  0  0
  -17.6447  -30.6579   24.0579 C   0  0  0  0  0  0
  -25.9017  -34.9495   23.5146 C   0  0  0  0  0  0
  -16.5341  -29.9094   23.6307 C   0  0  0  0  0  0
  -16.7260  -28.6511   23.0330 C   0  0  0  0  0  0
  -26.4450  -31.6608   25.0698 C   0  0  0  0  0  0
  -25.3759  -31.3697   26.1482 C   0  0  0  0  0  0
  -27.0255  -30.3071   24.5990 C   0  0  0  0  0  0
  -27.6052  -32.4310   25.7440 C   0  0  0  0  0  0
  -27.5586  -37.1808   24.8454 C   0  0  0  0  0  0
  -21.4102  -29.3024   22.3755 N   0  0  0  0  0  0
  -26.4289  -37.3803   23.9417 N   0  0  0  0  0  0
  -24.6534  -31.0895   22.0955 N   0  0  0  0  0  0
  -23.4177  -28.8220   23.3033 O   0  0  0  0  0  0
  -28.4148  -26.7249   20.0879 O   0  0  0  0  0  0
  -26.5585  -34.8932   22.4707 O   0  0  0  0  0  0
  -23.5284  -32.1422   23.7564 O   0  0  0  0  0  0
  -31.8067  -20.2025   20.8466 C   0  0  0  0  0  0
  -30.5216  -19.8528   20.3962 C   0  0  0  0  0  0
  -29.4493  -20.2643   21.2191 C   0  0  0  0  0  0
  -30.9326  -21.2623   22.6465 C   0  0  0  0  0  0
  -31.0077  -17.0064   22.0414 C   0  0  0  0  0  0
  -29.0527  -23.6123   23.4537 C   0  0  0  0  0  0
  -31.1337  -24.4749   24.4589 C   0  0  0  0  0  0
  -30.8102  -15.6697   22.7455 C   0  0  0  0  0  0
  -29.4071  -24.2637   22.1053 C   0  0  0  0  0  0
  -31.4833  -25.1669   23.1188 C   0  0  0  0  0  0
  -30.3164  -23.1889   24.2444 C   0  0  2  0  0  0
  -29.7447  -16.6254   21.2682 C   0  0  2  0  0  0
  -27.9791  -20.0207   20.9195 C   0  0  0  0  0  0
  -30.8836  -17.1054   17.7841 C   0  0  0  0  0  0
  -30.3773  -19.1462   19.0485 C   0  0  0  0  0  0
  -29.4593  -16.9525   19.7860 C   0  0  0  0  0  0
  -30.5981  -26.1273   21.0005 C   0  0  0  0  0  0
  -29.6012  -27.2518   20.6911 C   0  0  0  0  0  0
  -32.0044  -20.9090   21.9738 N   0  0  0  0  0  0
  -29.6827  -20.9542   22.3494 N   0  0  0  0  0  0
  -30.1137  -15.2150   21.5311 N   0  0  0  0  0  0
  -31.1811  -22.1528   23.6589 N   0  0  0  0  0  0
  -30.2771  -25.4543   22.2903 N   0  3  1  0  0  0
  -30.5723  -17.6702   19.1175 N   0  3  1  0  0  0
  -31.4645  -12.4018   19.0707 H   0  0  0  0  0  0
  -30.3594  -11.2539   19.7615 H   0  0  0  0  0  0
  -29.6941  -11.7279   17.4258 H   0  0  0  0  0  0
  -29.6480  -13.4508   17.7334 H   0  0  0  0  0  0
  -27.8081  -11.2927   18.8148 H   0  0  0  0  0  0
  -27.3523  -12.6279   17.7932 H   0  0  0  0  0  0
  -27.7230  -14.2273   19.6057 H   0  0  0  0  0  0
  -28.6762  -11.8563   21.2942 H   0  0  0  0  0  0
  -28.4481  -13.4526   21.9025 H   0  0  0  0  0  0
  -25.2711   -9.5704   22.4835 H   0  0  0  0  0  0
  -24.0003   -7.4628   22.7455 H   0  0  0  0  0  0
  -21.0814   -8.8799   19.8995 H   0  0  0  0  0  0
  -22.3653  -10.9702   19.6233 H   0  0  0  0  0  0
  -21.2018   -7.6151   23.9729 H   0  0  0  0  0  0
  -21.1427   -6.0494   25.9057 H   0  0  0  0  0  0
  -22.0636   -2.7627   23.2774 H   0  0  0  0  0  0
  -22.4085  -11.9938   22.4770 H   0  0  0  0  0  0
  -21.1124  -13.1421   22.2634 H   0  0  0  0  0  0
  -24.6188  -15.7987   20.4056 H   0  0  0  0  0  0
  -26.2281  -15.5949   19.9380 H   0  0  0  0  0  0
  -26.7071  -32.5605   23.1201 H   0  0  0  0  0  0
  -24.9991  -33.9813   25.0474 H   0  0  0  0  0  0
  -22.6772  -31.3039   21.4072 H   0  0  0  0  0  0
  -23.3728  -35.9698   23.3306 H   0  0  0  0  0  0
  -24.3588  -36.8948   22.2054 H   0  0  0  0  0  0
  -23.7262  -37.6558   23.6644 H   0  0  0  0  0  0
  -25.9905  -31.6297   20.5664 H   0  0  0  0  0  0
  -26.8032  -30.9433   21.9439 H   0  0  0  0  0  0
  -28.0649  -29.2749   21.1226 H   0  0  0  0  0  0
  -26.1402  -25.9804   19.0701 H   0  0  0  0  0  0
  -24.0112  -27.2534   19.0687 H   0  0  0  0  0  0
  -23.6994  -30.5844   19.4006 H   0  0  0  0  0  0
  -22.7283  -29.2228   19.8750 H   0  0  0  0  0  0
  -25.1266  -36.1999   25.0835 H   0  0  0  0  0  0
  -20.9943  -28.3218   24.1459 H   0  0  0  0  0  0
  -20.5646  -26.2261   23.3605 H   0  0  0  0  0  0
  -21.6632  -26.7437   22.1226 H   0  0  0  0  0  0
  -19.6895  -25.6307   21.1226 H   0  0  0  0  0  0
  -19.6679  -27.3214   20.6755 H   0  0  0  0  0  0
  -17.4184  -26.6683   21.4024 H   0  0  0  0  0  0
  -18.0308  -26.0065   22.9012 H   0  0  0  0  0  0
  -19.7921  -30.7246   24.2317 H   0  0  0  0  0  0
  -17.5004  -31.6259   24.5185 H   0  0  0  0  0  0
  -15.5341  -30.3016   23.7606 H   0  0  0  0  0  0
  -15.8659  -28.0854   22.7007 H   0  0  0  0  0  0
  -24.5892  -30.7080   25.7839 H   0  0  0  0  0  0
  -24.8993  -32.2851   26.5008 H   0  0  0  0  0  0
  -25.8145  -30.8814   27.0195 H   0  0  0  0  0  0
  -26.2748  -29.6841   24.1110 H   0  0  0  0  0  0
  -27.4137  -29.7293   25.4387 H   0  0  0  0  0  0
  -27.8532  -30.4431   23.9028 H   0  0  0  0  0  0
  -27.2691  -33.3584   26.2095 H   0  0  0  0  0  0
  -28.3813  -32.6919   25.0231 H   0  0  0  0  0  0
  -28.0779  -31.8390   26.5289 H   0  0  0  0  0  0
  -28.2590  -38.0114   24.7518 H   0  0  0  0  0  0
  -28.1090  -36.2655   24.6240 H   0  0  0  0  0  0
  -27.2320  -37.1419   25.8856 H   0  0  0  0  0  0
  -20.9253  -29.8757   21.6993 H   0  0  0  0  0  0
  -26.0185  -38.2881   24.1414 H   0  0  0  0  0  0
  -32.6880  -19.9278   20.2862 H   0  0  0  0  0  0
  -31.9239  -17.0351   21.4501 H   0  0  0  0  0  0
  -30.9256  -17.8739   22.6980 H   0  0  0  0  0  0
  -28.3526  -22.7891   23.3223 H   0  0  0  0  0  0
  -28.4910  -24.3326   24.0498 H   0  0  0  0  0  0
  -30.5648  -25.1651   25.0847 H   0  0  0  0  0  0
  -32.0460  -24.2588   25.0164 H   0  0  0  0  0  0
  -30.1567  -15.7257   23.6186 H   0  0  0  0  0  0
  -31.7458  -15.1571   22.9803 H   0  0  0  0  0  0
  -28.4896  -24.5399   21.5854 H   0  0  0  0  0  0
  -29.9150  -23.5447   21.4609 H   0  0  0  0  0  0
  -32.1772  -24.5498   22.5453 H   0  0  0  0  0  0
  -32.0073  -26.0992   23.3336 H   0  0  0  0  0  0
  -30.0058  -22.8044   25.2172 H   0  0  0  0  0  0
  -28.8659  -16.8884   21.8615 H   0  0  0  0  0  0
  -27.7653  -19.9889   19.8537 H   0  0  0  0  0  0
  -27.3679  -20.8208   21.3402 H   0  0  0  0  0  0
  -27.6449  -19.0872   21.3709 H   0  0  0  0  0  0
  -31.7377  -17.6188   17.3375 H   0  0  0  0  0  0
  -30.0334  -17.1984   17.1103 H   0  0  0  0  0  0
  -31.1460  -16.0496   17.8522 H   0  0  0  0  0  0
  -31.1335  -19.5814   18.3936 H   0  0  0  0  0  0
  -29.4312  -19.3860   18.5613 H   0  0  0  0  0  0
  -28.5645  -17.5701   19.7261 H   0  0  0  0  0  0
  -29.1666  -16.0676   19.2219 H   0  0  0  0  0  0
  -31.5856  -26.5844   21.0708 H   0  0  0  0  0  0
  -30.6600  -25.4181   20.1734 H   0  0  0  0  0  0
  -30.0473  -27.9686   20.0013 H   0  0  0  0  0  0
  -29.4085  -27.7762   21.6268 H   0  0  0  0  0  0
  -32.1715  -22.2715   23.8302 H   0  0  0  0  0  0
  -29.7382  -26.1197   22.8246 H   0  0  0  0  0  0
  -31.3988  -17.4743   19.6630 H   0  0  0  0  0  0
  1 25  1  0  0  0
  1 30  2  0  0  0
  1 91  1  0  0  0
  2  3  1  0  0  0
  2 25  1  0  0  0
  2 95  1  0  0  0
  2 96  1  0  0  0
  3  4  1  0  0  0
  3 97  1  0  0  0
  3 98  1  0  0  0
  4  5  1  0  0  0
  4 99  1  0  0  0
  4100  1  0  0  0
  5  6  1  0  0  0
  5 26  1  0  0  0
  5101  1  0  0  0
  6 25  1  0  0  0
  6102  1  0  0  0
  6103  1  0  0  0
  7  8  2  0  0  0
  7 26  1  0  0  0
  7 29  1  0  0  0
  8  9  1  0  0  0
  8 22  1  0  0  0
  9 10  1  0  0  0
  9 27  2  0  0  0
 10 11  2  0  0  0
 10 15  1  0  0  0
 11 12  1  0  0  0
 11104  1  0  0  0
 12 13  2  0  0  0
 12105  1  0  0  0
 13 14  1  0  0  0
 13 31  1  0  0  0
 14 15  2  0  0  0
 14106  1  0  0  0
 15107  1  0  0  0
 16 17  2  0  0  0
 16 21  1  0  0  0
 16 31  1  0  0  0
 17 18  1  0  0  0
 17108  1  0  0  0
 18 19  2  0  0  0
 18109  1  0  0  0
 19 20  1  0  0  0
 19 24  1  0  0  0
 20 21  2  0  0  0
 20110  1  0  0  0
 21 23  1  0  0  0
 22 28  1  0  0  0
 22 32  2  0  0  0
 26 27  1  0  0  0
 28111  1  0  0  0
 28112  1  0  0  0
 29113  1  0  0  0
 29114  1  0  0  0
 33 34  1  0  0  0
 33 66  1  0  0  0
 33 70  2  0  0  0
 34 36  1  0  0  0
 34 59  1  0  0  0
 34115  1  0  0  0
 35 44  2  0  0  0
 35 45  1  0  0  0
 35 68  1  0  0  0
 36 56  1  0  0  0
 36116  1  0  0  0
 37 39  1  0  0  0
 37 47  1  0  0  0
 37 66  1  0  0  0
 37117  1  0  0  0
 38 43  2  0  0  0
 38 46  1  0  0  0
 38 47  1  0  0  0
 39 64  1  0  0  0
 39 67  2  0  0  0
 40 52  1  0  0  0
 40 53  2  0  0  0
 40 58  1  0  0  0
 41118  1  0  0  0
 41119  1  0  0  0
 41120  1  0  0  0
 41 48  1  0  0  0
 42 43  1  0  0  0
 42 66  1  0  0  0
 42121  1  0  0  0
 42122  1  0  0  0
 43 44  1  0  0  0
 44123  1  0  0  0
 45 46  2  0  0  0
 45124  1  0  0  0
 46125  1  0  0  0
 47126  1  0  0  0
 47127  1  0  0  0
 48 56  1  0  0  0
 48 65  1  0  0  0
 48128  1  0  0  0
 49 50  1  0  0  0
 49 53  1  0  0  0
 49 64  1  0  0  0
 49129  1  0  0  0
 50 51  1  0  0  0
 50130  1  0  0  0
 50131  1  0  0  0
 51 52  1  0  0  0
 51132  1  0  0  0
 51133  1  0  0  0
 52134  1  0  0  0
 52135  1  0  0  0
 53 54  1  0  0  0
 54 55  2  0  0  0
 54136  1  0  0  0
 55 57  1  0  0  0
 55137  1  0  0  0
 56 69  2  0  0  0
 57 58  2  0  0  0
 57138  1  0  0  0
 58139  1  0  0  0
 59 60  1  0  0  0
 59 61  1  0  0  0
 59 62  1  0  0  0
 60140  1  0  0  0
 60141  1  0  0  0
 60142  1  0  0  0
 61143  1  0  0  0
 61144  1  0  0  0
 61145  1  0  0  0
 62146  1  0  0  0
 62147  1  0  0  0
 62148  1  0  0  0
 63 65  1  0  0  0
 63149  1  0  0  0
 63150  1  0  0  0
 63151  1  0  0  0
 64152  1  0  0  0
 65153  1  0  0  0
 68 88  1  0  0  0
 71 72  2  0  0  0
 71 89  1  0  0  0
 71154  1  0  0  0
 72 73  1  0  0  0
 72 85  1  0  0  0
 73 83  1  0  0  0
 73 90  2  0  0  0
 74 89  2  0  0  0
 74 90  1  0  0  0
 74 92  1  0  0  0
 75 78  1  0  0  0
 75 82  1  0  0  0
 75155  1  0  0  0
 75156  1  0  0  0
 76 79  1  0  0  0
 76 81  1  0  0  0
 76157  1  0  0  0
 76158  1  0  0  0
 77 80  1  0  0  0
 77 81  1  0  0  0
 77159  1  0  0  0
 77160  1  0  0  0
 78 91  1  0  0  0
 78161  1  0  0  0
 78162  1  0  0  0
 79 93  1  0  0  0
 79163  1  0  0  0
 79164  1  0  0  0
 80 93  1  0  0  0
 80165  1  0  0  0
 80166  1  0  0  0
 81 92  1  0  0  0
 81167  1  0  0  0
 82 86  1  0  0  0
 82 91  1  0  0  0
 82168  1  0  0  0
 83169  1  0  0  0
 83170  1  0  0  0
 83171  1  0  0  0
 84172  1  0  0  0
 84173  1  0  0  0
 84174  1  0  0  0
 84 94  1  0  0  0
 85 94  1  0  0  0
 85175  1  0  0  0
 85176  1  0  0  0
 86 94  1  0  0  0
 86177  1  0  0  0
 86178  1  0  0  0
 87 88  1  0  0  0
 87179  1  0  0  0
 87180  1  0  0  0
 87 93  1  0  0  0
 88181  1  0  0  0
 88182  1  0  0  0
 92183  1  0  0  0
 93184  1  0  0  0
 94185  1  0  0  0
M  CHG  2  93   1  94   1
M  ISO  4   1 100  68 101  88 101  91 100
M  END
> <chiral flag>
0

> <version>
0

> <s_m_source_file>
/data/baiqing/PycharmProjects/Reinvent-master-3.2/result/LINK_invent/BTK/process_docking_weight1_custom_sum_contain_oxygen_bond_distance_aromatic_linkinvent_7_9_3/rearranged_h_0197.sdf

> <i_m_source_file_index>
44

> <r_mmod_Potential_Energy-OPLS-2005>
-510.821899414062

> <r_mmod_Stretch_Energy-OPLS-2005>
38.1813812255859

> <r_mmod_Bend_Energy-OPLS-2005>
150.355987548828

> <r_mmod_Torsional_Energy-OPLS-2005>
357.473663330078

> <r_mmod_Improper_Torsional_Energy-OPLS-2005>
11.9774408340454

> <r_mmod_Van_der_Waal_Energy-OPLS-2005>
174.777145385742

> <r_mmod_Electrostatic_Energy-OPLS-2005>
-460.522674560547

> <r_mmod_Solvation_Energy-OPLS-2005>
-790.1923828125

> <b_mmod_Minimization_Converged-OPLS-2005>
0

> <r_mmod_RMS_Derivative-OPLS-2005>
4.56680154800415

$$$$
44
                    3D
 Structure written by MMmdl.
171180  0  0  1  0            999 V2000
  -31.0525  -13.1561   19.0406 C   0  0  0  0  0  0
  -29.8469  -14.2097   20.2199 C   0  0  0  0  0  0
  -28.9835  -14.6504   18.9770 C   0  0  0  0  0  0
  -27.7407  -13.7987   18.9210 C   0  0  0  0  0  0
  -27.5775  -13.1070   20.1951 C   0  0  2  0  0  0
  -28.8386  -12.1854   20.3403 C   0  0  0  0  0  0
  -25.2182  -13.7532   20.6223 C   0  0  0  0  0  0
  -24.1429  -12.9637   20.9152 C   0  0  0  0  0  0
  -24.6209  -11.6314   20.8358 C   0  0  0  0  0  0
  -23.8992  -10.3883   21.0050 C   0  0  0  0  0  0
  -24.3759   -9.3865   21.8899 C   0  0  0  0  0  0
  -23.6300   -8.2075   22.0557 C   0  0  0  0  0  0
  -22.4250   -7.9968   21.3422 C   0  0  0  0  0  0
  -21.9942   -8.9784   20.4317 C   0  0  0  0  0  0
  -22.7164  -10.1685   20.2729 C   0  0  0  0  0  0
  -21.6960   -6.0697   22.5397 C   0  0  0  0  0  0
  -21.3759   -6.5522   23.8262 C   0  0  0  0  0  0
  -21.3610   -5.6686   24.9194 C   0  0  0  0  0  0
  -21.6152   -4.2951   24.7298 C   0  0  0  0  0  0
  -21.8793   -3.8138   23.4370 C   0  0  0  0  0  0
  -21.9047   -4.6908   22.3388 C   0  0  0  0  0  0
  -22.7662  -13.4733   21.1713 C   0  0  0  0  0  0
  -22.1749   -4.2100   21.1002 F   0  0  0  0  0  0
  -21.5625   -3.4431   25.7756 F   0  0  0  0  0  0
  -30.1299  -12.9147   20.0411 N   0  0  0  0  0  0
  -26.2302  -12.8132   20.4332 N   0  0  0  0  0  0
  -25.8971  -11.5606   20.5962 N   0  0  0  0  0  0
  -22.0380  -12.7459   22.0174 N   0  0  0  0  0  0
  -25.3652  -15.1330   20.4865 N   0  0  0  0  0  0
  -32.0552  -13.9246   19.2345 O   0  0  0  0  0  0
  -21.6545   -6.8792   21.4290 O   0  0  0  0  0  0
  -22.3286  -14.4945   20.6559 O   0  0  0  0  0  0
  -24.6541  -31.8334   23.1976 C   0  0  0  0  0  0
  -25.9349  -32.4696   23.8269 C   0  0  1  0  0  0
  -27.1004  -27.0512   19.9489 C   0  0  0  0  0  0
  -25.6094  -33.8466   24.2177 N   0  0  0  0  0  0
  -23.4513  -30.4762   21.5419 C   0  0  2  0  0  0
  -24.8625  -28.9098   20.0840 C   0  0  0  0  0  0
  -22.7630  -29.4571   22.4755 C   0  0  0  0  0  0
  -18.0282  -28.1392   22.8472 C   0  0  0  0  0  0
  -24.1520  -36.7228   23.2639 C   0  0  0  0  0  0
  -26.0307  -30.6339   21.4135 C   0  0  0  0  0  0
  -26.0646  -29.2531   20.7139 C   0  0  0  0  0  0
  -27.1894  -28.3321   20.6480 C   0  0  0  0  0  0
  -25.8733  -26.8401   19.3041 C   0  0  0  0  0  0
  -24.7843  -27.7042   19.3800 C   0  0  0  0  0  0
  -23.6748  -29.8500   20.1472 C   0  0  0  0  0  0
  -25.4159  -36.2919   24.0283 C   0  0  1  0  0  0
  -20.6022  -28.3759   23.1153 C   0  0  2  0  0  0
  -20.6798  -26.9419   22.5343 C   0  0  0  0  0  0
  -19.5733  -26.6369   21.5195 C   0  0  0  0  0  0
  -18.1955  -26.7936   22.1625 C   0  0  0  0  0  0
  -19.1588  -28.8842   23.2853 C   0  0  0  0  0  0
  -18.9498  -30.1467   23.8856 C   0  0  0  0  0  0
  -17.6498  -30.6604   24.0589 C   0  0  0  0  0  0
  -25.9104  -34.9351   23.5011 C   0  0  0  0  0  0
  -16.5390  -29.9126   23.6338 C   0  0  0  0  0  0
  -16.7269  -28.6538   23.0357 C   0  0  0  0  0  0
  -26.4561  -31.6587   25.0743 C   0  0  0  0  0  0
  -25.3794  -31.3933   26.1551 C   0  0  0  0  0  0
  -27.0511  -30.2954   24.6561 C   0  0  0  0  0  0
  -27.6037  -32.4415   25.7648 C   0  0  0  0  0  0
  -27.5577  -37.1798   24.8454 C   0  0  0  0  0  0
  -21.4328  -29.3143   22.3565 N   0  0  0  0  0  0
  -26.4272  -37.3709   23.9395 N   0  0  0  0  0  0
  -24.7385  -31.0100   22.1003 N   0  0  0  0  0  0
  -23.4183  -28.7964   23.2863 O   0  0  0  0  0  0
  -28.0457  -25.9571   19.7595 O   0  0  0  0  0  0
  -26.5615  -34.8879   22.4551 O   0  0  0  0  0  0
  -23.5661  -32.1352   23.7116 O   0  0  0  0  0  0
  -26.9010  -16.9078   16.2214 C   0  0  0  0  0  0
  -29.8028  -14.1741   15.5848 C   0  0  0  0  0  0
  -28.1631  -13.2265   16.3199 C   0  0  0  0  0  0
  -28.2368  -17.5420   16.8460 C   0  0  1  0  0  0
  -29.7064  -12.8908   16.4589 C   0  0  2  0  0  0
  -28.1136  -16.1870   15.8731 C   0  0  1  0  0  0
  -28.0625  -23.0086   15.9771 C   0  0  0  0  0  0
  -25.9524  -23.5199   16.9624 C   0  0  0  0  0  0
  -27.7342  -18.6103   18.0431 C   0  0  0  0  0  0
  -27.4272  -21.4498   18.7659 C   0  0  0  0  0  0
  -27.5964  -24.4091   19.6053 C   0  0  0  0  0  0
  -27.8834  -23.0965   18.4900 C   0  0  1  0  0  0
  -30.7054  -12.7486   17.7084 N   0  0  0  0  0  0
  -27.4023  -23.5677   17.1731 N   0  0  0  0  0  0
  -28.4283  -14.6223   15.7918 N   0  3  1  0  0  0
  -27.8623  -20.2104   17.8189 N   0  3  0  0  0  0
  -29.4415  -14.4148   21.1922 H   0  0  0  0  0  0
  -30.6434  -14.8395   20.5593 H   0  0  0  0  0  0
  -29.5688  -14.8171   18.0887 H   0  0  0  0  0  0
  -28.7873  -15.7413   19.1488 H   0  0  0  0  0  0
  -26.9180  -13.9608   18.2309 H   0  0  0  0  0  0
  -27.2415  -14.6932   19.2605 H   0  0  0  0  0  0
  -27.5631  -13.7911   21.0160 H   0  0  0  0  0  0
  -28.7796  -11.4896   19.5106 H   0  0  0  0  0  0
  -28.8477  -11.5271   21.2115 H   0  0  0  0  0  0
  -25.2975   -9.5452   22.4381 H   0  0  0  0  0  0
  -23.9844   -7.4650   22.7433 H   0  0  0  0  0  0
  -21.0764   -8.8133   19.9021 H   0  0  0  0  0  0
  -22.3602  -10.8969   19.5632 H   0  0  0  0  0  0
  -21.1904   -7.6016   23.9807 H   0  0  0  0  0  0
  -21.1417   -6.0401   25.9128 H   0  0  0  0  0  0
  -22.0716   -2.7508   23.2804 H   0  0  0  0  0  0
  -22.3860  -11.9033   22.4427 H   0  0  0  0  0  0
  -21.1006  -13.0206   22.2169 H   0  0  0  0  0  0
  -24.5375  -15.7297   20.4464 H   0  0  0  0  0  0
  -26.2387  -15.6341   20.3131 H   0  0  0  0  0  0
  -26.7396  -32.5082   23.0952 H   0  0  0  0  0  0
  -25.0458  -33.9612   25.0448 H   0  0  0  0  0  0
  -22.7573  -31.3167   21.4123 H   0  0  0  0  0  0
  -23.3780  -35.9563   23.3241 H   0  0  0  0  0  0
  -24.3603  -36.8938   22.2055 H   0  0  0  0  0  0
  -23.7257  -37.6423   23.6724 H   0  0  0  0  0  0
  -26.2443  -31.4165   20.6793 H   0  0  0  0  0  0
  -26.8756  -30.6396   22.0988 H   0  0  0  0  0  0
  -28.0997  -28.5811   21.1694 H   0  0  0  0  0  0
  -25.7386  -25.9667   18.6788 H   0  0  0  0  0  0
  -23.8835  -27.4585   18.8376 H   0  0  0  0  0  0
  -23.8569  -30.6594   19.4331 H   0  0  0  0  0  0
  -22.7639  -29.3606   19.7926 H   0  0  0  0  0  0
  -25.1345  -36.1794   25.0776 H   0  0  0  0  0  0
  -21.0051  -28.3363   24.1334 H   0  0  0  0  0  0
  -20.5757  -26.2360   23.3622 H   0  0  0  0  0  0
  -21.6669  -26.7490   22.1163 H   0  0  0  0  0  0
  -19.6947  -25.6281   21.1295 H   0  0  0  0  0  0
  -19.6716  -27.3144   20.6723 H   0  0  0  0  0  0
  -17.4260  -26.6690   21.4059 H   0  0  0  0  0  0
  -18.0365  -26.0113   22.9017 H   0  0  0  0  0  0
  -19.7964  -30.7301   24.2266 H   0  0  0  0  0  0
  -17.5035  -31.6283   24.5168 H   0  0  0  0  0  0
  -15.5387  -30.2980   23.7655 H   0  0  0  0  0  0
  -15.8710  -28.0810   22.7066 H   0  0  0  0  0  0
  -24.5925  -30.7272   25.8010 H   0  0  0  0  0  0
  -24.9063  -32.3205   26.4858 H   0  0  0  0  0  0
  -25.8123  -30.9265   27.0452 H   0  0  0  0  0  0
  -26.3140  -29.6630   24.1662 H   0  0  0  0  0  0
  -27.4130  -29.7388   25.5228 H   0  0  0  0  0  0
  -27.9057  -30.4190   23.9935 H   0  0  0  0  0  0
  -27.2536  -33.3776   26.2187 H   0  0  0  0  0  0
  -28.4003  -32.7022   25.0583 H   0  0  0  0  0  0
  -28.0654  -31.8623   26.5755 H   0  0  0  0  0  0
  -28.2550  -38.0142   24.7494 H   0  0  0  0  0  0
  -28.1129  -36.2650   24.6289 H   0  0  0  0  0  0
  -27.2293  -37.1437   25.8866 H   0  0  0  0  0  0
  -20.9420  -29.8988   21.6987 H   0  0  0  0  0  0
  -26.0127  -38.2799   24.1393 H   0  0  0  0  0  0
  -26.4889  -17.3437   15.3311 H   0  0  0  0  0  0
  -26.1149  -16.5387   16.8726 H   0  0  0  0  0  0
  -29.9031  -13.9618   14.5272 H   0  0  0  0  0  0
  -30.5250  -14.9225   15.8699 H   0  0  0  0  0  0
  -27.3333  -12.7389   16.8293 H   0  0  0  0  0  0
  -27.8013  -12.7791   15.3667 H   0  0  0  0  0  0
  -28.8253  -18.2031   16.2325 H   0  0  0  0  0  0
  -29.8532  -12.0479   15.7669 H   0  0  0  0  0  0
  -28.5822  -16.4397   14.9122 H   0  0  0  0  0  0
  -27.6064  -22.0682   15.6476 H   0  0  0  0  0  0
  -29.1362  -22.8479   16.1211 H   0  0  0  0  0  0
  -27.9653  -23.7122   15.1408 H   0  0  0  0  0  0
  -25.5861  -22.4973   16.8424 H   0  0  0  0  0  0
  -25.6789  -24.0895   16.0687 H   0  0  0  0  0  0
  -25.4267  -23.9742   17.7987 H   0  0  0  0  0  0
  -26.7292  -18.3435   18.4191 H   0  0  0  0  0  0
  -28.4244  -18.3796   18.8705 H   0  0  0  0  0  0
  -26.3310  -21.4271   18.8221 H   0  0  0  0  0  0
  -27.7183  -21.2179   19.7968 H   0  0  0  0  0  0
  -28.0000  -23.9956   20.5315 H   0  0  0  0  0  0
  -26.5230  -24.3707   19.7855 H   0  0  0  0  0  0
  -28.9645  -23.0275   18.4100 H   0  0  0  0  0  0
  -31.5965  -12.7719   17.2280 H   0  0  0  0  0  0
  -27.9050  -14.5002   14.9348 H   0  0  0  0  0  0
  -27.3932  -20.4004   16.9448 H   0  0  0  0  0  0
  -28.8560  -20.3398   17.7056 H   0  0  0  0  0  0
  1 25  1  0  0  0
  1 30  2  0  0  0
  1 83  1  0  0  0
  2  3  1  0  0  0
  2 25  1  0  0  0
  2 87  1  0  0  0
  2 88  1  0  0  0
  3  4  1  0  0  0
  3 89  1  0  0  0
  3 90  1  0  0  0
  4  5  1  0  0  0
  4 91  1  0  0  0
  4 92  1  0  0  0
  5  6  1  0  0  0
  5 26  1  0  0  0
  5 93  1  0  0  0
  6 25  1  0  0  0
  6 94  1  0  0  0
  6 95  1  0  0  0
  7  8  2  0  0  0
  7 26  1  0  0  0
  7 29  1  0  0  0
  8  9  1  0  0  0
  8 22  1  0  0  0
  9 10  1  0  0  0
  9 27  2  0  0  0
 10 11  2  0  0  0
 10 15  1  0  0  0
 11 12  1  0  0  0
 11 96  1  0  0  0
 12 13  2  0  0  0
 12 97  1  0  0  0
 13 14  1  0  0  0
 13 31  1  0  0  0
 14 15  2  0  0  0
 14 98  1  0  0  0
 15 99  1  0  0  0
 16 17  2  0  0  0
 16 21  1  0  0  0
 16 31  1  0  0  0
 17 18  1  0  0  0
 17100  1  0  0  0
 18 19  2  0  0  0
 18101  1  0  0  0
 19 20  1  0  0  0
 19 24  1  0  0  0
 20 21  2  0  0  0
 20102  1  0  0  0
 21 23  1  0  0  0
 22 28  1  0  0  0
 22 32  2  0  0  0
 26 27  1  0  0  0
 28103  1  0  0  0
 28104  1  0  0  0
 29105  1  0  0  0
 29106  1  0  0  0
 33 34  1  0  0  0
 33 66  1  0  0  0
 33 70  2  0  0  0
 34 36  1  0  0  0
 34 59  1  0  0  0
 34107  1  0  0  0
 35 44  2  0  0  0
 35 45  1  0  0  0
 35 68  1  0  0  0
 36 56  1  0  0  0
 36108  1  0  0  0
 37 39  1  0  0  0
 37 47  1  0  0  0
 37 66  1  0  0  0
 37109  1  0  0  0
 38 43  2  0  0  0
 38 46  1  0  0  0
 38 47  1  0  0  0
 39 64  1  0  0  0
 39 67  2  0  0  0
 40 52  1  0  0  0
 40 53  2  0  0  0
 40 58  1  0  0  0
 41110  1  0  0  0
 41111  1  0  0  0
 41112  1  0  0  0
 41 48  1  0  0  0
 42 43  1  0  0  0
 42 66  1  0  0  0
 42113  1  0  0  0
 42114  1  0  0  0
 43 44  1  0  0  0
 44115  1  0  0  0
 45 46  2  0  0  0
 45116  1  0  0  0
 46117  1  0  0  0
 47118  1  0  0  0
 47119  1  0  0  0
 48 56  1  0  0  0
 48 65  1  0  0  0
 48120  1  0  0  0
 49 50  1  0  0  0
 49 53  1  0  0  0
 49 64  1  0  0  0
 49121  1  0  0  0
 50 51  1  0  0  0
 50122  1  0  0  0
 50123  1  0  0  0
 51 52  1  0  0  0
 51124  1  0  0  0
 51125  1  0  0  0
 52126  1  0  0  0
 52127  1  0  0  0
 53 54  1  0  0  0
 54 55  2  0  0  0
 54128  1  0  0  0
 55 57  1  0  0  0
 55129  1  0  0  0
 56 69  2  0  0  0
 57 58  2  0  0  0
 57130  1  0  0  0
 58131  1  0  0  0
 59 60  1  0  0  0
 59 61  1  0  0  0
 59 62  1  0  0  0
 60132  1  0  0  0
 60133  1  0  0  0
 60134  1  0  0  0
 61135  1  0  0  0
 61136  1  0  0  0
 61137  1  0  0  0
 62138  1  0  0  0
 62139  1  0  0  0
 62140  1  0  0  0
 63 65  1  0  0  0
 63141  1  0  0  0
 63142  1  0  0  0
 63143  1  0  0  0
 64144  1  0  0  0
 65145  1  0  0  0
 68 81  1  0  0  0
 71 74  1  0  0  0
 71146  1  0  0  0
 71147  1  0  0  0
 71 76  1  0  0  0
 72 75  1  0  0  0
 72148  1  0  0  0
 72149  1  0  0  0
 72 85  1  0  0  0
 73 75  1  0  0  0
 73 85  1  0  0  0
 73150  1  0  0  0
 73151  1  0  0  0
 74 76  1  0  0  0
 74 79  1  0  0  0
 74152  1  0  0  0
 75 83  1  0  0  0
 75153  1  0  0  0
 76 85  1  0  0  0
 76154  1  0  0  0
 77 84  1  0  0  0
 77155  1  0  0  0
 77156  1  0  0  0
 77157  1  0  0  0
 78 84  1  0  0  0
 78158  1  0  0  0
 78159  1  0  0  0
 78160  1  0  0  0
 79 86  1  0  0  0
 79161  1  0  0  0
 79162  1  0  0  0
 80 86  1  0  0  0
 80163  1  0  0  0
 80164  1  0  0  0
 80 82  1  0  0  0
 81 82  1  0  0  0
 81165  1  0  0  0
 81166  1  0  0  0
 82 84  1  0  0  0
 82167  1  0  0  0
 83168  1  0  0  0
 85169  1  0  0  0
 86170  1  0  0  0
 86171  1  0  0  0
M  CHG  2  85   1  86   1
M  ISO  4   1 100  68 101  81 101  83 100
M  END
> <chiral flag>
0

> <version>
0

> <s_m_source_file>
/data/baiqing/PycharmProjects/Reinvent-master-3.2/result/LINK_invent/BTK/process_docking_weight1_custom_sum_contain_oxygen_bond_distance_aromatic_linkinvent_7_9_3/rearranged_h_0197.sdf

> <i_m_source_file_index>
45

> <r_mmod_Potential_Energy-OPLS-2005>
3798.11059570312

> <r_mmod_Stretch_Energy-OPLS-2005>
516.061218261719

> <r_mmod_Bend_Energy-OPLS-2005>
1277.37670898438

> <r_mmod_Torsional_Energy-OPLS-2005>
454.581298828125

> <r_mmod_Improper_Torsional_Energy-OPLS-2005>
16.3324794769287

> <r_mmod_Van_der_Waal_Energy-OPLS-2005>
346.946319580078

> <r_mmod_Electrostatic_Energy-OPLS-2005>
85.2548446655273

> <r_mmod_Solvation_Energy-OPLS-2005>
-997.846008300781

> <b_mmod_Minimization_Converged-OPLS-2005>
0

> <r_mmod_RMS_Derivative-OPLS-2005>
45.6157302856445

$$$$
45
                    3D
 Structure written by MMmdl.
181192  0  0  1  0            999 V2000
  -30.6912  -14.4672   20.4366 C   0  0  0  0  0  0
  -30.4264  -12.2701   19.4052 C   0  0  0  0  0  0
  -29.4709  -12.3831   18.1946 C   0  0  0  0  0  0
  -27.9901  -12.3129   18.6213 C   0  0  0  0  0  0
  -27.6471  -13.1795   19.8634 C   0  0  2  0  0  0
  -28.7091  -13.0195   20.9734 C   0  0  0  0  0  0
  -25.2601  -13.8123   20.5723 C   0  0  0  0  0  0
  -24.1811  -13.0440   20.9205 C   0  0  0  0  0  0
  -24.6323  -11.6900   20.8750 C   0  0  0  0  0  0
  -23.8984  -10.4303   21.0409 C   0  0  0  0  0  0
  -24.3579   -9.4229   21.9183 C   0  0  0  0  0  0
  -23.6288   -8.2235   22.0758 C   0  0  0  0  0  0
  -22.4267   -8.0265   21.3544 C   0  0  0  0  0  0
  -21.9866   -9.0228   20.4652 C   0  0  0  0  0  0
  -22.7164  -10.2125   20.3057 C   0  0  0  0  0  0
  -21.6861   -6.0725   22.5266 C   0  0  0  0  0  0
  -21.4005   -6.5637   23.8188 C   0  0  0  0  0  0
  -21.3643   -5.6790   24.9161 C   0  0  0  0  0  0
  -21.6045   -4.3050   24.7206 C   0  0  0  0  0  0
  -21.8839   -3.8143   23.4327 C   0  0  0  0  0  0
  -21.9204   -4.6955   22.3390 C   0  0  0  0  0  0
  -22.7828  -13.5243   21.1843 C   0  0  0  0  0  0
  -22.1707   -4.2154   21.0965 F   0  0  0  0  0  0
  -21.5616   -3.4537   25.7714 F   0  0  0  0  0  0
  -30.0289  -13.2856   20.3836 N   0  0  0  0  0  0
  -26.2966  -12.9198   20.3426 N   0  0  0  0  0  0
  -25.9232  -11.6401   20.5815 N   0  0  0  0  0  0
  -22.0496  -12.8201   22.0406 N   0  0  0  0  0  0
  -25.4392  -15.1848   20.4120 N   0  0  0  0  0  0
  -31.9000  -14.5910   20.2410 O   0  0  0  0  0  0
  -21.6658   -6.8860   21.4227 O   0  0  0  0  0  0
  -22.3495  -14.5535   20.6675 O   0  0  0  0  0  0
  -24.6077  -31.8749   23.2141 C   0  0  0  0  0  0
  -25.9009  -32.4869   23.8413 C   0  0  1  0  0  0
  -27.2284  -27.4780   20.1080 C   0  0  0  0  0  0
  -25.5901  -33.8665   24.2366 N   0  0  0  0  0  0
  -23.3924  -30.5002   21.5538 C   0  0  2  0  0  0
  -24.8360  -28.9737   20.1142 C   0  0  0  0  0  0
  -22.7372  -29.4686   22.5005 C   0  0  0  0  0  0
  -18.0249  -28.1384   22.8499 C   0  0  0  0  0  0
  -24.1496  -36.7299   23.2635 C   0  0  0  0  0  0
  -25.9153  -30.8557   21.3586 C   0  0  0  0  0  0
  -25.9911  -29.4913   20.7127 C   0  0  0  0  0  0
  -27.1897  -28.7545   20.7124 C   0  0  0  0  0  0
  -26.0636  -26.9710   19.4972 C   0  0  0  0  0  0
  -24.8659  -27.7082   19.5023 C   0  0  0  0  0  0
  -23.5977  -29.8360   20.1656 C   0  0  0  0  0  0
  -25.4117  -36.3146   24.0354 C   0  0  1  0  0  0
  -20.5849  -28.3661   23.1353 C   0  0  2  0  0  0
  -20.6760  -26.9410   22.5436 C   0  0  0  0  0  0
  -19.5750  -26.6404   21.5227 C   0  0  0  0  0  0
  -18.1914  -26.7920   22.1619 C   0  0  0  0  0  0
  -19.1506  -28.8831   23.2928 C   0  0  0  0  0  0
  -18.9438  -30.1430   23.8942 C   0  0  0  0  0  0
  -17.6457  -30.6607   24.0574 C   0  0  0  0  0  0
  -25.9056  -34.9511   23.5159 C   0  0  0  0  0  0
  -16.5338  -29.9116   23.6322 C   0  0  0  0  0  0
  -16.7245  -28.6524   23.0353 C   0  0  0  0  0  0
  -26.4472  -31.6609   25.0691 C   0  0  0  0  0  0
  -25.3747  -31.3700   26.1445 C   0  0  0  0  0  0
  -27.0282  -30.3063   24.6007 C   0  0  0  0  0  0
  -27.6095  -32.4284   25.7434 C   0  0  0  0  0  0
  -27.5598  -37.1810   24.8468 C   0  0  0  0  0  0
  -21.4096  -29.3040   22.3756 N   0  0  0  0  0  0
  -26.4305  -37.3823   23.9419 N   0  0  0  0  0  0
  -24.6566  -31.0899   22.1014 N   0  0  0  0  0  0
  -23.4162  -28.8231   23.3025 O   0  0  0  0  0  0
  -28.3346  -26.6709   20.0607 O   0  0  0  0  0  0
  -26.5612  -34.8951   22.4733 O   0  0  0  0  0  0
  -23.5293  -32.1484   23.7575 O   0  0  0  0  0  0
  -32.9872  -23.5258   16.9852 C   0  0  0  0  0  0
  -33.3844  -21.2703   17.2681 C   0  0  0  0  0  0
  -32.2563  -23.5476   18.1927 C   0  0  0  0  0  0
  -32.6289  -21.2879   18.4764 C   0  0  0  0  0  0
  -35.0484  -19.2246   17.3747 C   0  0  0  0  0  0
  -35.4395  -20.0637   16.1927 C   0  0  0  0  0  0
  -30.0487  -25.5832   21.3333 C   0  0  0  0  0  0
  -30.6671  -27.2801   20.1390 C   0  0  0  0  0  0
  -29.7227  -15.8831   18.7584 C   0  0  0  0  0  0
  -29.8420  -16.6119   21.2104 C   0  0  0  0  0  0
  -29.9231  -17.3465   18.3491 C   0  0  0  0  0  0
  -29.8908  -18.0575   20.6607 C   0  0  0  0  0  0
  -33.9952  -20.0438   16.6538 C   0  0  0  0  0  0
  -31.4013  -26.1255   20.8488 C   0  0  2  0  0  0
  -29.4136  -26.9220   20.9443 C   0  0  1  0  0  0
  -32.2921  -20.0231   19.2555 C   0  0  0  0  0  0
  -31.6172  -24.8233   18.6910 C   0  0  0  0  0  0
  -30.8773  -19.5308   18.9153 C   0  0  0  0  0  0
  -33.5555  -22.3903   16.5267 N   0  0  0  0  0  0
  -32.0829  -22.4352   18.9510 N   0  0  0  0  0  0
  -29.9000  -15.5376   20.1953 N   0  0  0  0  0  0
  -30.6211  -18.1416   19.3767 N   0  3  0  0  0  0
  -32.1892  -25.1925   20.0009 N   0  3  0  0  0  0
  -31.4576  -12.4047   19.0719 H   0  0  0  0  0  0
  -30.3837  -11.2788   19.8547 H   0  0  0  0  0  0
  -29.6706  -11.5723   17.4927 H   0  0  0  0  0  0
  -29.6510  -13.2992   17.6356 H   0  0  0  0  0  0
  -27.7655  -11.2654   18.8299 H   0  0  0  0  0  0
  -27.3492  -12.5907   17.7832 H   0  0  0  0  0  0
  -27.6486  -14.2083   19.5295 H   0  0  0  0  0  0
  -28.6792  -12.0082   21.3782 H   0  0  0  0  0  0
  -28.4994  -13.6966   21.8019 H   0  0  0  0  0  0
  -25.2726   -9.5725   22.4760 H   0  0  0  0  0  0
  -24.0047   -7.4604   22.7425 H   0  0  0  0  0  0
  -21.0818   -8.8687   19.8918 H   0  0  0  0  0  0
  -22.3591  -10.9670   19.6170 H   0  0  0  0  0  0
  -21.2013   -7.6149   23.9688 H   0  0  0  0  0  0
  -21.1447   -6.0531   25.9062 H   0  0  0  0  0  0
  -22.0634   -2.7605   23.2820 H   0  0  0  0  0  0
  -22.4130  -11.9848   22.4748 H   0  0  0  0  0  0
  -21.1094  -13.1145   22.2608 H   0  0  0  0  0  0
  -24.6805  -15.8499   20.5175 H   0  0  0  0  0  0
  -26.3117  -15.6190   20.1396 H   0  0  0  0  0  0
  -26.7075  -32.5605   23.1177 H   0  0  0  0  0  0
  -25.0060  -33.9843   25.0522 H   0  0  0  0  0  0
  -22.6783  -31.3159   21.4216 H   0  0  0  0  0  0
  -23.3797  -35.9592   23.3314 H   0  0  0  0  0  0
  -24.3585  -36.8900   22.2043 H   0  0  0  0  0  0
  -23.7210  -37.6496   23.6633 H   0  0  0  0  0  0
  -26.0204  -31.6192   20.5861 H   0  0  0  0  0  0
  -26.8059  -30.9145   21.9696 H   0  0  0  0  0  0
  -28.0640  -29.1905   21.1716 H   0  0  0  0  0  0
  -26.0859  -25.9990   19.0269 H   0  0  0  0  0  0
  -23.9787  -27.2974   19.0394 H   0  0  0  0  0  0
  -23.7021  -30.6171   19.4119 H   0  0  0  0  0  0
  -22.7207  -29.2590   19.8677 H   0  0  0  0  0  0
  -25.1288  -36.2023   25.0844 H   0  0  0  0  0  0
  -20.9943  -28.3234   24.1468 H   0  0  0  0  0  0
  -20.5701  -26.2265   23.3609 H   0  0  0  0  0  0
  -21.6627  -26.7475   22.1219 H   0  0  0  0  0  0
  -19.6922  -25.6328   21.1224 H   0  0  0  0  0  0
  -19.6715  -27.3241   20.6783 H   0  0  0  0  0  0
  -17.4197  -26.6677   21.4001 H   0  0  0  0  0  0
  -18.0297  -26.0061   22.9014 H   0  0  0  0  0  0
  -19.7926  -30.7231   24.2345 H   0  0  0  0  0  0
  -17.5017  -31.6281   24.5180 H   0  0  0  0  0  0
  -15.5351  -30.3057   23.7635 H   0  0  0  0  0  0
  -15.8614  -28.0878   22.7070 H   0  0  0  0  0  0
  -24.5908  -30.7070   25.7764 H   0  0  0  0  0  0
  -24.8926  -32.2841   26.4916 H   0  0  0  0  0  0
  -25.8081  -30.8830   27.0192 H   0  0  0  0  0  0
  -26.2789  -29.6818   24.1112 H   0  0  0  0  0  0
  -27.4149  -29.7298   25.4424 H   0  0  0  0  0  0
  -27.8593  -30.4407   23.9076 H   0  0  0  0  0  0
  -27.2778  -33.3575   26.2089 H   0  0  0  0  0  0
  -28.3868  -32.6868   25.0222 H   0  0  0  0  0  0
  -28.0804  -31.8330   26.5266 H   0  0  0  0  0  0
  -28.2635  -38.0100   24.7570 H   0  0  0  0  0  0
  -28.1097  -36.2651   24.6251 H   0  0  0  0  0  0
  -27.2313  -37.1395   25.8869 H   0  0  0  0  0  0
  -20.9230  -29.8748   21.6998 H   0  0  0  0  0  0
  -26.0212  -38.2911   24.1429 H   0  0  0  0  0  0
  -33.1049  -24.4147   16.3801 H   0  0  0  0  0  0
  -35.3768  -19.5662   18.3540 H   0  0  0  0  0  0
  -35.0509  -18.1480   17.2292 H   0  0  0  0  0  0
  -35.6894  -19.5329   15.2762 H   0  0  0  0  0  0
  -36.0317  -20.9548   16.3965 H   0  0  0  0  0  0
  -30.0112  -25.3718   22.4012 H   0  0  0  0  0  0
  -29.6450  -24.7441   20.7646 H   0  0  0  0  0  0
  -30.5010  -27.1570   19.0689 H   0  0  0  0  0  0
  -31.0607  -28.2725   20.3587 H   0  0  0  0  0  0
  -30.4082  -15.2987   18.1387 H   0  0  0  0  0  0
  -28.7314  -15.5887   18.4165 H   0  0  0  0  0  0
  -28.9382  -16.4732   21.8068 H   0  0  0  0  0  0
  -30.6669  -16.4981   21.9191 H   0  0  0  0  0  0
  -28.9516  -17.7975   18.1333 H   0  0  0  0  0  0
  -30.4745  -17.3746   17.4065 H   0  0  0  0  0  0
  -30.3457  -18.7213   21.3983 H   0  0  0  0  0  0
  -28.8716  -18.4251   20.5138 H   0  0  0  0  0  0
  -33.2754  -19.5307   16.0178 H   0  0  0  0  0  0
  -31.9939  -26.4900   21.6900 H   0  0  0  0  0  0
  -29.2428  -27.5425   21.8246 H   0  0  0  0  0  0
  -32.3689  -20.2281   20.3251 H   0  0  0  0  0  0
  -33.0266  -19.2455   19.0558 H   0  0  0  0  0  0
  -30.5440  -24.6484   18.7532 H   0  0  0  0  0  0
  -31.7669  -25.6271   17.9687 H   0  0  0  0  0  0
  -30.7705  -19.5783   17.8307 H   0  0  0  0  0  0
  -30.1241  -20.2116   19.3133 H   0  0  0  0  0  0
  -31.5244  -17.7104   19.5129 H   0  0  0  0  0  0
  -32.3272  -24.3264   20.4983 H   0  0  0  0  0  0
  -33.1066  -25.5782   19.8442 H   0  0  0  0  0  0
  1 25  1  0  0  0
  1 30  2  0  0  0
  1 91  1  0  0  0
  2  3  1  0  0  0
  2 25  1  0  0  0
  2 94  1  0  0  0
  2 95  1  0  0  0
  3  4  1  0  0  0
  3 96  1  0  0  0
  3 97  1  0  0  0
  4  5  1  0  0  0
  4 98  1  0  0  0
  4 99  1  0  0  0
  5  6  1  0  0  0
  5 26  1  0  0  0
  5100  1  0  0  0
  6 25  1  0  0  0
  6101  1  0  0  0
  6102  1  0  0  0
  7  8  2  0  0  0
  7 26  1  0  0  0
  7 29  1  0  0  0
  8  9  1  0  0  0
  8 22  1  0  0  0
  9 10  1  0  0  0
  9 27  2  0  0  0
 10 11  2  0  0  0
 10 15  1  0  0  0
 11 12  1  0  0  0
 11103  1  0  0  0
 12 13  2  0  0  0
 12104  1  0  0  0
 13 14  1  0  0  0
 13 31  1  0  0  0
 14 15  2  0  0  0
 14105  1  0  0  0
 15106  1  0  0  0
 16 17  2  0  0  0
 16 21  1  0  0  0
 16 31  1  0  0  0
 17 18  1  0  0  0
 17107  1  0  0  0
 18 19  2  0  0  0
 18108  1  0  0  0
 19 20  1  0  0  0
 19 24  1  0  0  0
 20 21  2  0  0  0
 20109  1  0  0  0
 21 23  1  0  0  0
 22 28  1  0  0  0
 22 32  2  0  0  0
 26 27  1  0  0  0
 28110  1  0  0  0
 28111  1  0  0  0
 29112  1  0  0  0
 29113  1  0  0  0
 33 34  1  0  0  0
 33 66  1  0  0  0
 33 70  2  0  0  0
 34 36  1  0  0  0
 34 59  1  0  0  0
 34114  1  0  0  0
 35 44  2  0  0  0
 35 45  1  0  0  0
 35 68  1  0  0  0
 36 56  1  0  0  0
 36115  1  0  0  0
 37 39  1  0  0  0
 37 47  1  0  0  0
 37 66  1  0  0  0
 37116  1  0  0  0
 38 43  2  0  0  0
 38 46  1  0  0  0
 38 47  1  0  0  0
 39 64  1  0  0  0
 39 67  2  0  0  0
 40 52  1  0  0  0
 40 53  2  0  0  0
 40 58  1  0  0  0
 41117  1  0  0  0
 41118  1  0  0  0
 41119  1  0  0  0
 41 48  1  0  0  0
 42 43  1  0  0  0
 42 66  1  0  0  0
 42120  1  0  0  0
 42121  1  0  0  0
 43 44  1  0  0  0
 44122  1  0  0  0
 45 46  2  0  0  0
 45123  1  0  0  0
 46124  1  0  0  0
 47125  1  0  0  0
 47126  1  0  0  0
 48 56  1  0  0  0
 48 65  1  0  0  0
 48127  1  0  0  0
 49 50  1  0  0  0
 49 53  1  0  0  0
 49 64  1  0  0  0
 49128  1  0  0  0
 50 51  1  0  0  0
 50129  1  0  0  0
 50130  1  0  0  0
 51 52  1  0  0  0
 51131  1  0  0  0
 51132  1  0  0  0
 52133  1  0  0  0
 52134  1  0  0  0
 53 54  1  0  0  0
 54 55  2  0  0  0
 54135  1  0  0  0
 55 57  1  0  0  0
 55136  1  0  0  0
 56 69  2  0  0  0
 57 58  2  0  0  0
 57137  1  0  0  0
 58138  1  0  0  0
 59 60  1  0  0  0
 59 61  1  0  0  0
 59 62  1  0  0  0
 60139  1  0  0  0
 60140  1  0  0  0
 60141  1  0  0  0
 61142  1  0  0  0
 61143  1  0  0  0
 61144  1  0  0  0
 62145  1  0  0  0
 62146  1  0  0  0
 62147  1  0  0  0
 63 65  1  0  0  0
 63148  1  0  0  0
 63149  1  0  0  0
 63150  1  0  0  0
 64151  1  0  0  0
 65152  1  0  0  0
 68 85  1  0  0  0
 71 73  2  0  0  0
 71 89  1  0  0  0
 71153  1  0  0  0
 72 74  1  0  0  0
 72 89  2  0  0  0
 72 83  1  0  0  0
 73 87  1  0  0  0
 73 90  1  0  0  0
 74 86  1  0  0  0
 74 90  2  0  0  0
 75 76  1  0  0  0
 75 83  1  0  0  0
 75154  1  0  0  0
 75155  1  0  0  0
 76 83  1  0  0  0
 76156  1  0  0  0
 76157  1  0  0  0
 77 84  1  0  0  0
 77 85  1  0  0  0
 77158  1  0  0  0
 77159  1  0  0  0
 78 84  1  0  0  0
 78 85  1  0  0  0
 78160  1  0  0  0
 78161  1  0  0  0
 79 81  1  0  0  0
 79 91  1  0  0  0
 79162  1  0  0  0
 79163  1  0  0  0
 80 82  1  0  0  0
 80 91  1  0  0  0
 80164  1  0  0  0
 80165  1  0  0  0
 81 92  1  0  0  0
 81166  1  0  0  0
 81167  1  0  0  0
 82 92  1  0  0  0
 82168  1  0  0  0
 82169  1  0  0  0
 83170  1  0  0  0
 84 93  1  0  0  0
 84171  1  0  0  0
 85172  1  0  0  0
 86 88  1  0  0  0
 86173  1  0  0  0
 86174  1  0  0  0
 87 93  1  0  0  0
 87175  1  0  0  0
 87176  1  0  0  0
 88177  1  0  0  0
 88178  1  0  0  0
 88 92  1  0  0  0
 92179  1  0  0  0
 93180  1  0  0  0
 93181  1  0  0  0
M  CHG  2  92   1  93   1
M  ISO  4   1 100  68 101  85 101  91 100
M  END
> <chiral flag>
0

> <version>
0

> <s_m_source_file>
/data/baiqing/PycharmProjects/Reinvent-master-3.2/result/LINK_invent/BTK/process_docking_weight1_custom_sum_contain_oxygen_bond_distance_aromatic_linkinvent_7_9_3/rearranged_h_0197.sdf

> <i_m_source_file_index>
46

> <r_mmod_Potential_Energy-OPLS-2005>
-35.8383941650391

> <r_mmod_Stretch_Energy-OPLS-2005>
37.2370147705078

> <r_mmod_Bend_Energy-OPLS-2005>
132.082168579102

> <r_mmod_Torsional_Energy-OPLS-2005>
478.546020507812

> <r_mmod_Improper_Torsional_Energy-OPLS-2005>
17.7746467590332

> <r_mmod_Van_der_Waal_Energy-OPLS-2005>
171.121154785156

> <r_mmod_Electrostatic_Energy-OPLS-2005>
-9.8648567199707

> <r_mmod_Solvation_Energy-OPLS-2005>
-886.713806152344

> <b_mmod_Minimization_Converged-OPLS-2005>
0

> <r_mmod_RMS_Derivative-OPLS-2005>
4.27583265304565

$$$$
46
                    3D
 Structure written by MMmdl.
161170  0  0  1  0            999 V2000
  -30.7539  -14.4110   20.6400 C   0  0  0  0  0  0
  -30.4157  -12.2975   19.4068 C   0  0  0  0  0  0
  -29.4836  -12.5093   18.1982 C   0  0  0  0  0  0
  -28.0090  -12.3539   18.6161 C   0  0  0  0  0  0
  -27.6584  -13.1917   19.8722 C   0  0  2  0  0  0
  -28.7020  -12.9718   20.9917 C   0  0  0  0  0  0
  -25.2593  -13.8124   20.5678 C   0  0  0  0  0  0
  -24.1832  -13.0425   20.9185 C   0  0  0  0  0  0
  -24.6364  -11.6885   20.8742 C   0  0  0  0  0  0
  -23.9031  -10.4281   21.0409 C   0  0  0  0  0  0
  -24.3591   -9.4202   21.9186 C   0  0  0  0  0  0
  -23.6277   -8.2234   22.0755 C   0  0  0  0  0  0
  -22.4260   -8.0269   21.3546 C   0  0  0  0  0  0
  -21.9887   -9.0240   20.4652 C   0  0  0  0  0  0
  -22.7207  -10.2122   20.3061 C   0  0  0  0  0  0
  -21.6849   -6.0728   22.5279 C   0  0  0  0  0  0
  -21.4010   -6.5636   23.8212 C   0  0  0  0  0  0
  -21.3660   -5.6791   24.9176 C   0  0  0  0  0  0
  -21.6045   -4.3052   24.7228 C   0  0  0  0  0  0
  -21.8822   -3.8142   23.4351 C   0  0  0  0  0  0
  -21.9191   -4.6958   22.3404 C   0  0  0  0  0  0
  -22.7861  -13.5240   21.1846 C   0  0  0  0  0  0
  -22.1663   -4.2142   21.0982 F   0  0  0  0  0  0
  -21.5630   -3.4540   25.7743 F   0  0  0  0  0  0
  -30.0391  -13.2682   20.4464 N   0  0  0  0  0  0
  -26.3002  -12.9256   20.3363 N   0  0  0  0  0  0
  -25.9280  -11.6434   20.5765 N   0  0  0  0  0  0
  -22.0496  -12.8240   22.0406 N   0  0  0  0  0  0
  -25.4332  -15.1839   20.4078 N   0  0  0  0  0  0
  -31.8469  -14.6122   20.0996 O   0  0  0  0  0  0
  -21.6634   -6.8862   21.4238 O   0  0  0  0  0  0
  -22.3553  -14.5551   20.6697 O   0  0  0  0  0  0
  -24.6113  -31.8699   23.2111 C   0  0  0  0  0  0
  -25.9015  -32.4834   23.8403 C   0  0  1  0  0  0
  -27.2465  -27.4586   20.0923 C   0  0  0  0  0  0
  -25.5888  -33.8633   24.2341 N   0  0  0  0  0  0
  -23.3984  -30.4910   21.5514 C   0  0  2  0  0  0
  -24.8445  -28.9534   20.1210 C   0  0  0  0  0  0
  -22.7390  -29.4664   22.5011 C   0  0  0  0  0  0
  -18.0274  -28.1374   22.8508 C   0  0  0  0  0  0
  -24.1483  -36.7313   23.2642 C   0  0  0  0  0  0
  -25.9232  -30.8421   21.3595 C   0  0  0  0  0  0
  -26.0000  -29.4756   20.7116 C   0  0  0  0  0  0
  -27.1983  -28.7349   20.6937 C   0  0  0  0  0  0
  -26.0655  -26.9334   19.5145 C   0  0  0  0  0  0
  -24.8706  -27.6800   19.5245 C   0  0  0  0  0  0
  -23.6058  -29.8180   20.1677 C   0  0  0  0  0  0
  -25.4107  -36.3122   24.0345 C   0  0  1  0  0  0
  -20.5856  -28.3652   23.1333 C   0  0  2  0  0  0
  -20.6762  -26.9389   22.5421 C   0  0  0  0  0  0
  -19.5742  -26.6387   21.5216 C   0  0  0  0  0  0
  -18.1920  -26.7927   22.1627 C   0  0  0  0  0  0
  -19.1520  -28.8831   23.2920 C   0  0  0  0  0  0
  -18.9449  -30.1443   23.8926 C   0  0  0  0  0  0
  -17.6451  -30.6586   24.0567 C   0  0  0  0  0  0
  -25.9030  -34.9487   23.5139 C   0  0  0  0  0  0
  -16.5344  -29.9090   23.6323 C   0  0  0  0  0  0
  -16.7262  -28.6498   23.0360 C   0  0  0  0  0  0
  -26.4461  -31.6611   25.0718 C   0  0  0  0  0  0
  -25.3737  -31.3708   26.1471 C   0  0  0  0  0  0
  -27.0293  -30.3065   24.6067 C   0  0  0  0  0  0
  -27.6049  -32.4324   25.7470 C   0  0  0  0  0  0
  -27.5580  -37.1818   24.8473 C   0  0  0  0  0  0
  -21.4122  -29.3026   22.3746 N   0  0  0  0  0  0
  -26.4298  -37.3800   23.9410 N   0  0  0  0  0  0
  -24.6624  -31.0816   22.1000 N   0  0  0  0  0  0
  -23.4177  -28.8211   23.3044 O   0  0  0  0  0  0
  -28.4687  -26.8227   20.0839 O   0  0  0  0  0  0
  -26.5583  -34.8931   22.4697 O   0  0  0  0  0  0
  -23.5311  -32.1441   23.7518 O   0  0  0  0  0  0
  -32.7177  -21.6975   21.9441 C   0  0  0  0  0  0
  -30.5063  -21.6550   22.0914 C   0  0  0  0  0  0
  -31.6696  -19.7706   22.1902 C   0  0  0  0  0  0
  -29.7471  -17.6265   21.0527 C   0  0  0  0  0  0
  -29.1782  -16.2194   20.9543 C   0  0  0  0  0  0
  -31.0536  -16.1150   22.3976 C   0  0  0  0  0  0
  -30.6178  -17.5899   22.3052 C   0  0  2  0  0  0
  -29.1798  -22.3974   22.0062 C   0  0  0  0  0  0
  -28.3704  -24.5189   20.9064 C   0  0  0  0  0  0
  -28.6068  -25.4560   19.7016 C   0  0  0  0  0  0
  -31.5923  -22.4052   21.9141 N   0  0  0  0  0  0
  -32.8337  -20.3818   22.0605 N   0  0  0  0  0  0
  -30.4678  -20.3355   22.2334 N   0  0  0  0  0  0
  -30.2143  -15.3257   21.4783 N   0  0  0  0  0  0
  -29.2716  -23.3367   20.8754 N   0  3  0  0  0  0
  -31.7805  -18.4209   22.2225 O   0  0  0  0  0  0
  -31.4586  -12.3919   19.0993 H   0  0  0  0  0  0
  -30.3140  -11.2822   19.7940 H   0  0  0  0  0  0
  -29.7240  -11.7971   17.4077 H   0  0  0  0  0  0
  -29.6446  -13.5025   17.7755 H   0  0  0  0  0  0
  -27.8294  -11.2964   18.8139 H   0  0  0  0  0  0
  -27.3526  -12.6240   17.7883 H   0  0  0  0  0  0
  -27.6932  -14.2324   19.5614 H   0  0  0  0  0  0
  -28.6752  -11.9369   21.3357 H   0  0  0  0  0  0
  -28.4549  -13.5710   21.8685 H   0  0  0  0  0  0
  -25.2737   -9.5687   22.4759 H   0  0  0  0  0  0
  -23.9996   -7.4625   22.7466 H   0  0  0  0  0  0
  -21.0825   -8.8749   19.8956 H   0  0  0  0  0  0
  -22.3659  -10.9659   19.6172 H   0  0  0  0  0  0
  -21.2000   -7.6143   23.9713 H   0  0  0  0  0  0
  -21.1482   -6.0523   25.9079 H   0  0  0  0  0  0
  -22.0599   -2.7605   23.2854 H   0  0  0  0  0  0
  -22.4100  -11.9895   22.4792 H   0  0  0  0  0  0
  -21.1118  -13.1274   22.2619 H   0  0  0  0  0  0
  -24.6669  -15.8397   20.5127 H   0  0  0  0  0  0
  -26.2867  -15.6211   20.0857 H   0  0  0  0  0  0
  -26.7080  -32.5560   23.1167 H   0  0  0  0  0  0
  -25.0079  -33.9800   25.0512 H   0  0  0  0  0  0
  -22.6863  -31.3069   21.4104 H   0  0  0  0  0  0
  -23.3746  -35.9645   23.3329 H   0  0  0  0  0  0
  -24.3574  -36.8895   22.2050 H   0  0  0  0  0  0
  -23.7226  -37.6529   23.6628 H   0  0  0  0  0  0
  -26.0288  -31.6055   20.5878 H   0  0  0  0  0  0
  -26.8143  -30.8991   21.9741 H   0  0  0  0  0  0
  -28.0954  -29.1458   21.1358 H   0  0  0  0  0  0
  -26.0424  -25.9622   19.0443 H   0  0  0  0  0  0
  -23.9778  -27.2700   19.0723 H   0  0  0  0  0  0
  -23.7145  -30.5899   19.4049 H   0  0  0  0  0  0
  -22.7316  -29.2351   19.8736 H   0  0  0  0  0  0
  -25.1280  -36.2001   25.0837 H   0  0  0  0  0  0
  -20.9958  -28.3210   24.1452 H   0  0  0  0  0  0
  -20.5674  -26.2254   23.3602 H   0  0  0  0  0  0
  -21.6632  -26.7445   22.1206 H   0  0  0  0  0  0
  -19.6898  -25.6304   21.1230 H   0  0  0  0  0  0
  -19.6684  -27.3217   20.6761 H   0  0  0  0  0  0
  -17.4193  -26.6698   21.4022 H   0  0  0  0  0  0
  -18.0310  -26.0056   22.9008 H   0  0  0  0  0  0
  -19.7924  -30.7256   24.2306 H   0  0  0  0  0  0
  -17.5004  -31.6273   24.5159 H   0  0  0  0  0  0
  -15.5343  -30.3005   23.7625 H   0  0  0  0  0  0
  -15.8661  -28.0824   22.7070 H   0  0  0  0  0  0
  -24.5911  -30.7046   25.7815 H   0  0  0  0  0  0
  -24.8916  -32.2858   26.4926 H   0  0  0  0  0  0
  -25.8095  -30.8881   27.0226 H   0  0  0  0  0  0
  -26.2827  -29.6830   24.1132 H   0  0  0  0  0  0
  -27.4102  -29.7292   25.4506 H   0  0  0  0  0  0
  -27.8642  -30.4415   23.9183 H   0  0  0  0  0  0
  -27.2683  -33.3618   26.2077 H   0  0  0  0  0  0
  -28.3839  -32.6893   25.0279 H   0  0  0  0  0  0
  -28.0739  -31.8430   26.5359 H   0  0  0  0  0  0
  -28.2624  -38.0094   24.7509 H   0  0  0  0  0  0
  -28.1050  -36.2628   24.6318 H   0  0  0  0  0  0
  -27.2296  -37.1498   25.8877 H   0  0  0  0  0  0
  -20.9275  -29.8729   21.6955 H   0  0  0  0  0  0
  -26.0196  -38.2881   24.1411 H   0  0  0  0  0  0
  -33.6379  -22.2507   21.8232 H   0  0  0  0  0  0
  -28.9648  -18.3850   21.0941 H   0  0  0  0  0  0
  -30.3639  -17.8310   20.1761 H   0  0  0  0  0  0
  -28.8990  -16.0102   19.9212 H   0  0  0  0  0  0
  -28.2836  -16.1193   21.5715 H   0  0  0  0  0  0
  -30.9262  -15.7420   23.4143 H   0  0  0  0  0  0
  -32.1164  -16.0151   22.1651 H   0  0  0  0  0  0
  -30.0253  -17.8440   23.1863 H   0  0  0  0  0  0
  -29.0259  -22.9306   22.9445 H   0  0  0  0  0  0
  -28.3424  -21.7130   21.8719 H   0  0  0  0  0  0
  -27.3248  -24.2103   20.9380 H   0  0  0  0  0  0
  -28.5639  -25.0668   21.8303 H   0  0  0  0  0  0
  -28.0155  -25.1771   18.8302 H   0  0  0  0  0  0
  -29.6440  -25.3662   19.3764 H   0  0  0  0  0  0
  -30.2462  -23.6099   20.9422 H   0  0  0  0  0  0
  -29.1730  -22.8031   20.0277 H   0  0  0  0  0  0
  1 25  1  0  0  0
  1 30  2  0  0  0
  1 84  1  0  0  0
  2  3  1  0  0  0
  2 25  1  0  0  0
  2 87  1  0  0  0
  2 88  1  0  0  0
  3  4  1  0  0  0
  3 89  1  0  0  0
  3 90  1  0  0  0
  4  5  1  0  0  0
  4 91  1  0  0  0
  4 92  1  0  0  0
  5  6  1  0  0  0
  5 26  1  0  0  0
  5 93  1  0  0  0
  6 25  1  0  0  0
  6 94  1  0  0  0
  6 95  1  0  0  0
  7  8  2  0  0  0
  7 26  1  0  0  0
  7 29  1  0  0  0
  8  9  1  0  0  0
  8 22  1  0  0  0
  9 10  1  0  0  0
  9 27  2  0  0  0
 10 11  2  0  0  0
 10 15  1  0  0  0
 11 12  1  0  0  0
 11 96  1  0  0  0
 12 13  2  0  0  0
 12 97  1  0  0  0
 13 14  1  0  0  0
 13 31  1  0  0  0
 14 15  2  0  0  0
 14 98  1  0  0  0
 15 99  1  0  0  0
 16 17  2  0  0  0
 16 21  1  0  0  0
 16 31  1  0  0  0
 17 18  1  0  0  0
 17100  1  0  0  0
 18 19  2  0  0  0
 18101  1  0  0  0
 19 20  1  0  0  0
 19 24  1  0  0  0
 20 21  2  0  0  0
 20102  1  0  0  0
 21 23  1  0  0  0
 22 28  1  0  0  0
 22 32  2  0  0  0
 26 27  1  0  0  0
 28103  1  0  0  0
 28104  1  0  0  0
 29105  1  0  0  0
 29106  1  0  0  0
 33 34  1  0  0  0
 33 66  1  0  0  0
 33 70  2  0  0  0
 34 36  1  0  0  0
 34 59  1  0  0  0
 34107  1  0  0  0
 35 44  2  0  0  0
 35 45  1  0  0  0
 35 68  1  0  0  0
 36 56  1  0  0  0
 36108  1  0  0  0
 37 39  1  0  0  0
 37 47  1  0  0  0
 37 66  1  0  0  0
 37109  1  0  0  0
 38 43  2  0  0  0
 38 46  1  0  0  0
 38 47  1  0  0  0
 39 64  1  0  0  0
 39 67  2  0  0  0
 40 52  1  0  0  0
 40 53  2  0  0  0
 40 58  1  0  0  0
 41110  1  0  0  0
 41111  1  0  0  0
 41112  1  0  0  0
 41 48  1  0  0  0
 42 43  1  0  0  0
 42 66  1  0  0  0
 42113  1  0  0  0
 42114  1  0  0  0
 43 44  1  0  0  0
 44115  1  0  0  0
 45 46  2  0  0  0
 45116  1  0  0  0
 46117  1  0  0  0
 47118  1  0  0  0
 47119  1  0  0  0
 48 56  1  0  0  0
 48 65  1  0  0  0
 48120  1  0  0  0
 49 50  1  0  0  0
 49 53  1  0  0  0
 49 64  1  0  0  0
 49121  1  0  0  0
 50 51  1  0  0  0
 50122  1  0  0  0
 50123  1  0  0  0
 51 52  1  0  0  0
 51124  1  0  0  0
 51125  1  0  0  0
 52126  1  0  0  0
 52127  1  0  0  0
 53 54  1  0  0  0
 54 55  2  0  0  0
 54128  1  0  0  0
 55 57  1  0  0  0
 55129  1  0  0  0
 56 69  2  0  0  0
 57 58  2  0  0  0
 57130  1  0  0  0
 58131  1  0  0  0
 59 60  1  0  0  0
 59 61  1  0  0  0
 59 62  1  0  0  0
 60132  1  0  0  0
 60133  1  0  0  0
 60134  1  0  0  0
 61135  1  0  0  0
 61136  1  0  0  0
 61137  1  0  0  0
 62138  1  0  0  0
 62139  1  0  0  0
 62140  1  0  0  0
 63 65  1  0  0  0
 63141  1  0  0  0
 63142  1  0  0  0
 63143  1  0  0  0
 64144  1  0  0  0
 65145  1  0  0  0
 68 80  1  0  0  0
 71 81  2  0  0  0
 71 82  1  0  0  0
 71146  1  0  0  0
 72 78  1  0  0  0
 72 81  1  0  0  0
 72 83  2  0  0  0
 73 82  2  0  0  0
 73 83  1  0  0  0
 73 86  1  0  0  0
 74 75  1  0  0  0
 74 77  1  0  0  0
 74147  1  0  0  0
 74148  1  0  0  0
 75 84  1  0  0  0
 75149  1  0  0  0
 75150  1  0  0  0
 76 77  1  0  0  0
 76 84  1  0  0  0
 76151  1  0  0  0
 76152  1  0  0  0
 77 86  1  0  0  0
 77153  1  0  0  0
 78 85  1  0  0  0
 78154  1  0  0  0
 78155  1  0  0  0
 79 80  1  0  0  0
 79 85  1  0  0  0
 79156  1  0  0  0
 79157  1  0  0  0
 80158  1  0  0  0
 80159  1  0  0  0
 85160  1  0  0  0
 85161  1  0  0  0
M  CHG  1  85   1
M  ISO  4   1 100  68 101  80 101  84 100
M  END
> <chiral flag>
0

> <version>
0

> <s_m_source_file>
/data/baiqing/PycharmProjects/Reinvent-master-3.2/result/LINK_invent/BTK/process_docking_weight1_custom_sum_contain_oxygen_bond_distance_aromatic_linkinvent_7_9_3/rearranged_h_0197.sdf

> <i_m_source_file_index>
47

> <r_mmod_Potential_Energy-OPLS-2005>
-814.70947265625

> <r_mmod_Stretch_Energy-OPLS-2005>
33.9598617553711

> <r_mmod_Bend_Energy-OPLS-2005>
142.176498413086

> <r_mmod_Torsional_Energy-OPLS-2005>
317.221771240234

> <r_mmod_Improper_Torsional_Energy-OPLS-2005>
6.06290769577026

> <r_mmod_Van_der_Waal_Energy-OPLS-2005>
188.394790649414

> <r_mmod_Electrostatic_Energy-OPLS-2005>
-1044.455078125

> <r_mmod_Solvation_Energy-OPLS-2005>
-468.285491943359

> <b_mmod_Minimization_Converged-OPLS-2005>
0

> <r_mmod_RMS_Derivative-OPLS-2005>
1.18025434017181

$$$$
47
                    3D
 Structure written by MMmdl.
171180  0  0  1  0            999 V2000
  -30.3691  -15.6383   19.9880 C   0  0  0  0  0  0
  -30.4687  -12.9883   19.4523 C   0  0  0  0  0  0
  -29.5515  -12.3939   18.3388 C   0  0  0  0  0  0
  -28.1265  -12.1096   18.8379 C   0  0  0  0  0  0
  -27.6025  -13.1730   19.8160 C   0  0  2  0  0  0
  -28.6782  -13.6592   20.8376 C   0  0  0  0  0  0
  -25.2471  -13.7803   20.5766 C   0  0  0  0  0  0
  -24.1759  -13.0225   20.9441 C   0  0  0  0  0  0
  -24.6338  -11.6698   20.9052 C   0  0  0  0  0  0
  -23.8991  -10.4134   21.0560 C   0  0  0  0  0  0
  -24.3553   -9.4021   21.9279 C   0  0  0  0  0  0
  -23.6220   -8.2079   22.0784 C   0  0  0  0  0  0
  -22.4208   -8.0196   21.3553 C   0  0  0  0  0  0
  -21.9869   -9.0178   20.4650 C   0  0  0  0  0  0
  -22.7212  -10.2050   20.3114 C   0  0  0  0  0  0
  -21.6800   -6.0686   22.5282 C   0  0  0  0  0  0
  -21.3982   -6.5606   23.8216 C   0  0  0  0  0  0
  -21.3654   -5.6771   24.9186 C   0  0  0  0  0  0
  -21.6055   -4.3036   24.7243 C   0  0  0  0  0  0
  -21.8809   -3.8118   23.4364 C   0  0  0  0  0  0
  -21.9164   -4.6923   22.3412 C   0  0  0  0  0  0
  -22.7786  -13.5124   21.1938 C   0  0  0  0  0  0
  -22.1640   -4.2115   21.0989 F   0  0  0  0  0  0
  -21.5646   -3.4524   25.7761 F   0  0  0  0  0  0
  -29.8429  -14.2260   20.0809 N   0  0  0  0  0  0
  -26.2918  -12.8923   20.3693 N   0  0  0  0  0  0
  -25.9284  -11.6159   20.6195 N   0  0  0  0  0  0
  -22.0367  -12.8170   22.0473 N   0  0  0  0  0  0
  -25.4025  -15.1363   20.3504 N   0  0  0  0  0  0
  -31.4643  -15.3567   20.5668 O   0  0  0  0  0  0
  -21.6573   -6.8807   21.4232 O   0  0  0  0  0  0
  -22.3513  -14.5408   20.6693 O   0  0  0  0  0  0
  -24.6608  -31.8263   23.1670 C   0  0  0  0  0  0
  -25.9285  -32.4606   23.8160 C   0  0  1  0  0  0
  -27.2480  -26.9298   20.2017 C   0  0  0  0  0  0
  -25.5966  -33.8422   24.2083 N   0  0  0  0  0  0
  -23.4763  -30.4288   21.5172 C   0  0  2  0  0  0
  -24.9370  -28.8110   20.1163 C   0  0  0  0  0  0
  -22.7643  -29.4454   22.4821 C   0  0  0  0  0  0
  -18.0310  -28.1388   22.8470 C   0  0  0  0  0  0
  -24.1519  -36.7214   23.2643 C   0  0  0  0  0  0
  -26.0404  -30.6375   21.3939 C   0  0  0  0  0  0
  -26.1166  -29.2206   20.7482 C   0  0  0  0  0  0
  -27.2606  -28.3012   20.7683 C   0  0  0  0  0  0
  -26.0362  -26.6711   19.5175 C   0  0  0  0  0  0
  -24.9225  -27.5561   19.4813 C   0  0  0  0  0  0
  -23.7165  -29.7333   20.1473 C   0  0  0  0  0  0
  -25.4147  -36.2979   24.0309 C   0  0  1  0  0  0
  -20.5937  -28.3754   23.1204 C   0  0  2  0  0  0
  -20.6804  -26.9443   22.5413 C   0  0  0  0  0  0
  -19.5796  -26.6384   21.5208 C   0  0  0  0  0  0
  -18.1966  -26.7918   22.1609 C   0  0  0  0  0  0
  -19.1570  -28.8890   23.2820 C   0  0  0  0  0  0
  -18.9480  -30.1471   23.8871 C   0  0  0  0  0  0
  -17.6482  -30.6591   24.0552 C   0  0  0  0  0  0
  -25.9104  -34.9359   23.5012 C   0  0  0  0  0  0
  -16.5372  -29.9086   23.6337 C   0  0  0  0  0  0
  -16.7290  -28.6491   23.0378 C   0  0  0  0  0  0
  -26.4536  -31.6508   25.0659 C   0  0  0  0  0  0
  -25.3667  -31.3749   26.1316 C   0  0  0  0  0  0
  -27.0425  -30.2879   24.6343 C   0  0  0  0  0  0
  -27.6052  -32.4289   25.7451 C   0  0  0  0  0  0
  -27.5587  -37.1757   24.8463 C   0  0  0  0  0  0
  -21.4327  -29.3037   22.3559 N   0  0  0  0  0  0
  -26.4299  -37.3708   23.9397 N   0  0  0  0  0  0
  -24.7462  -30.9912   22.0801 N   0  0  0  0  0  0
  -23.4181  -28.8083   23.3114 O   0  0  0  0  0  0
  -28.2778  -25.8460   20.3182 O   0  0  0  0  0  0
  -26.5722  -34.8893   22.4615 O   0  0  0  0  0  0
  -23.5678  -32.1244   23.6739 O   0  0  0  0  0  0
  -31.6773  -17.6106   19.5596 C   0  0  0  0  0  0
  -31.6998  -16.2354   18.1380 C   0  0  0  0  0  0
  -30.0231  -18.0944   20.4235 C   0  0  0  0  0  0
  -30.0167  -15.3797   17.6402 C   0  0  0  0  0  0
  -28.4620  -17.0840   20.0087 C   0  0  0  0  0  0
  -28.5307  -18.1143   17.5641 C   0  0  0  0  0  0
  -30.6599  -18.4031   17.2311 C   0  0  0  0  0  0
  -28.2420  -17.4165   16.1969 C   0  0  0  0  0  0
  -30.6318  -17.7417   15.8057 C   0  0  0  0  0  0
  -28.6534  -22.7189   22.2248 C   0  0  0  0  0  0
  -29.7842  -19.7837   20.9029 C   0  0  0  0  0  0
  -29.7523  -15.3442   16.1378 C   0  0  0  0  0  0
  -28.1787  -24.2069   20.0583 C   0  0  0  0  0  0
  -29.0316  -22.7466   20.7333 C   0  0  2  0  0  0
  -28.4518  -15.7965   18.6239 N   0  0  0  0  0  0
  -29.8403  -17.4986   18.2728 N   0  0  0  0  0  0
  -29.5128  -16.7792   15.8294 N   0  3  0  0  0  0
  -29.0995  -21.1508   20.1915 N   0  3  0  0  0  0
  -26.9955  -17.6349   20.7264 Cl  0  0  0  0  0  0
  -31.4372  -13.2439   19.0174 H   0  0  0  0  0  0
  -30.6831  -12.2366   20.2154 H   0  0  0  0  0  0
  -29.9922  -11.4642   17.9765 H   0  0  0  0  0  0
  -29.4920  -13.0101   17.4539 H   0  0  0  0  0  0
  -28.1594  -11.1501   19.3570 H   0  0  0  0  0  0
  -27.4426  -11.9843   17.9975 H   0  0  0  0  0  0
  -27.3220  -13.9367   19.1236 H   0  0  0  0  0  0
  -28.9816  -12.8559   21.5103 H   0  0  0  0  0  0
  -28.2567  -14.4395   21.4706 H   0  0  0  0  0  0
  -25.2693   -9.5462   22.4862 H   0  0  0  0  0  0
  -23.9917   -7.4424   22.7470 H   0  0  0  0  0  0
  -21.0810   -8.8688   19.8924 H   0  0  0  0  0  0
  -22.3698  -10.9612   19.6222 H   0  0  0  0  0  0
  -21.1966   -7.6112   23.9714 H   0  0  0  0  0  0
  -21.1507   -6.0507   25.9093 H   0  0  0  0  0  0
  -22.0600   -2.7581   23.2878 H   0  0  0  0  0  0
  -22.3963  -11.9832   22.4875 H   0  0  0  0  0  0
  -21.0976  -13.1213   22.2637 H   0  0  0  0  0  0
  -24.6199  -15.7787   20.3448 H   0  0  0  0  0  0
  -26.2157  -15.5015   19.8699 H   0  0  0  0  0  0
  -26.7370  -32.5184   23.0902 H   0  0  0  0  0  0
  -25.0077  -33.9545   25.0203 H   0  0  0  0  0  0
  -22.7844  -31.2547   21.3403 H   0  0  0  0  0  0
  -23.3806  -35.9525   23.3257 H   0  0  0  0  0  0
  -24.3604  -36.8899   22.2070 H   0  0  0  0  0  0
  -23.7266  -37.6382   23.6722 H   0  0  0  0  0  0
  -26.2069  -31.3810   20.6129 H   0  0  0  0  0  0
  -26.9020  -30.7072   22.0461 H   0  0  0  0  0  0
  -28.1502  -28.6144   21.2952 H   0  0  0  0  0  0
  -25.9124  -25.7136   19.0310 H   0  0  0  0  0  0
  -24.0267  -27.2345   18.9659 H   0  0  0  0  0  0
  -23.8496  -30.4946   19.3767 H   0  0  0  0  0  0
  -22.8296  -29.1752   19.8465 H   0  0  0  0  0  0
  -25.1347  -36.1785   25.0808 H   0  0  0  0  0  0
  -20.9992  -28.3352   24.1341 H   0  0  0  0  0  0
  -20.5691  -26.2369   23.3643 H   0  0  0  0  0  0
  -21.6672  -26.7461   22.1221 H   0  0  0  0  0  0
  -19.6986  -25.6289   21.1272 H   0  0  0  0  0  0
  -19.6729  -27.3165   20.6710 H   0  0  0  0  0  0
  -17.4240  -26.6649   21.4004 H   0  0  0  0  0  0
  -18.0369  -26.0048   22.8998 H   0  0  0  0  0  0
  -19.7963  -30.7278   24.2230 H   0  0  0  0  0  0
  -17.5046  -31.6266   24.5159 H   0  0  0  0  0  0
  -15.5378  -30.2992   23.7666 H   0  0  0  0  0  0
  -15.8680  -28.0792   22.7147 H   0  0  0  0  0  0
  -24.5904  -30.7031   25.7619 H   0  0  0  0  0  0
  -24.8810  -32.2957   26.4558 H   0  0  0  0  0  0
  -25.7926  -30.9047   27.0194 H   0  0  0  0  0  0
  -26.3083  -29.6558   24.1349 H   0  0  0  0  0  0
  -27.3970  -29.7215   25.4961 H   0  0  0  0  0  0
  -27.9003  -30.4051   23.9725 H   0  0  0  0  0  0
  -27.2648  -33.3657   26.1862 H   0  0  0  0  0  0
  -28.3940  -32.6724   25.0321 H   0  0  0  0  0  0
  -28.0608  -31.8503   26.5493 H   0  0  0  0  0  0
  -28.2568  -38.0086   24.7523 H   0  0  0  0  0  0
  -28.1130  -36.2614   24.6285 H   0  0  0  0  0  0
  -27.2297  -37.1363   25.8863 H   0  0  0  0  0  0
  -20.9570  -29.8684   21.6662 H   0  0  0  0  0  0
  -26.0157  -38.2777   24.1384 H   0  0  0  0  0  0
  -32.5502  -18.2335   19.7051 H   0  0  0  0  0  0
  -32.5840  -16.1234   17.5249 H   0  0  0  0  0  0
  -27.5710  -18.0228   18.0752 H   0  0  0  0  0  0
  -28.4809  -19.2001   17.4588 H   0  0  0  0  0  0
  -30.4000  -19.4632   17.1871 H   0  0  0  0  0  0
  -31.7220  -18.5682   17.4190 H   0  0  0  0  0  0
  -27.9300  -18.1501   15.4506 H   0  0  0  0  0  0
  -27.4373  -16.6819   16.2827 H   0  0  0  0  0  0
  -31.5718  -17.2325   15.5821 H   0  0  0  0  0  0
  -30.4843  -18.4908   15.0242 H   0  0  0  0  0  0
  -28.7575  -23.7047   22.6778 H   0  0  0  0  0  0
  -29.2736  -22.0344   22.8044 H   0  0  0  0  0  0
  -27.6150  -22.4130   22.3504 H   0  0  0  0  0  0
  -29.2902  -19.7192   21.8720 H   0  0  0  0  0  0
  -30.7947  -20.1188   21.1356 H   0  0  0  0  0  0
  -28.8785  -14.7349   15.9132 H   0  0  0  0  0  0
  -30.6119  -14.9481   15.5944 H   0  0  0  0  0  0
  -27.1169  -23.9897   20.1796 H   0  0  0  0  0  0
  -28.3330  -24.1307   18.9826 H   0  0  0  0  0  0
  -30.0796  -23.0355   20.6899 H   0  0  0  0  0  0
  -29.6593  -16.8303   16.8352 H   0  0  0  0  0  0
  -28.1420  -20.8997   19.9955 H   0  0  0  0  0  0
  -29.5421  -21.2204   19.2884 H   0  0  0  0  0  0
  1 25  1  0  0  0
  1 30  2  0  0  0
  1 86  1  0  0  0
  2  3  1  0  0  0
  2 25  1  0  0  0
  2 90  1  0  0  0
  2 91  1  0  0  0
  3  4  1  0  0  0
  3 92  1  0  0  0
  3 93  1  0  0  0
  4  5  1  0  0  0
  4 94  1  0  0  0
  4 95  1  0  0  0
  5  6  1  0  0  0
  5 26  1  0  0  0
  5 96  1  0  0  0
  6 25  1  0  0  0
  6 97  1  0  0  0
  6 98  1  0  0  0
  7  8  2  0  0  0
  7 26  1  0  0  0
  7 29  1  0  0  0
  8  9  1  0  0  0
  8 22  1  0  0  0
  9 10  1  0  0  0
  9 27  2  0  0  0
 10 11  2  0  0  0
 10 15  1  0  0  0
 11 12  1  0  0  0
 11 99  1  0  0  0
 12 13  2  0  0  0
 12100  1  0  0  0
 13 14  1  0  0  0
 13 31  1  0  0  0
 14 15  2  0  0  0
 14101  1  0  0  0
 15102  1  0  0  0
 16 17  2  0  0  0
 16 21  1  0  0  0
 16 31  1  0  0  0
 17 18  1  0  0  0
 17103  1  0  0  0
 18 19  2  0  0  0
 18104  1  0  0  0
 19 20  1  0  0  0
 19 24  1  0  0  0
 20 21  2  0  0  0
 20105  1  0  0  0
 21 23  1  0  0  0
 22 28  1  0  0  0
 22 32  2  0  0  0
 26 27  1  0  0  0
 28106  1  0  0  0
 28107  1  0  0  0
 29108  1  0  0  0
 29109  1  0  0  0
 33 34  1  0  0  0
 33 66  1  0  0  0
 33 70  2  0  0  0
 34 36  1  0  0  0
 34 59  1  0  0  0
 34110  1  0  0  0
 35 44  2  0  0  0
 35 45  1  0  0  0
 35 68  1  0  0  0
 36 56  1  0  0  0
 36111  1  0  0  0
 37 39  1  0  0  0
 37 47  1  0  0  0
 37 66  1  0  0  0
 37112  1  0  0  0
 38 43  2  0  0  0
 38 46  1  0  0  0
 38 47  1  0  0  0
 39 64  1  0  0  0
 39 67  2  0  0  0
 40 52  1  0  0  0
 40 53  2  0  0  0
 40 58  1  0  0  0
 41113  1  0  0  0
 41114  1  0  0  0
 41115  1  0  0  0
 41 48  1  0  0  0
 42 43  1  0  0  0
 42 66  1  0  0  0
 42116  1  0  0  0
 42117  1  0  0  0
 43 44  1  0  0  0
 44118  1  0  0  0
 45 46  2  0  0  0
 45119  1  0  0  0
 46120  1  0  0  0
 47121  1  0  0  0
 47122  1  0  0  0
 48 56  1  0  0  0
 48 65  1  0  0  0
 48123  1  0  0  0
 49 50  1  0  0  0
 49 53  1  0  0  0
 49 64  1  0  0  0
 49124  1  0  0  0
 50 51  1  0  0  0
 50125  1  0  0  0
 50126  1  0  0  0
 51 52  1  0  0  0
 51127  1  0  0  0
 51128  1  0  0  0
 52129  1  0  0  0
 52130  1  0  0  0
 53 54  1  0  0  0
 54 55  2  0  0  0
 54131  1  0  0  0
 55 57  1  0  0  0
 55132  1  0  0  0
 56 69  2  0  0  0
 57 58  2  0  0  0
 57133  1  0  0  0
 58134  1  0  0  0
 59 60  1  0  0  0
 59 61  1  0  0  0
 59 62  1  0  0  0
 60135  1  0  0  0
 60136  1  0  0  0
 60137  1  0  0  0
 61138  1  0  0  0
 61139  1  0  0  0
 61140  1  0  0  0
 62141  1  0  0  0
 62142  1  0  0  0
 62143  1  0  0  0
 63 65  1  0  0  0
 63144  1  0  0  0
 63145  1  0  0  0
 63146  1  0  0  0
 64147  1  0  0  0
 65148  1  0  0  0
 68 83  1  0  0  0
 71 72  2  0  0  0
 71 73  1  0  0  0
 71149  1  0  0  0
 72 74  1  0  0  0
 72150  1  0  0  0
 73 75  2  0  0  0
 73 81  1  0  0  0
 74 82  1  0  0  0
 74 85  2  0  0  0
 75 85  1  0  0  0
 75 89  1  0  0  0
 76 78  1  0  0  0
 76 86  1  0  0  0
 76151  1  0  0  0
 76152  1  0  0  0
 77 79  1  0  0  0
 77 86  1  0  0  0
 77153  1  0  0  0
 77154  1  0  0  0
 78 87  1  0  0  0
 78155  1  0  0  0
 78156  1  0  0  0
 79 87  1  0  0  0
 79157  1  0  0  0
 79158  1  0  0  0
 80159  1  0  0  0
 80160  1  0  0  0
 80161  1  0  0  0
 80 84  1  0  0  0
 81 88  1  0  0  0
 81162  1  0  0  0
 81163  1  0  0  0
 82164  1  0  0  0
 82165  1  0  0  0
 82 87  1  0  0  0
 83 84  1  0  0  0
 83166  1  0  0  0
 83167  1  0  0  0
 84 88  1  0  0  0
 84168  1  0  0  0
 87169  1  0  0  0
 88170  1  0  0  0
 88171  1  0  0  0
M  CHG  2  87   1  88   1
M  ISO  4   1 100  68 101  83 101  86 100
M  END
> <chiral flag>
0

> <version>
0

> <s_m_source_file>
/data/baiqing/PycharmProjects/Reinvent-master-3.2/result/LINK_invent/BTK/process_docking_weight1_custom_sum_contain_oxygen_bond_distance_aromatic_linkinvent_7_9_3/rearranged_h_0197.sdf

> <i_m_source_file_index>
48

> <r_mmod_Potential_Energy-OPLS-2005>
11631.1845703125

> <r_mmod_Stretch_Energy-OPLS-2005>
7409.18896484375

> <r_mmod_Bend_Energy-OPLS-2005>
773.704711914062

> <r_mmod_Torsional_Energy-OPLS-2005>
489.768310546875

> <r_mmod_Improper_Torsional_Energy-OPLS-2005>
60.178337097168

> <r_mmod_Van_der_Waal_Energy-OPLS-2005>
3147.24145507812

> <r_mmod_Electrostatic_Energy-OPLS-2005>
-82.3621368408203

> <r_mmod_Solvation_Energy-OPLS-2005>
-919.580627441406

> <b_mmod_Minimization_Converged-OPLS-2005>
0

> <r_mmod_RMS_Derivative-OPLS-2005>
6.23342943191528

$$$$
48
                    3D
 Structure written by MMmdl.
172183  0  0  1  0            999 V2000
  -30.7656  -14.4091   20.6192 C   0  0  0  0  0  0
  -30.4128  -12.2889   19.4148 C   0  0  0  0  0  0
  -29.4884  -12.5113   18.2025 C   0  0  0  0  0  0
  -28.0119  -12.3743   18.6177 C   0  0  0  0  0  0
  -27.6655  -13.2093   19.8794 C   0  0  2  0  0  0
  -28.7076  -12.9869   21.0007 C   0  0  0  0  0  0
  -25.2600  -13.8171   20.5689 C   0  0  0  0  0  0
  -24.1848  -13.0444   20.9174 C   0  0  0  0  0  0
  -24.6404  -11.6912   20.8738 C   0  0  0  0  0  0
  -23.9068  -10.4296   21.0404 C   0  0  0  0  0  0
  -24.3617   -9.4211   21.9184 C   0  0  0  0  0  0
  -23.6292   -8.2248   22.0755 C   0  0  0  0  0  0
  -22.4275   -8.0285   21.3544 C   0  0  0  0  0  0
  -21.9913   -9.0259   20.4646 C   0  0  0  0  0  0
  -22.7242  -10.2137   20.3055 C   0  0  0  0  0  0
  -21.6853   -6.0739   22.5278 C   0  0  0  0  0  0
  -21.4012   -6.5641   23.8213 C   0  0  0  0  0  0
  -21.3659   -5.6795   24.9176 C   0  0  0  0  0  0
  -21.6044   -4.3056   24.7225 C   0  0  0  0  0  0
  -21.8819   -3.8150   23.4347 C   0  0  0  0  0  0
  -21.9191   -4.6967   22.3402 C   0  0  0  0  0  0
  -22.7870  -13.5243   21.1835 C   0  0  0  0  0  0
  -22.1662   -4.2153   21.0979 F   0  0  0  0  0  0
  -21.5630   -3.4541   25.7739 F   0  0  0  0  0  0
  -30.0462  -13.2673   20.4516 N   0  0  0  0  0  0
  -26.3048  -12.9349   20.3394 N   0  0  0  0  0  0
  -25.9336  -11.6504   20.5780 N   0  0  0  0  0  0
  -22.0503  -12.8235   22.0387 N   0  0  0  0  0  0
  -25.4328  -15.1888   20.4096 N   0  0  0  0  0  0
  -31.8397  -14.6122   20.0478 O   0  0  0  0  0  0
  -21.6638   -6.8883   21.4241 O   0  0  0  0  0  0
  -22.3561  -14.5553   20.6690 O   0  0  0  0  0  0
  -24.6158  -31.8700   23.2160 C   0  0  0  0  0  0
  -25.9054  -32.4832   23.8440 C   0  0  1  0  0  0
  -27.2204  -27.4319   20.0854 C   0  0  0  0  0  0
  -25.5922  -33.8630   24.2364 N   0  0  0  0  0  0
  -23.4027  -30.4996   21.5577 C   0  0  2  0  0  0
  -24.8461  -28.9834   20.1076 C   0  0  0  0  0  0
  -22.7418  -29.4668   22.4997 C   0  0  0  0  0  0
  -18.0269  -28.1372   22.8490 C   0  0  0  0  0  0
  -24.1488  -36.7315   23.2637 C   0  0  0  0  0  0
  -25.9363  -30.8345   21.3735 C   0  0  0  0  0  0
  -26.0111  -29.4743   20.7111 C   0  0  0  0  0  0
  -27.2016  -28.7061   20.7013 C   0  0  0  0  0  0
  -26.0383  -26.9881   19.4367 C   0  0  0  0  0  0
  -24.8555  -27.7392   19.4660 C   0  0  0  0  0  0
  -23.6087  -29.8475   20.1677 C   0  0  0  0  0  0
  -25.4109  -36.3116   24.0341 C   0  0  1  0  0  0
  -20.5863  -28.3660   23.1314 C   0  0  2  0  0  0
  -20.6763  -26.9400   22.5410 C   0  0  0  0  0  0
  -19.5741  -26.6383   21.5211 C   0  0  0  0  0  0
  -18.1917  -26.7918   22.1623 C   0  0  0  0  0  0
  -19.1519  -28.8832   23.2896 C   0  0  0  0  0  0
  -18.9448  -30.1441   23.8902 C   0  0  0  0  0  0
  -17.6449  -30.6581   24.0560 C   0  0  0  0  0  0
  -25.9037  -34.9477   23.5143 C   0  0  0  0  0  0
  -16.5340  -29.9082   23.6329 C   0  0  0  0  0  0
  -16.7259  -28.6500   23.0347 C   0  0  0  0  0  0
  -26.4486  -31.6597   25.0753 C   0  0  0  0  0  0
  -25.3749  -31.3677   26.1491 C   0  0  0  0  0  0
  -27.0330  -30.3050   24.6118 C   0  0  0  0  0  0
  -27.6067  -32.4312   25.7507 C   0  0  0  0  0  0
  -27.5580  -37.1812   24.8467 C   0  0  0  0  0  0
  -21.4145  -29.3032   22.3729 N   0  0  0  0  0  0
  -26.4296  -37.3799   23.9406 N   0  0  0  0  0  0
  -24.6700  -31.0807   22.1070 N   0  0  0  0  0  0
  -23.4193  -28.8187   23.3015 O   0  0  0  0  0  0
  -28.3478  -26.6229   20.1601 O   0  0  0  0  0  0
  -26.5588  -34.8918   22.4696 O   0  0  0  0  0  0
  -23.5350  -32.1456   23.7547 O   0  0  0  0  0  0
  -27.1399  -22.4972   20.4686 C   0  0  0  0  0  0
  -28.5309  -21.9391   22.0396 C   0  0  0  0  0  0
  -27.4130  -21.1226   22.0797 C   0  0  0  0  0  0
  -30.4481  -20.8780   23.3499 C   0  0  0  0  0  0
  -29.7774  -21.8885   22.7537 C   0  0  0  0  0  0
  -31.7199  -20.9313   24.1662 C   0  0  0  0  0  0
  -31.1335  -19.6607   24.8122 C   0  0  0  0  0  0
  -25.6749  -20.2117   23.7930 C   0  0  0  0  0  0
  -26.9704  -20.3562   24.5436 C   0  0  0  0  0  0
  -31.0658  -17.0992   23.0534 C   0  0  0  0  0  0
  -29.8571  -17.8816   21.6152 C   0  0  0  0  0  0
  -26.9893  -20.0668   23.0555 C   0  0  0  0  0  0
  -30.1930  -19.3905   23.6092 C   0  0  2  0  0  0
  -30.8150  -16.6917   21.6059 C   0  0  2  0  0  0
  -28.9841  -24.1811   20.7800 C   0  0  0  0  0  0
  -28.0477  -25.2119   20.0994 C   0  0  0  0  0  0
  -26.5667  -21.4425   21.0265 N   0  0  0  0  0  0
  -28.2540  -22.9332   21.0858 N   0  0  0  0  0  0
  -30.2214  -15.3568   21.4006 N   0  0  0  0  0  0
  -30.7856  -18.4724   22.5970 N   0  3  1  0  0  0
  -31.4586  -12.3658   19.1112 H   0  0  0  0  0  0
  -30.2949  -11.2760   19.8027 H   0  0  0  0  0  0
  -29.7218  -11.7957   17.4129 H   0  0  0  0  0  0
  -29.6633  -13.5019   17.7796 H   0  0  0  0  0  0
  -27.8184  -11.3179   18.8079 H   0  0  0  0  0  0
  -27.3607  -12.6569   17.7898 H   0  0  0  0  0  0
  -27.7133  -14.2586   19.5873 H   0  0  0  0  0  0
  -28.6713  -11.9543   21.3511 H   0  0  0  0  0  0
  -28.4690  -13.5969   21.8723 H   0  0  0  0  0  0
  -25.2762   -9.5688   22.4757 H   0  0  0  0  0  0
  -24.0001   -7.4642   22.7478 H   0  0  0  0  0  0
  -21.0845   -8.8777   19.8952 H   0  0  0  0  0  0
  -22.3702  -10.9676   19.6162 H   0  0  0  0  0  0
  -21.2002   -7.6149   23.9719 H   0  0  0  0  0  0
  -21.1481   -6.0523   25.9079 H   0  0  0  0  0  0
  -22.0598   -2.7612   23.2846 H   0  0  0  0  0  0
  -22.4108  -11.9888   22.4769 H   0  0  0  0  0  0
  -21.1121  -13.1264   22.2583 H   0  0  0  0  0  0
  -24.6656  -15.8448   20.5102 H   0  0  0  0  0  0
  -26.2869  -15.6246   20.0845 H   0  0  0  0  0  0
  -26.7117  -32.5546   23.1201 H   0  0  0  0  0  0
  -25.0091  -33.9803   25.0523 H   0  0  0  0  0  0
  -22.6909  -31.3175   21.4272 H   0  0  0  0  0  0
  -23.3746  -35.9652   23.3311 H   0  0  0  0  0  0
  -24.3585  -36.8918   22.2049 H   0  0  0  0  0  0
  -23.7243  -37.6526   23.6642 H   0  0  0  0  0  0
  -26.0533  -31.6042   20.6096 H   0  0  0  0  0  0
  -26.8231  -30.8816   21.9940 H   0  0  0  0  0  0
  -28.0927  -29.0724   21.1920 H   0  0  0  0  0  0
  -25.9926  -26.0475   18.9086 H   0  0  0  0  0  0
  -23.9646  -27.3617   18.9833 H   0  0  0  0  0  0
  -23.7147  -30.6304   19.4157 H   0  0  0  0  0  0
  -22.7318  -29.2700   19.8690 H   0  0  0  0  0  0
  -25.1278  -36.1994   25.0834 H   0  0  0  0  0  0
  -20.9949  -28.3220   24.1437 H   0  0  0  0  0  0
  -20.5685  -26.2262   23.3589 H   0  0  0  0  0  0
  -21.6632  -26.7453   22.1191 H   0  0  0  0  0  0
  -19.6906  -25.6302   21.1224 H   0  0  0  0  0  0
  -19.6681  -27.3202   20.6749 H   0  0  0  0  0  0
  -17.4191  -26.6665   21.4020 H   0  0  0  0  0  0
  -18.0320  -26.0053   22.9014 H   0  0  0  0  0  0
  -19.7924  -30.7251   24.2278 H   0  0  0  0  0  0
  -17.5009  -31.6264   24.5158 H   0  0  0  0  0  0
  -15.5343  -30.2985   23.7659 H   0  0  0  0  0  0
  -15.8656  -28.0830   22.7057 H   0  0  0  0  0  0
  -24.5937  -30.7013   25.7814 H   0  0  0  0  0  0
  -24.8913  -32.2813   26.4957 H   0  0  0  0  0  0
  -25.8099  -30.8830   27.0240 H   0  0  0  0  0  0
  -26.2881  -29.6794   24.1184 H   0  0  0  0  0  0
  -27.4135  -29.7297   25.4569 H   0  0  0  0  0  0
  -27.8699  -30.4390   23.9259 H   0  0  0  0  0  0
  -27.2711  -33.3616   26.2101 H   0  0  0  0  0  0
  -28.3865  -32.6863   25.0317 H   0  0  0  0  0  0
  -28.0748  -31.8419   26.5402 H   0  0  0  0  0  0
  -28.2599  -38.0107   24.7522 H   0  0  0  0  0  0
  -28.1077  -36.2640   24.6294 H   0  0  0  0  0  0
  -27.2294  -37.1463   25.8869 H   0  0  0  0  0  0
  -20.9304  -29.8780   21.6974 H   0  0  0  0  0  0
  -26.0188  -38.2879   24.1405 H   0  0  0  0  0  0
  -26.6887  -22.9959   19.6224 H   0  0  0  0  0  0
  -30.2661  -22.8484   22.8407 H   0  0  0  0  0  0
  -31.8472  -21.7510   24.8750 H   0  0  0  0  0  0
  -32.6557  -20.7360   23.6403 H   0  0  0  0  0  0
  -30.5796  -19.8820   25.7275 H   0  0  0  0  0  0
  -31.8753  -18.8861   25.0100 H   0  0  0  0  0  0
  -25.0922  -21.1139   23.6157 H   0  0  0  0  0  0
  -25.0941  -19.3072   23.9609 H   0  0  0  0  0  0
  -27.2457  -19.5524   25.2231 H   0  0  0  0  0  0
  -27.2558  -21.3560   24.8665 H   0  0  0  0  0  0
  -32.0884  -16.9487   23.3999 H   0  0  0  0  0  0
  -30.3317  -16.7171   23.7668 H   0  0  0  0  0  0
  -28.8694  -17.6486   22.0161 H   0  0  0  0  0  0
  -29.7972  -18.4355   20.6780 H   0  0  0  0  0  0
  -27.2329  -19.0652   22.7137 H   0  0  0  0  0  0
  -29.2260  -19.0463   23.9625 H   0  0  0  0  0  0
  -31.6858  -16.8959   20.9742 H   0  0  0  0  0  0
  -29.3476  -24.6012   21.7171 H   0  0  0  0  0  0
  -29.8513  -23.9558   20.1594 H   0  0  0  0  0  0
  -27.0940  -25.0765   20.6136 H   0  0  0  0  0  0
  -27.9112  -24.9263   19.0552 H   0  0  0  0  0  0
  -29.3387  -15.1367   21.8391 H   0  0  0  0  0  0
  -31.5931  -18.8658   22.1376 H   0  0  0  0  0  0
  1 25  1  0  0  0
  1 30  2  0  0  0
  1 89  1  0  0  0
  2  3  1  0  0  0
  2 25  1  0  0  0
  2 91  1  0  0  0
  2 92  1  0  0  0
  3  4  1  0  0  0
  3 93  1  0  0  0
  3 94  1  0  0  0
  4  5  1  0  0  0
  4 95  1  0  0  0
  4 96  1  0  0  0
  5  6  1  0  0  0
  5 26  1  0  0  0
  5 97  1  0  0  0
  6 25  1  0  0  0
  6 98  1  0  0  0
  6 99  1  0  0  0
  7  8  2  0  0  0
  7 26  1  0  0  0
  7 29  1  0  0  0
  8  9  1  0  0  0
  8 22  1  0  0  0
  9 10  1  0  0  0
  9 27  2  0  0  0
 10 11  2  0  0  0
 10 15  1  0  0  0
 11 12  1  0  0  0
 11100  1  0  0  0
 12 13  2  0  0  0
 12101  1  0  0  0
 13 14  1  0  0  0
 13 31  1  0  0  0
 14 15  2  0  0  0
 14102  1  0  0  0
 15103  1  0  0  0
 16 17  2  0  0  0
 16 21  1  0  0  0
 16 31  1  0  0  0
 17 18  1  0  0  0
 17104  1  0  0  0
 18 19  2  0  0  0
 18105  1  0  0  0
 19 20  1  0  0  0
 19 24  1  0  0  0
 20 21  2  0  0  0
 20106  1  0  0  0
 21 23  1  0  0  0
 22 28  1  0  0  0
 22 32  2  0  0  0
 26 27  1  0  0  0
 28107  1  0  0  0
 28108  1  0  0  0
 29109  1  0  0  0
 29110  1  0  0  0
 33 34  1  0  0  0
 33 66  1  0  0  0
 33 70  2  0  0  0
 34 36  1  0  0  0
 34 59  1  0  0  0
 34111  1  0  0  0
 35 44  2  0  0  0
 35 45  1  0  0  0
 35 68  1  0  0  0
 36 56  1  0  0  0
 36112  1  0  0  0
 37 39  1  0  0  0
 37 47  1  0  0  0
 37 66  1  0  0  0
 37113  1  0  0  0
 38 43  2  0  0  0
 38 46  1  0  0  0
 38 47  1  0  0  0
 39 64  1  0  0  0
 39 67  2  0  0  0
 40 52  1  0  0  0
 40 53  2  0  0  0
 40 58  1  0  0  0
 41114  1  0  0  0
 41115  1  0  0  0
 41116  1  0  0  0
 41 48  1  0  0  0
 42 43  1  0  0  0
 42 66  1  0  0  0
 42117  1  0  0  0
 42118  1  0  0  0
 43 44  1  0  0  0
 44119  1  0  0  0
 45 46  2  0  0  0
 45120  1  0  0  0
 46121  1  0  0  0
 47122  1  0  0  0
 47123  1  0  0  0
 48 56  1  0  0  0
 48 65  1  0  0  0
 48124  1  0  0  0
 49 50  1  0  0  0
 49 53  1  0  0  0
 49 64  1  0  0  0
 49125  1  0  0  0
 50 51  1  0  0  0
 50126  1  0  0  0
 50127  1  0  0  0
 51 52  1  0  0  0
 51128  1  0  0  0
 51129  1  0  0  0
 52130  1  0  0  0
 52131  1  0  0  0
 53 54  1  0  0  0
 54 55  2  0  0  0
 54132  1  0  0  0
 55 57  1  0  0  0
 55133  1  0  0  0
 56 69  2  0  0  0
 57 58  2  0  0  0
 57134  1  0  0  0
 58135  1  0  0  0
 59 60  1  0  0  0
 59 61  1  0  0  0
 59 62  1  0  0  0
 60136  1  0  0  0
 60137  1  0  0  0
 60138  1  0  0  0
 61139  1  0  0  0
 61140  1  0  0  0
 61141  1  0  0  0
 62142  1  0  0  0
 62143  1  0  0  0
 62144  1  0  0  0
 63 65  1  0  0  0
 63145  1  0  0  0
 63146  1  0  0  0
 63147  1  0  0  0
 64148  1  0  0  0
 65149  1  0  0  0
 68 86  1  0  0  0
 71 87  2  0  0  0
 71 88  1  0  0  0
 71150  1  0  0  0
 72 73  2  0  0  0
 72 75  1  0  0  0
 72 88  1  0  0  0
 73 87  1  0  0  0
 73 82  1  0  0  0
 74 75  2  0  0  0
 74 76  1  0  0  0
 74 83  1  0  0  0
 75151  1  0  0  0
 76 77  1  0  0  0
 76152  1  0  0  0
 76153  1  0  0  0
 77154  1  0  0  0
 77155  1  0  0  0
 77 83  1  0  0  0
 78 79  1  0  0  0
 78 82  1  0  0  0
 78156  1  0  0  0
 78157  1  0  0  0
 79 82  1  0  0  0
 79158  1  0  0  0
 79159  1  0  0  0
 80 84  1  0  0  0
 80160  1  0  0  0
 80161  1  0  0  0
 80 90  1  0  0  0
 81 84  1  0  0  0
 81 90  1  0  0  0
 81162  1  0  0  0
 81163  1  0  0  0
 82164  1  0  0  0
 83 90  1  0  0  0
 83165  1  0  0  0
 84 89  1  0  0  0
 84166  1  0  0  0
 85 86  1  0  0  0
 85 88  1  0  0  0
 85167  1  0  0  0
 85168  1  0  0  0
 86169  1  0  0  0
 86170  1  0  0  0
 89171  1  0  0  0
 90172  1  0  0  0
M  CHG  1  90   1
M  ISO  4   1 100  68 101  86 101  89 100
M  END
> <chiral flag>
0

> <version>
0

> <s_m_source_file>
/data/baiqing/PycharmProjects/Reinvent-master-3.2/result/LINK_invent/BTK/process_docking_weight1_custom_sum_contain_oxygen_bond_distance_aromatic_linkinvent_7_9_3/rearranged_h_0197.sdf

> <i_m_source_file_index>
49

> <r_mmod_Potential_Energy-OPLS-2005>
-99.9294967651367

> <r_mmod_Stretch_Energy-OPLS-2005>
41.423168182373

> <r_mmod_Bend_Energy-OPLS-2005>
160.536254882812

> <r_mmod_Torsional_Energy-OPLS-2005>
298.244567871094

> <r_mmod_Improper_Torsional_Energy-OPLS-2005>
2.35273575782776

> <r_mmod_Van_der_Waal_Energy-OPLS-2005>
144.444412231445

> <r_mmod_Electrostatic_Energy-OPLS-2005>
-288.934417724609

> <r_mmod_Solvation_Energy-OPLS-2005>
-472.303161621094

> <b_mmod_Minimization_Converged-OPLS-2005>
0

> <r_mmod_RMS_Derivative-OPLS-2005>
0.722755908966064

$$$$
49
                    3D
 Structure written by MMmdl.
161170  0  0  1  0            999 V2000
  -30.7970  -14.4916   20.5854 C   0  0  0  0  0  0
  -30.4082  -12.3333   19.4335 C   0  0  0  0  0  0
  -29.4907  -12.5029   18.2047 C   0  0  0  0  0  0
  -28.0135  -12.3707   18.6162 C   0  0  0  0  0  0
  -27.6616  -13.2162   19.8695 C   0  0  2  0  0  0
  -28.7155  -13.0206   20.9842 C   0  0  0  0  0  0
  -25.2624  -13.8200   20.5713 C   0  0  0  0  0  0
  -24.1863  -13.0459   20.9160 C   0  0  0  0  0  0
  -24.6421  -11.6941   20.8739 C   0  0  0  0  0  0
  -23.9099  -10.4315   21.0399 C   0  0  0  0  0  0
  -24.3641   -9.4234   21.9182 C   0  0  0  0  0  0
  -23.6305   -8.2270   22.0749 C   0  0  0  0  0  0
  -22.4295   -8.0297   21.3548 C   0  0  0  0  0  0
  -21.9934   -9.0272   20.4663 C   0  0  0  0  0  0
  -22.7255  -10.2153   20.3063 C   0  0  0  0  0  0
  -21.6844   -6.0750   22.5278 C   0  0  0  0  0  0
  -21.4017   -6.5647   23.8220 C   0  0  0  0  0  0
  -21.3674   -5.6799   24.9173 C   0  0  0  0  0  0
  -21.6022   -4.3059   24.7224 C   0  0  0  0  0  0
  -21.8820   -3.8161   23.4348 C   0  0  0  0  0  0
  -21.9189   -4.6976   22.3405 C   0  0  0  0  0  0
  -22.7879  -13.5246   21.1827 C   0  0  0  0  0  0
  -22.1651   -4.2157   21.0984 F   0  0  0  0  0  0
  -21.5633   -3.4542   25.7743 F   0  0  0  0  0  0
  -30.0276  -13.3618   20.4272 N   0  0  0  0  0  0
  -26.3067  -12.9378   20.3387 N   0  0  0  0  0  0
  -25.9367  -11.6560   20.5798 N   0  0  0  0  0  0
  -22.0551  -12.8217   22.0413 N   0  0  0  0  0  0
  -25.4327  -15.1894   20.4020 N   0  0  0  0  0  0
  -31.9557  -14.4863   20.1616 O   0  0  0  0  0  0
  -21.6632   -6.8902   21.4255 O   0  0  0  0  0  0
  -22.3592  -14.5537   20.6671 O   0  0  0  0  0  0
  -24.6125  -31.8673   23.2111 C   0  0  0  0  0  0
  -25.9039  -32.4828   23.8417 C   0  0  1  0  0  0
  -27.2373  -27.4458   20.0955 C   0  0  0  0  0  0
  -25.5892  -33.8616   24.2338 N   0  0  0  0  0  0
  -23.3982  -30.4910   21.5527 C   0  0  2  0  0  0
  -24.8461  -28.9583   20.1167 C   0  0  0  0  0  0
  -22.7396  -29.4645   22.5005 C   0  0  0  0  0  0
  -18.0261  -28.1372   22.8494 C   0  0  0  0  0  0
  -24.1476  -36.7307   23.2639 C   0  0  0  0  0  0
  -25.9255  -30.8400   21.3597 C   0  0  0  0  0  0
  -26.0043  -29.4728   20.7117 C   0  0  0  0  0  0
  -27.2004  -28.7223   20.6989 C   0  0  0  0  0  0
  -26.0609  -26.9487   19.4856 C   0  0  0  0  0  0
  -24.8677  -27.6941   19.5048 C   0  0  0  0  0  0
  -23.6059  -29.8211   20.1670 C   0  0  0  0  0  0
  -25.4098  -36.3103   24.0340 C   0  0  1  0  0  0
  -20.5857  -28.3648   23.1327 C   0  0  2  0  0  0
  -20.6742  -26.9381   22.5419 C   0  0  0  0  0  0
  -19.5714  -26.6387   21.5205 C   0  0  0  0  0  0
  -18.1898  -26.7922   22.1625 C   0  0  0  0  0  0
  -19.1514  -28.8821   23.2917 C   0  0  0  0  0  0
  -18.9446  -30.1436   23.8913 C   0  0  0  0  0  0
  -17.6447  -30.6581   24.0563 C   0  0  0  0  0  0
  -25.9022  -34.9479   23.5143 C   0  0  0  0  0  0
  -16.5333  -29.9079   23.6336 C   0  0  0  0  0  0
  -16.7250  -28.6498   23.0352 C   0  0  0  0  0  0
  -26.4472  -31.6589   25.0721 C   0  0  0  0  0  0
  -25.3773  -31.3672   26.1491 C   0  0  0  0  0  0
  -27.0299  -30.3044   24.6055 C   0  0  0  0  0  0
  -27.6076  -32.4297   25.7478 C   0  0  0  0  0  0
  -27.5573  -37.1804   24.8474 C   0  0  0  0  0  0
  -21.4125  -29.3017   22.3751 N   0  0  0  0  0  0
  -26.4283  -37.3789   23.9420 N   0  0  0  0  0  0
  -24.6648  -31.0801   22.1006 N   0  0  0  0  0  0
  -23.4169  -28.8185   23.3045 O   0  0  0  0  0  0
  -28.4280  -26.7466   20.1194 O   0  0  0  0  0  0
  -26.5579  -34.8920   22.4700 O   0  0  0  0  0  0
  -23.5333  -32.1428   23.7529 O   0  0  0  0  0  0
  -29.4843  -19.0996   20.1908 C   0  0  0  0  0  0
  -31.6388  -20.1248   21.4583 C   0  0  0  0  0  0
  -30.6171  -18.2976   20.4754 C   0  0  0  0  0  0
  -30.5299  -20.9420   21.1236 C   0  0  0  0  0  0
  -29.1260  -17.0739   22.7494 C   0  0  0  0  0  0
  -29.1012  -15.6314   23.1401 C   0  0  0  0  0  0
  -29.1007  -16.0047   21.6671 C   0  0  0  0  0  0
  -30.7088  -16.8543   19.9705 C   0  0  0  0  0  0
  -30.5269  -22.4523   21.4022 C   0  0  0  0  0  0
  -29.5250  -24.6546   20.7129 C   0  0  0  0  0  0
  -28.4094  -25.3271   19.8842 C   0  0  0  0  0  0
  -31.6911  -18.8059   21.1322 N   0  0  0  0  0  0
  -29.4351  -20.4214   20.5052 N   0  0  0  0  0  0
  -30.2412  -15.7221   20.8348 N   0  0  0  0  0  0
  -29.6374  -23.1883   20.4718 N   0  3  0  0  0  0
  -31.4494  -12.3977   19.1197 H   0  0  0  0  0  0
  -30.3052  -11.3276   19.8496 H   0  0  0  0  0  0
  -29.7321  -11.7609   17.4392 H   0  0  0  0  0  0
  -29.6647  -13.4848   17.7619 H   0  0  0  0  0  0
  -27.8229  -11.3136   18.8220 H   0  0  0  0  0  0
  -27.3674  -12.6494   17.7818 H   0  0  0  0  0  0
  -27.7046  -14.2605   19.5643 H   0  0  0  0  0  0
  -28.7196  -11.9833   21.3244 H   0  0  0  0  0  0
  -28.4628  -13.5800   21.8725 H   0  0  0  0  0  0
  -25.2792   -9.5659   22.4760 H   0  0  0  0  0  0
  -23.9980   -7.4662   22.7472 H   0  0  0  0  0  0
  -21.0860   -8.8806   19.8988 H   0  0  0  0  0  0
  -22.3717  -10.9691   19.6175 H   0  0  0  0  0  0
  -21.2015   -7.6154   23.9713 H   0  0  0  0  0  0
  -21.1489   -6.0537   25.9072 H   0  0  0  0  0  0
  -22.0587   -2.7625   23.2835 H   0  0  0  0  0  0
  -22.4135  -11.9827   22.4736 H   0  0  0  0  0  0
  -21.1215  -13.1290   22.2693 H   0  0  0  0  0  0
  -24.6614  -15.8393   20.4989 H   0  0  0  0  0  0
  -26.2693  -15.6211   20.0343 H   0  0  0  0  0  0
  -26.7095  -32.5545   23.1175 H   0  0  0  0  0  0
  -25.0061  -33.9788   25.0492 H   0  0  0  0  0  0
  -22.6855  -31.3082   21.4133 H   0  0  0  0  0  0
  -23.3731  -35.9654   23.3315 H   0  0  0  0  0  0
  -24.3567  -36.8904   22.2053 H   0  0  0  0  0  0
  -23.7240  -37.6518   23.6638 H   0  0  0  0  0  0
  -26.0286  -31.6053   20.5866 H   0  0  0  0  0  0
  -26.8177  -30.9007   21.9724 H   0  0  0  0  0  0
  -28.0952  -29.1182   21.1600 H   0  0  0  0  0  0
  -26.0431  -25.9937   18.9815 H   0  0  0  0  0  0
  -23.9766  -27.2937   19.0410 H   0  0  0  0  0  0
  -23.7095  -30.5953   19.4049 H   0  0  0  0  0  0
  -22.7304  -29.2365   19.8731 H   0  0  0  0  0  0
  -25.1270  -36.1975   25.0832 H   0  0  0  0  0  0
  -20.9945  -28.3200   24.1452 H   0  0  0  0  0  0
  -20.5616  -26.2245   23.3608 H   0  0  0  0  0  0
  -21.6621  -26.7402   22.1228 H   0  0  0  0  0  0
  -19.6875  -25.6303   21.1218 H   0  0  0  0  0  0
  -19.6673  -27.3214   20.6749 H   0  0  0  0  0  0
  -17.4175  -26.6681   21.4027 H   0  0  0  0  0  0
  -18.0305  -26.0060   22.9016 H   0  0  0  0  0  0
  -19.7917  -30.7257   24.2287 H   0  0  0  0  0  0
  -17.4992  -31.6263   24.5160 H   0  0  0  0  0  0
  -15.5327  -30.2981   23.7645 H   0  0  0  0  0  0
  -15.8657  -28.0813   22.7059 H   0  0  0  0  0  0
  -24.5950  -30.6994   25.7835 H   0  0  0  0  0  0
  -24.8952  -32.2810   26.4964 H   0  0  0  0  0  0
  -25.8169  -30.8838   27.0219 H   0  0  0  0  0  0
  -26.2806  -29.6809   24.1139 H   0  0  0  0  0  0
  -27.4118  -29.7267   25.4474 H   0  0  0  0  0  0
  -27.8626  -30.4367   23.9149 H   0  0  0  0  0  0
  -27.2695  -33.3579   26.2094 H   0  0  0  0  0  0
  -28.3862  -32.6873   25.0285 H   0  0  0  0  0  0
  -28.0757  -31.8387   26.5352 H   0  0  0  0  0  0
  -28.2604  -38.0082   24.7493 H   0  0  0  0  0  0
  -28.1044  -36.2613   24.6322 H   0  0  0  0  0  0
  -27.2292  -37.1497   25.8876 H   0  0  0  0  0  0
  -20.9280  -29.8739   21.6987 H   0  0  0  0  0  0
  -26.0170  -38.2868   24.1422 H   0  0  0  0  0  0
  -28.6212  -18.6916   19.6867 H   0  0  0  0  0  0
  -32.4964  -20.5394   21.9696 H   0  0  0  0  0  0
  -28.2151  -17.6653   22.8339 H   0  0  0  0  0  0
  -30.0457  -17.6108   22.9749 H   0  0  0  0  0  0
  -30.0165  -15.2207   23.5636 H   0  0  0  0  0  0
  -28.1773  -15.2407   23.5641 H   0  0  0  0  0  0
  -28.1518  -15.9451   21.1488 H   0  0  0  0  0  0
  -30.1483  -16.8067   19.0365 H   0  0  0  0  0  0
  -31.7566  -16.7420   19.6794 H   0  0  0  0  0  0
  -31.5375  -22.8480   21.3333 H   0  0  0  0  0  0
  -30.1962  -22.6057   22.4309 H   0  0  0  0  0  0
  -30.4813  -25.1291   20.4955 H   0  0  0  0  0  0
  -29.3215  -24.8365   21.7691 H   0  0  0  0  0  0
  -27.4622  -24.8742   20.1822 H   0  0  0  0  0  0
  -28.5419  -25.1427   18.8141 H   0  0  0  0  0  0
  -28.7381  -22.7360   20.5599 H   0  0  0  0  0  0
  -29.9588  -23.0066   19.5323 H   0  0  0  0  0  0
  1 25  1  0  0  0
  1 30  2  0  0  0
  1 84  1  0  0  0
  2  3  1  0  0  0
  2 25  1  0  0  0
  2 86  1  0  0  0
  2 87  1  0  0  0
  3  4  1  0  0  0
  3 88  1  0  0  0
  3 89  1  0  0  0
  4  5  1  0  0  0
  4 90  1  0  0  0
  4 91  1  0  0  0
  5  6  1  0  0  0
  5 26  1  0  0  0
  5 92  1  0  0  0
  6 25  1  0  0  0
  6 93  1  0  0  0
  6 94  1  0  0  0
  7  8  2  0  0  0
  7 26  1  0  0  0
  7 29  1  0  0  0
  8  9  1  0  0  0
  8 22  1  0  0  0
  9 10  1  0  0  0
  9 27  2  0  0  0
 10 11  2  0  0  0
 10 15  1  0  0  0
 11 12  1  0  0  0
 11 95  1  0  0  0
 12 13  2  0  0  0
 12 96  1  0  0  0
 13 14  1  0  0  0
 13 31  1  0  0  0
 14 15  2  0  0  0
 14 97  1  0  0  0
 15 98  1  0  0  0
 16 17  2  0  0  0
 16 21  1  0  0  0
 16 31  1  0  0  0
 17 18  1  0  0  0
 17 99  1  0  0  0
 18 19  2  0  0  0
 18100  1  0  0  0
 19 20  1  0  0  0
 19 24  1  0  0  0
 20 21  2  0  0  0
 20101  1  0  0  0
 21 23  1  0  0  0
 22 28  1  0  0  0
 22 32  2  0  0  0
 26 27  1  0  0  0
 28102  1  0  0  0
 28103  1  0  0  0
 29104  1  0  0  0
 29105  1  0  0  0
 33 34  1  0  0  0
 33 66  1  0  0  0
 33 70  2  0  0  0
 34 36  1  0  0  0
 34 59  1  0  0  0
 34106  1  0  0  0
 35 44  2  0  0  0
 35 45  1  0  0  0
 35 68  1  0  0  0
 36 56  1  0  0  0
 36107  1  0  0  0
 37 39  1  0  0  0
 37 47  1  0  0  0
 37 66  1  0  0  0
 37108  1  0  0  0
 38 43  2  0  0  0
 38 46  1  0  0  0
 38 47  1  0  0  0
 39 64  1  0  0  0
 39 67  2  0  0  0
 40 52  1  0  0  0
 40 53  2  0  0  0
 40 58  1  0  0  0
 41109  1  0  0  0
 41110  1  0  0  0
 41111  1  0  0  0
 41 48  1  0  0  0
 42 43  1  0  0  0
 42 66  1  0  0  0
 42112  1  0  0  0
 42113  1  0  0  0
 43 44  1  0  0  0
 44114  1  0  0  0
 45 46  2  0  0  0
 45115  1  0  0  0
 46116  1  0  0  0
 47117  1  0  0  0
 47118  1  0  0  0
 48 56  1  0  0  0
 48 65  1  0  0  0
 48119  1  0  0  0
 49 50  1  0  0  0
 49 53  1  0  0  0
 49 64  1  0  0  0
 49120  1  0  0  0
 50 51  1  0  0  0
 50121  1  0  0  0
 50122  1  0  0  0
 51 52  1  0  0  0
 51123  1  0  0  0
 51124  1  0  0  0
 52125  1  0  0  0
 52126  1  0  0  0
 53 54  1  0  0  0
 54 55  2  0  0  0
 54127  1  0  0  0
 55 57  1  0  0  0
 55128  1  0  0  0
 56 69  2  0  0  0
 57 58  2  0  0  0
 57129  1  0  0  0
 58130  1  0  0  0
 59 60  1  0  0  0
 59 61  1  0  0  0
 59 62  1  0  0  0
 60131  1  0  0  0
 60132  1  0  0  0
 60133  1  0  0  0
 61134  1  0  0  0
 61135  1  0  0  0
 61136  1  0  0  0
 62137  1  0  0  0
 62138  1  0  0  0
 62139  1  0  0  0
 63 65  1  0  0  0
 63140  1  0  0  0
 63141  1  0  0  0
 63142  1  0  0  0
 64143  1  0  0  0
 65144  1  0  0  0
 68 81  1  0  0  0
 71 73  2  0  0  0
 71 83  1  0  0  0
 71145  1  0  0  0
 72 74  1  0  0  0
 72 82  2  0  0  0
 72146  1  0  0  0
 73 78  1  0  0  0
 73 82  1  0  0  0
 74 79  1  0  0  0
 74 83  2  0  0  0
 75 76  1  0  0  0
 75 77  1  0  0  0
 75147  1  0  0  0
 75148  1  0  0  0
 76 77  1  0  0  0
 76149  1  0  0  0
 76150  1  0  0  0
 77 84  1  0  0  0
 77151  1  0  0  0
 78 84  1  0  0  0
 78152  1  0  0  0
 78153  1  0  0  0
 79 85  1  0  0  0
 79154  1  0  0  0
 79155  1  0  0  0
 80 81  1  0  0  0
 80 85  1  0  0  0
 80156  1  0  0  0
 80157  1  0  0  0
 81158  1  0  0  0
 81159  1  0  0  0
 85160  1  0  0  0
 85161  1  0  0  0
M  CHG  1  85   1
M  ISO  4   1 100  68 101  81 101  84 100
M  END
> <chiral flag>
0

> <version>
0

> <s_m_source_file>
/data/baiqing/PycharmProjects/Reinvent-master-3.2/result/LINK_invent/BTK/process_docking_weight1_custom_sum_contain_oxygen_bond_distance_aromatic_linkinvent_7_9_3/rearranged_h_0197.sdf

> <i_m_source_file_index>
50

> <r_mmod_Potential_Energy-OPLS-2005>
37.4570121765137

> <r_mmod_Stretch_Energy-OPLS-2005>
47.9978256225586

> <r_mmod_Bend_Energy-OPLS-2005>
131.668350219727

> <r_mmod_Torsional_Energy-OPLS-2005>
333.245574951172

> <r_mmod_Improper_Torsional_Energy-OPLS-2005>
11.0403432846069

> <r_mmod_Van_der_Waal_Energy-OPLS-2005>
175.409622192383

> <r_mmod_Electrostatic_Energy-OPLS-2005>
-226.779983520508

> <r_mmod_Solvation_Energy-OPLS-2005>
-457.071960449219

> <b_mmod_Minimization_Converged-OPLS-2005>
0

> <r_mmod_RMS_Derivative-OPLS-2005>
8.1348180770874

$$$$
50
                    3D
 Structure written by MMmdl.
156165  0  0  1  0            999 V2000
  -30.6082  -14.6660   20.4745 C   0  0  0  0  0  0
  -30.4284  -12.4077   19.4448 C   0  0  0  0  0  0
  -29.4961  -12.5010   18.2176 C   0  0  0  0  0  0
  -28.0217  -12.3349   18.6368 C   0  0  0  0  0  0
  -27.6421  -13.2169   19.8564 C   0  0  2  0  0  0
  -28.6883  -13.1028   20.9842 C   0  0  0  0  0  0
  -25.2513  -13.8176   20.5711 C   0  0  0  0  0  0
  -24.1789  -13.0439   20.9208 C   0  0  0  0  0  0
  -24.6361  -11.6908   20.8751 C   0  0  0  0  0  0
  -23.9052  -10.4288   21.0424 C   0  0  0  0  0  0
  -24.3613   -9.4209   21.9200 C   0  0  0  0  0  0
  -23.6308   -8.2232   22.0759 C   0  0  0  0  0  0
  -22.4290   -8.0269   21.3551 C   0  0  0  0  0  0
  -21.9918   -9.0235   20.4647 C   0  0  0  0  0  0
  -22.7228  -10.2122   20.3070 C   0  0  0  0  0  0
  -21.6851   -6.0745   22.5298 C   0  0  0  0  0  0
  -21.4010   -6.5660   23.8228 C   0  0  0  0  0  0
  -21.3662   -5.6817   24.9199 C   0  0  0  0  0  0
  -21.6049   -4.3077   24.7239 C   0  0  0  0  0  0
  -21.8821   -3.8156   23.4357 C   0  0  0  0  0  0
  -21.9191   -4.6973   22.3412 C   0  0  0  0  0  0
  -22.7811  -13.5217   21.1881 C   0  0  0  0  0  0
  -22.1655   -4.2166   21.0983 F   0  0  0  0  0  0
  -21.5629   -3.4554   25.7744 F   0  0  0  0  0  0
  -29.9931  -13.4429   20.4036 N   0  0  0  0  0  0
  -26.2926  -12.9344   20.3321 N   0  0  0  0  0  0
  -25.9283  -11.6501   20.5778 N   0  0  0  0  0  0
  -22.0455  -12.8201   22.0426 N   0  0  0  0  0  0
  -25.4243  -15.1895   20.4129 N   0  0  0  0  0  0
  -31.7902  -14.8020   20.1470 O   0  0  0  0  0  0
  -21.6635   -6.8878   21.4260 O   0  0  0  0  0  0
  -22.3504  -14.5529   20.6746 O   0  0  0  0  0  0
  -24.6238  -31.8588   23.1975 C   0  0  0  0  0  0
  -25.9086  -32.4775   23.8305 C   0  0  1  0  0  0
  -27.2317  -27.3243   20.1251 C   0  0  0  0  0  0
  -25.5889  -33.8574   24.2236 N   0  0  0  0  0  0
  -23.4167  -30.4763   21.5428 C   0  0  2  0  0  0
  -24.8627  -28.9158   20.1245 C   0  0  0  0  0  0
  -22.7459  -29.4613   22.4976 C   0  0  0  0  0  0
  -18.0282  -28.1377   22.8491 C   0  0  0  0  0  0
  -24.1488  -36.7319   23.2628 C   0  0  0  0  0  0
  -25.9519  -30.7964   21.3562 C   0  0  0  0  0  0
  -26.0305  -29.4153   20.7143 C   0  0  0  0  0  0
  -27.2203  -28.6328   20.6960 C   0  0  0  0  0  0
  -26.0400  -26.8581   19.5367 C   0  0  0  0  0  0
  -24.8666  -27.6408   19.5317 C   0  0  0  0  0  0
  -23.6299  -29.7952   20.1642 C   0  0  0  0  0  0
  -25.4108  -36.3092   24.0319 C   0  0  1  0  0  0
  -20.5874  -28.3670   23.1317 C   0  0  2  0  0  0
  -20.6770  -26.9399   22.5421 C   0  0  0  0  0  0
  -19.5750  -26.6383   21.5221 C   0  0  0  0  0  0
  -18.1929  -26.7926   22.1626 C   0  0  0  0  0  0
  -19.1529  -28.8846   23.2891 C   0  0  0  0  0  0
  -18.9451  -30.1456   23.8896 C   0  0  0  0  0  0
  -17.6449  -30.6582   24.0571 C   0  0  0  0  0  0
  -25.9053  -34.9460   23.5093 C   0  0  0  0  0  0
  -16.5347  -29.9084   23.6318 C   0  0  0  0  0  0
  -16.7265  -28.6507   23.0325 C   0  0  0  0  0  0
  -26.4450  -31.6579   25.0677 C   0  0  0  0  0  0
  -25.3678  -31.3734   26.1400 C   0  0  0  0  0  0
  -27.0257  -30.3001   24.6088 C   0  0  0  0  0  0
  -27.6001  -32.4293   25.7474 C   0  0  0  0  0  0
  -27.5592  -37.1797   24.8446 C   0  0  0  0  0  0
  -21.4175  -29.3024   22.3714 N   0  0  0  0  0  0
  -26.4287  -37.3794   23.9421 N   0  0  0  0  0  0
  -24.6843  -31.0605   22.0916 N   0  0  0  0  0  0
  -23.4197  -28.8172   23.3058 O   0  0  0  0  0  0
  -28.3923  -26.5501   20.0541 O   0  0  0  0  0  0
  -26.5651  -34.8934   22.4675 O   0  0  0  0  0  0
  -23.5408  -32.1377   23.7325 O   0  0  0  0  0  0
  -29.9917  -22.6803   18.7502 C   0  0  0  0  0  0
  -28.9216  -22.6206   19.6518 C   0  0  0  0  0  0
  -30.7190  -21.5071   18.4938 C   0  0  0  0  0  0
  -29.4117  -20.3231   19.9617 C   0  0  0  0  0  0
  -30.2344  -16.9798   21.5128 C   0  0  0  0  0  0
  -29.1590  -16.6380   19.7629 C   0  0  0  0  0  0
  -29.9136  -17.8756   20.2976 C   0  0  0  0  0  0
  -27.9915  -23.8906   19.7714 C   0  0  0  0  0  0
  -28.4633  -25.1712   20.5931 C   0  0  0  0  0  0
  -31.8317  -21.4686   17.4576 C   0  0  0  0  0  0
  -28.6482  -21.4111   20.2637 N   0  0  0  0  0  0
  -30.4201  -20.3441   19.1029 N   0  0  0  0  0  0
  -29.8164  -15.7585   20.7693 N   0  0  0  0  0  0
  -29.1209  -19.1085   20.5644 O   0  0  0  0  0  0
  -32.2308  -22.6911   17.1019 F   0  0  0  0  0  0
  -31.4233  -20.8104   16.3710 F   0  0  0  0  0  0
  -31.4687  -12.5380   19.1425 H   0  0  0  0  0  0
  -30.3690  -11.4184   19.9006 H   0  0  0  0  0  0
  -29.7615  -11.7430   17.4788 H   0  0  0  0  0  0
  -29.6276  -13.4650   17.7253 H   0  0  0  0  0  0
  -27.8670  -11.2825   18.8795 H   0  0  0  0  0  0
  -27.3657  -12.5531   17.7929 H   0  0  0  0  0  0
  -27.6491  -14.2449   19.4991 H   0  0  0  0  0  0
  -28.7080  -12.0939   21.3987 H   0  0  0  0  0  0
  -28.4355  -13.7668   21.8127 H   0  0  0  0  0  0
  -25.2758   -9.5693   22.4775 H   0  0  0  0  0  0
  -24.0039   -7.4626   22.7455 H   0  0  0  0  0  0
  -21.0875   -8.8738   19.8930 H   0  0  0  0  0  0
  -22.3700  -10.9657   19.6174 H   0  0  0  0  0  0
  -21.2000   -7.6166   23.9738 H   0  0  0  0  0  0
  -21.1487   -6.0544   25.9107 H   0  0  0  0  0  0
  -22.0593   -2.7621   23.2849 H   0  0  0  0  0  0
  -22.4087  -11.9857   22.4800 H   0  0  0  0  0  0
  -21.1056  -13.1188   22.2600 H   0  0  0  0  0  0
  -24.6677  -15.8537   20.5365 H   0  0  0  0  0  0
  -26.2929  -15.6239   20.1311 H   0  0  0  0  0  0
  -26.7166  -32.5455   23.1065 H   0  0  0  0  0  0
  -24.9969  -33.9702   25.0333 H   0  0  0  0  0  0
  -22.7096  -31.2954   21.3940 H   0  0  0  0  0  0
  -23.3758  -35.9642   23.3242 H   0  0  0  0  0  0
  -24.3593  -36.9004   22.2057 H   0  0  0  0  0  0
  -23.7225  -37.6496   23.6688 H   0  0  0  0  0  0
  -26.0602  -31.5496   20.5747 H   0  0  0  0  0  0
  -26.8422  -30.8673   21.9694 H   0  0  0  0  0  0
  -28.1287  -29.0261   21.1312 H   0  0  0  0  0  0
  -26.0152  -25.8849   19.0697 H   0  0  0  0  0  0
  -23.9670  -27.2480   19.0785 H   0  0  0  0  0  0
  -23.7465  -30.5621   19.3976 H   0  0  0  0  0  0
  -22.7503  -29.2184   19.8706 H   0  0  0  0  0  0
  -25.1281  -36.1937   25.0812 H   0  0  0  0  0  0
  -20.9952  -28.3232   24.1446 H   0  0  0  0  0  0
  -20.5691  -26.2269   23.3603 H   0  0  0  0  0  0
  -21.6638  -26.7451   22.1203 H   0  0  0  0  0  0
  -19.6912  -25.6302   21.1233 H   0  0  0  0  0  0
  -19.6687  -27.3208   20.6766 H   0  0  0  0  0  0
  -17.4196  -26.6677   21.4023 H   0  0  0  0  0  0
  -18.0327  -26.0060   22.9018 H   0  0  0  0  0  0
  -19.7921  -30.7283   24.2248 H   0  0  0  0  0  0
  -17.4998  -31.6252   24.5179 H   0  0  0  0  0  0
  -15.5349  -30.2987   23.7626 H   0  0  0  0  0  0
  -15.8670  -28.0845   22.7005 H   0  0  0  0  0  0
  -24.5841  -30.7095   25.7730 H   0  0  0  0  0  0
  -24.8873  -32.2915   26.4793 H   0  0  0  0  0  0
  -25.7979  -30.8923   27.0194 H   0  0  0  0  0  0
  -26.2805  -29.6792   24.1095 H   0  0  0  0  0  0
  -27.3950  -29.7203   25.4560 H   0  0  0  0  0  0
  -27.8677  -30.4282   23.9279 H   0  0  0  0  0  0
  -27.2588  -33.3574   26.2070 H   0  0  0  0  0  0
  -28.3812  -32.6885   25.0317 H   0  0  0  0  0  0
  -28.0661  -31.8403   26.5381 H   0  0  0  0  0  0
  -28.2551  -38.0152   24.7573 H   0  0  0  0  0  0
  -28.1140  -36.2686   24.6156 H   0  0  0  0  0  0
  -27.2327  -37.1321   25.8849 H   0  0  0  0  0  0
  -20.9356  -29.8737   21.6917 H   0  0  0  0  0  0
  -26.0163  -38.2861   24.1456 H   0  0  0  0  0  0
  -30.2187  -23.5969   18.2197 H   0  0  0  0  0  0
  -29.6047  -17.1920   22.3777 H   0  0  0  0  0  0
  -31.2881  -17.0070   21.7938 H   0  0  0  0  0  0
  -29.4031  -16.4052   18.7245 H   0  0  0  0  0  0
  -28.0804  -16.7116   19.8976 H   0  0  0  0  0  0
  -30.8287  -18.0315   19.7240 H   0  0  0  0  0  0
  -27.0181  -23.5731   20.1437 H   0  0  0  0  0  0
  -27.7999  -24.2164   18.7489 H   0  0  0  0  0  0
  -29.5271  -25.0296   20.7892 H   0  0  0  0  0  0
  -28.0018  -25.1544   21.5812 H   0  0  0  0  0  0
  -32.7035  -20.9484   17.8508 H   0  0  0  0  0  0
  1 25  1  0  0  0
  1 30  2  0  0  0
  1 83  1  0  0  0
  2  3  1  0  0  0
  2 25  1  0  0  0
  2 87  1  0  0  0
  2 88  1  0  0  0
  3  4  1  0  0  0
  3 89  1  0  0  0
  3 90  1  0  0  0
  4  5  1  0  0  0
  4 91  1  0  0  0
  4 92  1  0  0  0
  5  6  1  0  0  0
  5 26  1  0  0  0
  5 93  1  0  0  0
  6 25  1  0  0  0
  6 94  1  0  0  0
  6 95  1  0  0  0
  7  8  2  0  0  0
  7 26  1  0  0  0
  7 29  1  0  0  0
  8  9  1  0  0  0
  8 22  1  0  0  0
  9 10  1  0  0  0
  9 27  2  0  0  0
 10 11  2  0  0  0
 10 15  1  0  0  0
 11 12  1  0  0  0
 11 96  1  0  0  0
 12 13  2  0  0  0
 12 97  1  0  0  0
 13 14  1  0  0  0
 13 31  1  0  0  0
 14 15  2  0  0  0
 14 98  1  0  0  0
 15 99  1  0  0  0
 16 17  2  0  0  0
 16 21  1  0  0  0
 16 31  1  0  0  0
 17 18  1  0  0  0
 17100  1  0  0  0
 18 19  2  0  0  0
 18101  1  0  0  0
 19 20  1  0  0  0
 19 24  1  0  0  0
 20 21  2  0  0  0
 20102  1  0  0  0
 21 23  1  0  0  0
 22 28  1  0  0  0
 22 32  2  0  0  0
 26 27  1  0  0  0
 28103  1  0  0  0
 28104  1  0  0  0
 29105  1  0  0  0
 29106  1  0  0  0
 33 34  1  0  0  0
 33 66  1  0  0  0
 33 70  2  0  0  0
 34 36  1  0  0  0
 34 59  1  0  0  0
 34107  1  0  0  0
 35 44  2  0  0  0
 35 45  1  0  0  0
 35 68  1  0  0  0
 36 56  1  0  0  0
 36108  1  0  0  0
 37 39  1  0  0  0
 37 47  1  0  0  0
 37 66  1  0  0  0
 37109  1  0  0  0
 38 43  2  0  0  0
 38 46  1  0  0  0
 38 47  1  0  0  0
 39 64  1  0  0  0
 39 67  2  0  0  0
 40 52  1  0  0  0
 40 53  2  0  0  0
 40 58  1  0  0  0
 41110  1  0  0  0
 41111  1  0  0  0
 41112  1  0  0  0
 41 48  1  0  0  0
 42 43  1  0  0  0
 42 66  1  0  0  0
 42113  1  0  0  0
 42114  1  0  0  0
 43 44  1  0  0  0
 44115  1  0  0  0
 45 46  2  0  0  0
 45116  1  0  0  0
 46117  1  0  0  0
 47118  1  0  0  0
 47119  1  0  0  0
 48 56  1  0  0  0
 48 65  1  0  0  0
 48120  1  0  0  0
 49 50  1  0  0  0
 49 53  1  0  0  0
 49 64  1  0  0  0
 49121  1  0  0  0
 50 51  1  0  0  0
 50122  1  0  0  0
 50123  1  0  0  0
 51 52  1  0  0  0
 51124  1  0  0  0
 51125  1  0  0  0
 52126  1  0  0  0
 52127  1  0  0  0
 53 54  1  0  0  0
 54 55  2  0  0  0
 54128  1  0  0  0
 55 57  1  0  0  0
 55129  1  0  0  0
 56 69  2  0  0  0
 57 58  2  0  0  0
 57130  1  0  0  0
 58131  1  0  0  0
 59 60  1  0  0  0
 59 61  1  0  0  0
 59 62  1  0  0  0
 60132  1  0  0  0
 60133  1  0  0  0
 60134  1  0  0  0
 61135  1  0  0  0
 61136  1  0  0  0
 61137  1  0  0  0
 62138  1  0  0  0
 62139  1  0  0  0
 62140  1  0  0  0
 63 65  1  0  0  0
 63141  1  0  0  0
 63142  1  0  0  0
 63143  1  0  0  0
 64144  1  0  0  0
 65145  1  0  0  0
 68 79  1  0  0  0
 71 72  2  0  0  0
 71 73  1  0  0  0
 71146  1  0  0  0
 72 78  1  0  0  0
 72 81  1  0  0  0
 73 80  1  0  0  0
 73 82  2  0  0  0
 74 81  2  0  0  0
 74 82  1  0  0  0
 74 84  1  0  0  0
 75 77  1  0  0  0
 75 83  1  0  0  0
 75147  1  0  0  0
 75148  1  0  0  0
 76 77  1  0  0  0
 76 83  1  0  0  0
 76149  1  0  0  0
 76150  1  0  0  0
 77 84  1  0  0  0
 77151  1  0  0  0
 78 79  1  0  0  0
 78152  1  0  0  0
 78153  1  0  0  0
 79154  1  0  0  0
 79155  1  0  0  0
 80 85  1  0  0  0
 80 86  1  0  0  0
 80156  1  0  0  0
M  ISO  4   1 100  68 101  79 101  83 100
M  END
> <chiral flag>
0

> <version>
0

> <s_m_source_file>
/data/baiqing/PycharmProjects/Reinvent-master-3.2/result/LINK_invent/BTK/process_docking_weight1_custom_sum_contain_oxygen_bond_distance_aromatic_linkinvent_7_9_3/rearranged_h_0197.sdf

> <i_m_source_file_index>
51

> <r_mmod_Potential_Energy-OPLS-2005>
-254.094436645508

> <r_mmod_Stretch_Energy-OPLS-2005>
83.7617568969727

> <r_mmod_Bend_Energy-OPLS-2005>
167.04621887207

> <r_mmod_Torsional_Energy-OPLS-2005>
294.988891601562

> <r_mmod_Improper_Torsional_Energy-OPLS-2005>
10.6436195373535

> <r_mmod_Van_der_Waal_Energy-OPLS-2005>
146.245971679688

> <r_mmod_Electrostatic_Energy-OPLS-2005>
-782.173095703125

> <r_mmod_Solvation_Energy-OPLS-2005>
-223.481750488281

> <b_mmod_Minimization_Converged-OPLS-2005>
0

> <r_mmod_RMS_Derivative-OPLS-2005>
2.20225596427917

$$$$
51
                    3D
 Structure written by MMmdl.
154162  0  0  1  0            999 V2000
  -30.4301  -15.2322   20.3592 C   0  0  0  0  0  0
  -30.4470  -12.7777   19.5212 C   0  0  0  0  0  0
  -29.5373  -12.5771   18.2823 C   0  0  0  0  0  0
  -28.0805  -12.3130   18.7048 C   0  0  0  0  0  0
  -27.6201  -13.2718   19.8307 C   0  0  2  0  0  0
  -28.6585  -13.4118   20.9653 C   0  0  0  0  0  0
  -25.2423  -13.8241   20.5731 C   0  0  0  0  0  0
  -24.1771  -13.0437   20.9240 C   0  0  0  0  0  0
  -24.6420  -11.6932   20.8755 C   0  0  0  0  0  0
  -23.9109  -10.4292   21.0404 C   0  0  0  0  0  0
  -24.3649   -9.4204   21.9184 C   0  0  0  0  0  0
  -23.6309   -8.2249   22.0759 C   0  0  0  0  0  0
  -22.4288   -8.0289   21.3552 C   0  0  0  0  0  0
  -21.9933   -9.0265   20.4655 C   0  0  0  0  0  0
  -22.7275  -10.2135   20.3059 C   0  0  0  0  0  0
  -21.6862   -6.0737   22.5275 C   0  0  0  0  0  0
  -21.4018   -6.5645   23.8206 C   0  0  0  0  0  0
  -21.3654   -5.6796   24.9169 C   0  0  0  0  0  0
  -21.6046   -4.3058   24.7223 C   0  0  0  0  0  0
  -21.8818   -3.8150   23.4343 C   0  0  0  0  0  0
  -21.9193   -4.6965   22.3400 C   0  0  0  0  0  0
  -22.7785  -13.5196   21.1869 C   0  0  0  0  0  0
  -22.1664   -4.2149   21.0978 F   0  0  0  0  0  0
  -21.5619   -3.4542   25.7735 F   0  0  0  0  0  0
  -29.8976  -13.9124   20.3488 N   0  0  0  0  0  0
  -26.2863  -12.9517   20.3248 N   0  0  0  0  0  0
  -25.9366  -11.6625   20.5746 N   0  0  0  0  0  0
  -22.0444  -12.8188   22.0434 N   0  0  0  0  0  0
  -25.4037  -15.1978   20.4127 N   0  0  0  0  0  0
  -31.6422  -15.2598   20.0885 O   0  0  0  0  0  0
  -21.6651   -6.8886   21.4242 O   0  0  0  0  0  0
  -22.3464  -14.5488   20.6692 O   0  0  0  0  0  0
  -24.6612  -31.8238   23.1707 C   0  0  0  0  0  0
  -25.9293  -32.4590   23.8185 C   0  0  1  0  0  0
  -27.2197  -26.9450   20.1771 C   0  0  0  0  0  0
  -25.5961  -33.8408   24.2084 N   0  0  0  0  0  0
  -23.4758  -30.4370   21.5176 C   0  0  2  0  0  0
  -24.9280  -28.8239   20.1115 C   0  0  0  0  0  0
  -22.7657  -29.4454   22.4758 C   0  0  0  0  0  0
  -18.0326  -28.1407   22.8457 C   0  0  0  0  0  0
  -24.1483  -36.7203   23.2655 C   0  0  0  0  0  0
  -26.0450  -30.6348   21.3983 C   0  0  0  0  0  0
  -26.1116  -29.2276   20.7414 C   0  0  0  0  0  0
  -27.2535  -28.3100   20.7453 C   0  0  0  0  0  0
  -26.0049  -26.6856   19.5052 C   0  0  0  0  0  0
  -24.8980  -27.5725   19.4746 C   0  0  0  0  0  0
  -23.7153  -29.7521   20.1438 C   0  0  0  0  0  0
  -25.4123  -36.2969   24.0312 C   0  0  1  0  0  0
  -20.5951  -28.3755   23.1166 C   0  0  2  0  0  0
  -20.6796  -26.9434   22.5387 C   0  0  0  0  0  0
  -19.5774  -26.6365   21.5200 C   0  0  0  0  0  0
  -18.1959  -26.7938   22.1608 C   0  0  0  0  0  0
  -19.1591  -28.8898   23.2806 C   0  0  0  0  0  0
  -18.9511  -30.1483   23.8846 C   0  0  0  0  0  0
  -17.6507  -30.6595   24.0554 C   0  0  0  0  0  0
  -25.9089  -34.9351   23.5020 C   0  0  0  0  0  0
  -16.5394  -29.9089   23.6342 C   0  0  0  0  0  0
  -16.7312  -28.6508   23.0359 C   0  0  0  0  0  0
  -26.4546  -31.6542   25.0717 C   0  0  0  0  0  0
  -25.3677  -31.3798   26.1382 C   0  0  0  0  0  0
  -27.0461  -30.2913   24.6449 C   0  0  0  0  0  0
  -27.6036  -32.4366   25.7510 C   0  0  0  0  0  0
  -27.5557  -37.1763   24.8475 C   0  0  0  0  0  0
  -21.4328  -29.3058   22.3516 N   0  0  0  0  0  0
  -26.4270  -37.3698   23.9412 N   0  0  0  0  0  0
  -24.7492  -30.9922   22.0824 N   0  0  0  0  0  0
  -23.4211  -28.8013   23.2987 O   0  0  0  0  0  0
  -28.2387  -25.8619   20.2439 O   0  0  0  0  0  0
  -26.5701  -34.8884   22.4612 O   0  0  0  0  0  0
  -23.5680  -32.1205   23.6794 O   0  0  0  0  0  0
  -29.9663  -20.2187   19.4514 C   0  0  0  0  0  0
  -29.1147  -21.1002   20.2524 C   0  0  0  0  0  0
  -28.4946  -20.1469   21.1587 C   0  0  0  0  0  0
  -29.5455  -17.9966   20.4330 C   0  0  0  0  0  0
  -28.3600  -20.8811   23.5677 C   0  0  0  0  0  0
  -30.3062  -23.2854   19.3421 C   0  0  0  0  0  0
  -27.5917  -20.6693   22.2578 C   0  0  0  0  0  0
  -28.0156  -24.2333   20.1399 C   0  0  0  0  0  0
  -29.1613  -22.8630   20.2793 C   0  0  1  0  0  0
  -30.1684  -18.8110   19.5307 N   0  0  0  0  0  0
  -28.6877  -18.7370   21.2106 N   0  0  0  0  0  0
  -29.6072  -16.4464   20.5403 N   0  0  0  0  0  0
  -31.4672  -12.9778   19.1912 H   0  0  0  0  0  0
  -30.5084  -11.8613   20.1098 H   0  0  0  0  0  0
  -29.9053  -11.7545   17.6669 H   0  0  0  0  0  0
  -29.5783  -13.4701   17.6569 H   0  0  0  0  0  0
  -28.0179  -11.2810   19.0526 H   0  0  0  0  0  0
  -27.4149  -12.3876   17.8441 H   0  0  0  0  0  0
  -27.5453  -14.2490   19.3522 H   0  0  0  0  0  0
  -28.8189  -12.4649   21.4821 H   0  0  0  0  0  0
  -28.3109  -14.1189   21.7197 H   0  0  0  0  0  0
  -25.2793   -9.5673   22.4756 H   0  0  0  0  0  0
  -24.0004   -7.4648   22.7491 H   0  0  0  0  0  0
  -21.0854   -8.8797   19.8971 H   0  0  0  0  0  0
  -22.3737  -10.9676   19.6166 H   0  0  0  0  0  0
  -21.2020   -7.6153   23.9708 H   0  0  0  0  0  0
  -21.1472   -6.0530   25.9071 H   0  0  0  0  0  0
  -22.0601   -2.7612   23.2847 H   0  0  0  0  0  0
  -22.4083  -11.9862   22.4829 H   0  0  0  0  0  0
  -21.1063  -13.1199   22.2640 H   0  0  0  0  0  0
  -24.6219  -15.8377   20.5030 H   0  0  0  0  0  0
  -26.2297  -15.6400   20.0318 H   0  0  0  0  0  0
  -26.7364  -32.5121   23.0901 H   0  0  0  0  0  0
  -25.0090  -33.9502   25.0221 H   0  0  0  0  0  0
  -22.7896  -31.2688   21.3439 H   0  0  0  0  0  0
  -23.3755  -35.9529   23.3315 H   0  0  0  0  0  0
  -24.3553  -36.8838   22.2069 H   0  0  0  0  0  0
  -23.7233  -37.6389   23.6706 H   0  0  0  0  0  0
  -26.2274  -31.3765   20.6200 H   0  0  0  0  0  0
  -26.9052  -30.6860   22.0547 H   0  0  0  0  0  0
  -28.1537  -28.6186   21.2577 H   0  0  0  0  0  0
  -25.8788  -25.7305   19.0171 H   0  0  0  0  0  0
  -23.9981  -27.2560   18.9662 H   0  0  0  0  0  0
  -23.8739  -30.5201   19.3854 H   0  0  0  0  0  0
  -22.8252  -29.2077   19.8243 H   0  0  0  0  0  0
  -25.1313  -36.1780   25.0807 H   0  0  0  0  0  0
  -21.0057  -28.3366   24.1280 H   0  0  0  0  0  0
  -20.5641  -26.2394   23.3634 H   0  0  0  0  0  0
  -21.6663  -26.7374   22.1218 H   0  0  0  0  0  0
  -19.6937  -25.6262   21.1266 H   0  0  0  0  0  0
  -19.6714  -27.3140   20.6706 H   0  0  0  0  0  0
  -17.4221  -26.6680   21.4017 H   0  0  0  0  0  0
  -18.0360  -26.0088   22.9014 H   0  0  0  0  0  0
  -19.8001  -30.7301   24.2192 H   0  0  0  0  0  0
  -17.5075  -31.6269   24.5165 H   0  0  0  0  0  0
  -15.5403  -30.2980   23.7692 H   0  0  0  0  0  0
  -15.8711  -28.0807   22.7107 H   0  0  0  0  0  0
  -24.5872  -30.7125   25.7694 H   0  0  0  0  0  0
  -24.8858  -32.3009   26.4676 H   0  0  0  0  0  0
  -25.7915  -30.9053   27.0244 H   0  0  0  0  0  0
  -26.3146  -29.6577   24.1418 H   0  0  0  0  0  0
  -27.3971  -29.7280   25.5107 H   0  0  0  0  0  0
  -27.9083  -30.4111   23.9886 H   0  0  0  0  0  0
  -27.2599  -33.3720   26.1938 H   0  0  0  0  0  0
  -28.3913  -32.6837   25.0383 H   0  0  0  0  0  0
  -28.0628  -31.8599   26.5548 H   0  0  0  0  0  0
  -28.2571  -38.0058   24.7475 H   0  0  0  0  0  0
  -28.1052  -36.2576   24.6352 H   0  0  0  0  0  0
  -27.2278  -37.1462   25.8882 H   0  0  0  0  0  0
  -20.9578  -29.8784   21.6675 H   0  0  0  0  0  0
  -26.0125  -38.2760   24.1411 H   0  0  0  0  0  0
  -30.5911  -20.6747   18.6979 H   0  0  0  0  0  0
  -27.6950  -21.2237   24.3596 H   0  0  0  0  0  0
  -29.1478  -21.6242   23.4426 H   0  0  0  0  0  0
  -28.8257  -19.9526   23.8985 H   0  0  0  0  0  0
  -31.2421  -22.7820   19.5849 H   0  0  0  0  0  0
  -30.5024  -24.3565   19.4081 H   0  0  0  0  0  0
  -30.0616  -23.0680   18.3013 H   0  0  0  0  0  0
  -26.7789  -19.9600   22.4178 H   0  0  0  0  0  0
  -27.1216  -21.5992   21.9380 H   0  0  0  0  0  0
  -27.2358  -24.0276   20.8731 H   0  0  0  0  0  0
  -27.5229  -24.0936   19.1779 H   0  0  0  0  0  0
  -29.5501  -23.0207   21.2859 H   0  0  0  0  0  0
  -28.7184  -16.1285   20.8877 H   0  0  0  0  0  0
  1 25  1  0  0  0
  1 30  2  0  0  0
  1 82  1  0  0  0
  2  3  1  0  0  0
  2 25  1  0  0  0
  2 83  1  0  0  0
  2 84  1  0  0  0
  3  4  1  0  0  0
  3 85  1  0  0  0
  3 86  1  0  0  0
  4  5  1  0  0  0
  4 87  1  0  0  0
  4 88  1  0  0  0
  5  6  1  0  0  0
  5 26  1  0  0  0
  5 89  1  0  0  0
  6 25  1  0  0  0
  6 90  1  0  0  0
  6 91  1  0  0  0
  7  8  2  0  0  0
  7 26  1  0  0  0
  7 29  1  0  0  0
  8  9  1  0  0  0
  8 22  1  0  0  0
  9 10  1  0  0  0
  9 27  2  0  0  0
 10 11  2  0  0  0
 10 15  1  0  0  0
 11 12  1  0  0  0
 11 92  1  0  0  0
 12 13  2  0  0  0
 12 93  1  0  0  0
 13 14  1  0  0  0
 13 31  1  0  0  0
 14 15  2  0  0  0
 14 94  1  0  0  0
 15 95  1  0  0  0
 16 17  2  0  0  0
 16 21  1  0  0  0
 16 31  1  0  0  0
 17 18  1  0  0  0
 17 96  1  0  0  0
 18 19  2  0  0  0
 18 97  1  0  0  0
 19 20  1  0  0  0
 19 24  1  0  0  0
 20 21  2  0  0  0
 20 98  1  0  0  0
 21 23  1  0  0  0
 22 28  1  0  0  0
 22 32  2  0  0  0
 26 27  1  0  0  0
 28 99  1  0  0  0
 28100  1  0  0  0
 29101  1  0  0  0
 29102  1  0  0  0
 33 34  1  0  0  0
 33 66  1  0  0  0
 33 70  2  0  0  0
 34 36  1  0  0  0
 34 59  1  0  0  0
 34103  1  0  0  0
 35 44  2  0  0  0
 35 45  1  0  0  0
 35 68  1  0  0  0
 36 56  1  0  0  0
 36104  1  0  0  0
 37 39  1  0  0  0
 37 47  1  0  0  0
 37 66  1  0  0  0
 37105  1  0  0  0
 38 43  2  0  0  0
 38 46  1  0  0  0
 38 47  1  0  0  0
 39 64  1  0  0  0
 39 67  2  0  0  0
 40 52  1  0  0  0
 40 53  2  0  0  0
 40 58  1  0  0  0
 41106  1  0  0  0
 41107  1  0  0  0
 41108  1  0  0  0
 41 48  1  0  0  0
 42 43  1  0  0  0
 42 66  1  0  0  0
 42109  1  0  0  0
 42110  1  0  0  0
 43 44  1  0  0  0
 44111  1  0  0  0
 45 46  2  0  0  0
 45112  1  0  0  0
 46113  1  0  0  0
 47114  1  0  0  0
 47115  1  0  0  0
 48 56  1  0  0  0
 48 65  1  0  0  0
 48116  1  0  0  0
 49 50  1  0  0  0
 49 53  1  0  0  0
 49 64  1  0  0  0
 49117  1  0  0  0
 50 51  1  0  0  0
 50118  1  0  0  0
 50119  1  0  0  0
 51 52  1  0  0  0
 51120  1  0  0  0
 51121  1  0  0  0
 52122  1  0  0  0
 52123  1  0  0  0
 53 54  1  0  0  0
 54 55  2  0  0  0
 54124  1  0  0  0
 55 57  1  0  0  0
 55125  1  0  0  0
 56 69  2  0  0  0
 57 58  2  0  0  0
 57126  1  0  0  0
 58127  1  0  0  0
 59 60  1  0  0  0
 59 61  1  0  0  0
 59 62  1  0  0  0
 60128  1  0  0  0
 60129  1  0  0  0
 60130  1  0  0  0
 61131  1  0  0  0
 61132  1  0  0  0
 61133  1  0  0  0
 62134  1  0  0  0
 62135  1  0  0  0
 62136  1  0  0  0
 63 65  1  0  0  0
 63137  1  0  0  0
 63138  1  0  0  0
 63139  1  0  0  0
 64140  1  0  0  0
 65141  1  0  0  0
 68 78  1  0  0  0
 71 72  2  0  0  0
 71 80  1  0  0  0
 71142  1  0  0  0
 72 73  1  0  0  0
 72 79  1  0  0  0
 73 77  1  0  0  0
 73 81  2  0  0  0
 74 80  2  0  0  0
 74 81  1  0  0  0
 74 82  1  0  0  0
 75 77  1  0  0  0
 75143  1  0  0  0
 75144  1  0  0  0
 75145  1  0  0  0
 76146  1  0  0  0
 76147  1  0  0  0
 76148  1  0  0  0
 76 79  1  0  0  0
 77149  1  0  0  0
 77150  1  0  0  0
 78 79  1  0  0  0
 78151  1  0  0  0
 78152  1  0  0  0
 79153  1  0  0  0
 82154  1  0  0  0
M  ISO  4   1 100  68 101  78 101  82 100
M  END
> <chiral flag>
0

> <version>
0

> <s_m_source_file>
/data/baiqing/PycharmProjects/Reinvent-master-3.2/result/LINK_invent/BTK/process_docking_weight1_custom_sum_contain_oxygen_bond_distance_aromatic_linkinvent_7_9_3/rearranged_h_0197.sdf

> <i_m_source_file_index>
52

> <r_mmod_Potential_Energy-OPLS-2005>
717.673583984375

> <r_mmod_Stretch_Energy-OPLS-2005>
499.57080078125

> <r_mmod_Bend_Energy-OPLS-2005>
448.956451416016

> <r_mmod_Torsional_Energy-OPLS-2005>
214.719421386719

> <r_mmod_Improper_Torsional_Energy-OPLS-2005>
5.80655002593994

> <r_mmod_Van_der_Waal_Energy-OPLS-2005>
130.773696899414

> <r_mmod_Electrostatic_Energy-OPLS-2005>
-773.314880371094

> <r_mmod_Solvation_Energy-OPLS-2005>
-231.954238891602

> <b_mmod_Minimization_Converged-OPLS-2005>
0

> <r_mmod_RMS_Derivative-OPLS-2005>
1.52847266197205

$$$$
52
                    3D
 Structure written by MMmdl.
174184  0  0  1  0            999 V2000
  -30.7357  -14.6899   20.3837 C   0  0  0  0  0  0
  -30.4217  -12.4237   19.4629 C   0  0  0  0  0  0
  -29.5074  -12.4700   18.2200 C   0  0  0  0  0  0
  -28.0510  -12.2759   18.6682 C   0  0  0  0  0  0
  -27.6416  -13.2240   19.8304 C   0  0  2  0  0  0
  -28.6975  -13.2720   20.9580 C   0  0  0  0  0  0
  -25.2519  -13.8169   20.5769 C   0  0  0  0  0  0
  -24.1812  -13.0544   20.9260 C   0  0  0  0  0  0
  -24.6379  -11.6923   20.8907 C   0  0  0  0  0  0
  -23.9211  -10.4307   21.0546 C   0  0  0  0  0  0
  -24.3698   -9.4163   21.9325 C   0  0  0  0  0  0
  -23.6326   -8.2196   22.0898 C   0  0  0  0  0  0
  -22.4326   -8.0277   21.3636 C   0  0  0  0  0  0
  -21.9968   -9.0303   20.4771 C   0  0  0  0  0  0
  -22.7386  -10.2130   20.3213 C   0  0  0  0  0  0
  -21.6855   -6.0712   22.5242 C   0  0  0  0  0  0
  -21.4034   -6.5653   23.8129 C   0  0  0  0  0  0
  -21.3660   -5.6829   24.9090 C   0  0  0  0  0  0
  -21.6053   -4.3110   24.7198 C   0  0  0  0  0  0
  -21.8880   -3.8182   23.4344 C   0  0  0  0  0  0
  -21.9200   -4.6936   22.3359 C   0  0  0  0  0  0
  -22.7765  -13.5320   21.1981 C   0  0  0  0  0  0
  -22.1733   -4.2153   21.0925 F   0  0  0  0  0  0
  -21.5541   -3.4619   25.7687 F   0  0  0  0  0  0
  -29.9959  -13.5393   20.3283 N   0  0  0  0  0  0
  -26.2997  -12.9460   20.3256 N   0  0  0  0  0  0
  -25.9308  -11.6611   20.5764 N   0  0  0  0  0  0
  -22.0549  -12.8301   22.0541 N   0  0  0  0  0  0
  -25.4464  -15.1968   20.4149 N   0  0  0  0  0  0
  -31.9619  -14.6254   20.2455 O   0  0  0  0  0  0
  -21.6661   -6.8921   21.4273 O   0  0  0  0  0  0
  -22.3349  -14.5705   20.6834 O   0  0  0  0  0  0
  -24.6202  -31.8644   23.2033 C   0  0  0  0  0  0
  -25.9061  -32.4750   23.8357 C   0  0  1  0  0  0
  -27.1673  -27.3548   20.0954 C   0  0  0  0  0  0
  -25.5946  -33.8564   24.2322 N   0  0  0  0  0  0
  -23.4016  -30.5102   21.5445 C   0  0  2  0  0  0
  -24.8304  -28.9791   20.0927 C   0  0  0  0  0  0
  -22.7310  -29.4758   22.4794 C   0  0  0  0  0  0
  -18.0256  -28.1255   22.8808 C   0  0  0  0  0  0
  -24.1494  -36.7298   23.2661 C   0  0  0  0  0  0
  -25.9465  -30.8128   21.3586 C   0  0  0  0  0  0
  -26.0009  -29.4458   20.7073 C   0  0  0  0  0  0
  -27.1682  -28.6360   20.7097 C   0  0  0  0  0  0
  -25.9970  -26.9694   19.4089 C   0  0  0  0  0  0
  -24.8291  -27.7476   19.4230 C   0  0  0  0  0  0
  -23.6008  -29.8628   20.1513 C   0  0  0  0  0  0
  -25.4114  -36.3079   24.0372 C   0  0  1  0  0  0
  -20.5866  -28.3406   23.0967 C   0  0  2  0  0  0
  -20.6734  -26.9359   22.4627 C   0  0  0  0  0  0
  -19.5058  -26.6138   21.5160 C   0  0  0  0  0  0
  -18.1595  -26.7571   22.2275 C   0  0  0  0  0  0
  -19.1631  -28.8757   23.2805 C   0  0  0  0  0  0
  -18.9636  -30.1465   23.8637 C   0  0  0  0  0  0
  -17.6641  -30.6673   24.0482 C   0  0  0  0  0  0
  -25.9028  -34.9400   23.5152 C   0  0  0  0  0  0
  -16.5535  -29.9152   23.6385 C   0  0  0  0  0  0
  -16.7349  -28.6464   23.0560 C   0  0  0  0  0  0
  -26.4382  -31.6534   25.0721 C   0  0  0  0  0  0
  -25.3706  -31.3718   26.1556 C   0  0  0  0  0  0
  -27.0315  -30.3031   24.6143 C   0  0  0  0  0  0
  -27.5960  -32.4166   25.7499 C   0  0  0  0  0  0
  -27.5571  -37.1857   24.8504 C   0  0  0  0  0  0
  -21.4061  -29.2874   22.3344 N   0  0  0  0  0  0
  -26.4287  -37.3817   23.9409 N   0  0  0  0  0  0
  -24.6836  -31.0765   22.0927 N   0  0  0  0  0  0
  -23.4003  -28.8492   23.3086 O   0  0  0  0  0  0
  -28.2228  -26.4524   20.2200 O   0  0  0  0  0  0
  -26.5597  -34.8894   22.4733 O   0  0  0  0  0  0
  -23.5410  -32.1388   23.7446 O   0  0  0  0  0  0
  -28.3051  -19.5749   19.4169 C   0  0  0  0  0  0
  -28.1148  -16.4491   17.4395 C   0  0  0  0  0  0
  -28.2060  -19.0684   20.6867 C   0  0  0  0  0  0
  -28.5799  -18.7741   18.2901 C   0  0  0  0  0  0
  -28.2221  -17.5113   21.0429 C   0  0  0  0  0  0
  -27.6771  -19.5299   23.2631 C   0  0  0  0  0  0
  -26.5379  -19.9760   22.3916 C   0  0  0  0  0  0
  -29.5974  -16.7552   21.2443 C   0  0  0  0  0  0
  -30.7962  -16.8954   19.2003 C   0  0  0  0  0  0
  -30.6385  -18.2503   17.0000 C   0  0  0  0  0  0
  -30.5406  -16.8550   17.6698 C   0  0  2  0  0  0
  -27.9420  -20.0357   21.8283 C   0  0  0  0  0  0
  -28.6303  -21.4487   21.7843 C   0  0  0  0  0  0
  -28.6763  -23.9406   20.9987 C   0  0  0  0  0  0
  -27.8041  -25.0425   20.2840 C   0  0  0  0  0  0
  -29.3554  -16.0918   17.2660 N   0  0  0  0  0  0
  -27.9033  -17.6328   18.1195 N   0  0  0  0  0  0
  -30.1198  -15.9113   20.1238 N   0  0  0  0  0  0
  -29.5544  -19.1446   17.4419 N   0  3  0  0  0  0
  -28.0124  -22.5598   20.9623 N   0  3  0  0  0  0
  -31.4788  -12.4744   19.1729 H   0  0  0  0  0  0
  -30.2789  -11.4913   20.0048 H   0  0  0  0  0  0
  -29.8142  -11.6821   17.5364 H   0  0  0  0  0  0
  -29.5910  -13.4253   17.6866 H   0  0  0  0  0  0
  -27.9527  -11.2545   19.0359 H   0  0  0  0  0  0
  -27.3749  -12.3979   17.8169 H   0  0  0  0  0  0
  -27.6153  -14.2273   19.4130 H   0  0  0  0  0  0
  -28.7409  -12.3774   21.5819 H   0  0  0  0  0  0
  -28.4342  -14.1083   21.6149 H   0  0  0  0  0  0
  -25.2861   -9.5631   22.4899 H   0  0  0  0  0  0
  -24.0112   -7.4613   22.7607 H   0  0  0  0  0  0
  -21.0902   -8.8950   19.9003 H   0  0  0  0  0  0
  -22.4047  -10.9754   19.6352 H   0  0  0  0  0  0
  -21.2139   -7.6206   23.9590 H   0  0  0  0  0  0
  -21.1367   -6.0594   25.8962 H   0  0  0  0  0  0
  -22.0681   -2.7696   23.2820 H   0  0  0  0  0  0
  -22.4189  -11.9854   22.4898 H   0  0  0  0  0  0
  -21.1068  -13.1205   22.2681 H   0  0  0  0  0  0
  -24.8041  -15.8738   20.8002 H   0  0  0  0  0  0
  -26.3186  -15.6219   20.1377 H   0  0  0  0  0  0
  -26.6997  -32.5365   23.0997 H   0  0  0  0  0  0
  -25.0141  -33.9712   25.0488 H   0  0  0  0  0  0
  -22.7211  -31.3535   21.4145 H   0  0  0  0  0  0
  -23.3701  -35.9677   23.3291 H   0  0  0  0  0  0
  -24.3620  -36.8881   22.2053 H   0  0  0  0  0  0
  -23.7216  -37.6542   23.6616 H   0  0  0  0  0  0
  -26.1157  -31.5711   20.5948 H   0  0  0  0  0  0
  -26.8296  -30.8406   21.9827 H   0  0  0  0  0  0
  -28.0478  -28.9765   21.2263 H   0  0  0  0  0  0
  -25.9414  -26.0438   18.8595 H   0  0  0  0  0  0
  -23.9431  -27.3972   18.9053 H   0  0  0  0  0  0
  -23.6934  -30.6625   19.4112 H   0  0  0  0  0  0
  -22.6969  -29.3175   19.8599 H   0  0  0  0  0  0
  -25.1275  -36.1984   25.0864 H   0  0  0  0  0  0
  -20.9767  -28.2979   24.1162 H   0  0  0  0  0  0
  -20.7076  -26.1669   23.2324 H   0  0  0  0  0  0
  -21.6077  -26.8141   21.9045 H   0  0  0  0  0  0
  -19.5168  -27.2911   20.6572 H   0  0  0  0  0  0
  -19.6207  -25.6113   21.1082 H   0  0  0  0  0  0
  -18.1125  -26.0071   23.0284 H   0  0  0  0  0  0
  -17.3335  -26.5255   21.5406 H   0  0  0  0  0  0
  -19.8227  -30.7372   24.1521 H   0  0  0  0  0  0
  -17.5170  -31.6564   24.4748 H   0  0  0  0  0  0
  -15.5564  -30.3129   23.7318 H   0  0  0  0  0  0
  -15.8921  -28.0583   22.7428 H   0  0  0  0  0  0
  -24.5747  -30.7194   25.8000 H   0  0  0  0  0  0
  -24.9067  -32.2878   26.5187 H   0  0  0  0  0  0
  -25.8057  -30.8747   27.0239 H   0  0  0  0  0  0
  -26.3023  -29.6728   24.1058 H   0  0  0  0  0  0
  -27.4006  -29.7310   25.4660 H   0  0  0  0  0  0
  -27.8762  -30.4458   23.9431 H   0  0  0  0  0  0
  -27.2687  -33.3487   26.2160 H   0  0  0  0  0  0
  -28.3766  -32.6699   25.0290 H   0  0  0  0  0  0
  -28.0577  -31.8150   26.5375 H   0  0  0  0  0  0
  -28.2697  -38.0082   24.7556 H   0  0  0  0  0  0
  -28.0979  -36.2647   24.6276 H   0  0  0  0  0  0
  -27.2374  -37.1457   25.8958 H   0  0  0  0  0  0
  -20.9523  -29.7737   21.5750 H   0  0  0  0  0  0
  -26.0134  -38.2919   24.1338 H   0  0  0  0  0  0
  -28.2781  -20.6418   19.1995 H   0  0  0  0  0  0
  -27.2302  -15.8906   17.0959 H   0  0  0  0  0  0
  -27.4807  -16.9359   20.5000 H   0  0  0  0  0  0
  -27.7263  -17.3196   21.9840 H   0  0  0  0  0  0
  -27.6463  -18.4875   23.5797 H   0  0  0  0  0  0
  -27.9834  -20.2280   24.0409 H   0  0  0  0  0  0
  -26.0638  -20.9174   22.6573 H   0  0  0  0  0  0
  -25.8691  -19.2885   21.8697 H   0  0  0  0  0  0
  -29.5492  -16.1586   22.1497 H   0  0  0  0  0  0
  -30.3519  -17.4857   21.5348 H   0  0  0  0  0  0
  -31.8703  -16.7454   19.2729 H   0  0  0  0  0  0
  -30.7242  -17.9458   19.5228 H   0  0  0  0  0  0
  -30.7119  -18.1659   15.8993 H   0  0  0  0  0  0
  -31.5492  -18.7467   17.3562 H   0  0  0  0  0  0
  -31.4345  -16.3758   17.2442 H   0  0  0  0  0  0
  -29.6942  -21.3212   21.5926 H   0  0  0  0  0  0
  -28.5485  -21.8300   22.8045 H   0  0  0  0  0  0
  -28.8531  -24.2632   22.0259 H   0  0  0  0  0  0
  -29.6564  -23.9057   20.5213 H   0  0  0  0  0  0
  -26.8395  -25.0150   20.7920 H   0  0  0  0  0  0
  -27.6354  -24.6567   19.2818 H   0  0  0  0  0  0
  -26.9220  -17.8053   18.2885 H   0  0  0  0  0  0
  -29.6553  -20.1308   17.2713 H   0  0  0  0  0  0
  -27.0817  -22.6470   21.3429 H   0  0  0  0  0  0
  -27.8774  -22.2893   20.0023 H   0  0  0  0  0  0
  1 25  1  0  0  0
  1 30  2  0  0  0
  1 88  1  0  0  0
  2  3  1  0  0  0
  2 25  1  0  0  0
  2 91  1  0  0  0
  2 92  1  0  0  0
  3  4  1  0  0  0
  3 93  1  0  0  0
  3 94  1  0  0  0
  4  5  1  0  0  0
  4 95  1  0  0  0
  4 96  1  0  0  0
  5  6  1  0  0  0
  5 26  1  0  0  0
  5 97  1  0  0  0
  6 25  1  0  0  0
  6 98  1  0  0  0
  6 99  1  0  0  0
  7  8  2  0  0  0
  7 26  1  0  0  0
  7 29  1  0  0  0
  8  9  1  0  0  0
  8 22  1  0  0  0
  9 10  1  0  0  0
  9 27  2  0  0  0
 10 11  2  0  0  0
 10 15  1  0  0  0
 11 12  1  0  0  0
 11100  1  0  0  0
 12 13  2  0  0  0
 12101  1  0  0  0
 13 14  1  0  0  0
 13 31  1  0  0  0
 14 15  2  0  0  0
 14102  1  0  0  0
 15103  1  0  0  0
 16 17  2  0  0  0
 16 21  1  0  0  0
 16 31  1  0  0  0
 17 18  1  0  0  0
 17104  1  0  0  0
 18 19  2  0  0  0
 18105  1  0  0  0
 19 20  1  0  0  0
 19 24  1  0  0  0
 20 21  2  0  0  0
 20106  1  0  0  0
 21 23  1  0  0  0
 22 28  1  0  0  0
 22 32  2  0  0  0
 26 27  1  0  0  0
 28107  1  0  0  0
 28108  1  0  0  0
 29109  1  0  0  0
 29110  1  0  0  0
 33 34  1  0  0  0
 33 66  1  0  0  0
 33 70  2  0  0  0
 34 36  1  0  0  0
 34 59  1  0  0  0
 34111  1  0  0  0
 35 44  2  0  0  0
 35 45  1  0  0  0
 35 68  1  0  0  0
 36 56  1  0  0  0
 36112  1  0  0  0
 37 39  1  0  0  0
 37 47  1  0  0  0
 37 66  1  0  0  0
 37113  1  0  0  0
 38 43  2  0  0  0
 38 46  1  0  0  0
 38 47  1  0  0  0
 39 64  1  0  0  0
 39 67  2  0  0  0
 40 52  1  0  0  0
 40 53  2  0  0  0
 40 58  1  0  0  0
 41114  1  0  0  0
 41115  1  0  0  0
 41116  1  0  0  0
 41 48  1  0  0  0
 42 43  1  0  0  0
 42 66  1  0  0  0
 42117  1  0  0  0
 42118  1  0  0  0
 43 44  1  0  0  0
 44119  1  0  0  0
 45 46  2  0  0  0
 45120  1  0  0  0
 46121  1  0  0  0
 47122  1  0  0  0
 47123  1  0  0  0
 48 56  1  0  0  0
 48 65  1  0  0  0
 48124  1  0  0  0
 49 50  1  0  0  0
 49 53  1  0  0  0
 49 64  1  0  0  0
 49125  1  0  0  0
 50 51  1  0  0  0
 50126  1  0  0  0
 50127  1  0  0  0
 51 52  1  0  0  0
 51128  1  0  0  0
 51129  1  0  0  0
 52130  1  0  0  0
 52131  1  0  0  0
 53 54  1  0  0  0
 54 55  2  0  0  0
 54132  1  0  0  0
 55 57  1  0  0  0
 55133  1  0  0  0
 56 69  2  0  0  0
 57 58  2  0  0  0
 57134  1  0  0  0
 58135  1  0  0  0
 59 60  1  0  0  0
 59 61  1  0  0  0
 59 62  1  0  0  0
 60136  1  0  0  0
 60137  1  0  0  0
 60138  1  0  0  0
 61139  1  0  0  0
 61140  1  0  0  0
 61141  1  0  0  0
 62142  1  0  0  0
 62143  1  0  0  0
 62144  1  0  0  0
 63 65  1  0  0  0
 63145  1  0  0  0
 63146  1  0  0  0
 63147  1  0  0  0
 64148  1  0  0  0
 65149  1  0  0  0
 68 85  1  0  0  0
 71 73  2  0  0  0
 71 74  1  0  0  0
 71150  1  0  0  0
 72 86  2  0  0  0
 72 87  1  0  0  0
 72151  1  0  0  0
 73 75  1  0  0  0
 73 82  1  0  0  0
 74 87  1  0  0  0
 74 89  2  0  0  0
 75 78  1  0  0  0
 75152  1  0  0  0
 75153  1  0  0  0
 76 77  1  0  0  0
 76 82  1  0  0  0
 76154  1  0  0  0
 76155  1  0  0  0
 77 82  1  0  0  0
 77156  1  0  0  0
 77157  1  0  0  0
 78 88  1  0  0  0
 78158  1  0  0  0
 78159  1  0  0  0
 79 88  1  0  0  0
 79160  1  0  0  0
 79161  1  0  0  0
 79 81  1  0  0  0
 80 81  1  0  0  0
 80 89  1  0  0  0
 80162  1  0  0  0
 80163  1  0  0  0
 81 86  1  0  0  0
 81164  1  0  0  0
 82 83  1  0  0  0
 83 90  1  0  0  0
 83165  1  0  0  0
 83166  1  0  0  0
 84 85  1  0  0  0
 84 90  1  0  0  0
 84167  1  0  0  0
 84168  1  0  0  0
 85169  1  0  0  0
 85170  1  0  0  0
 87171  1  0  0  0
 89172  1  0  0  0
 90173  1  0  0  0
 90174  1  0  0  0
M  CHG  2  89   1  90   1
M  ISO  4   1 100  68 101  85 101  88 100
M  END
> <chiral flag>
0

> <version>
0

> <s_m_source_file>
/data/baiqing/PycharmProjects/Reinvent-master-3.2/result/LINK_invent/BTK/process_docking_weight1_custom_sum_contain_oxygen_bond_distance_aromatic_linkinvent_7_9_3/rearranged_h_0197.sdf

> <i_m_source_file_index>
53

> <r_mmod_Potential_Energy-OPLS-2005>
296.225036621094

> <r_mmod_Stretch_Energy-OPLS-2005>
96.2533721923828

> <r_mmod_Bend_Energy-OPLS-2005>
261.009948730469

> <r_mmod_Torsional_Energy-OPLS-2005>
473.038177490234

> <r_mmod_Improper_Torsional_Energy-OPLS-2005>
21.4610576629639

> <r_mmod_Van_der_Waal_Energy-OPLS-2005>
161.540390014648

> <r_mmod_Electrostatic_Energy-OPLS-2005>
145.608810424805

> <r_mmod_Solvation_Energy-OPLS-2005>
-952.961120605469

> <b_mmod_Minimization_Converged-OPLS-2005>
0

> <r_mmod_RMS_Derivative-OPLS-2005>
29.557933807373

$$$$
53
                    3D
 Structure written by MMmdl.
167176  0  0  1  0            999 V2000
  -30.7413  -14.4204   20.6315 C   0  0  0  0  0  0
  -30.4167  -12.3047   19.4006 C   0  0  0  0  0  0
  -29.4880  -12.5180   18.1901 C   0  0  0  0  0  0
  -28.0102  -12.3742   18.6072 C   0  0  0  0  0  0
  -27.6598  -13.2067   19.8711 C   0  0  2  0  0  0
  -28.7007  -12.9696   20.9869 C   0  0  0  0  0  0
  -25.2567  -13.8156   20.5663 C   0  0  0  0  0  0
  -24.1817  -13.0456   20.9136 C   0  0  0  0  0  0
  -24.6356  -11.6915   20.8700 C   0  0  0  0  0  0
  -23.9012  -10.4312   21.0382 C   0  0  0  0  0  0
  -24.3585   -9.4228   21.9161 C   0  0  0  0  0  0
  -23.6294   -8.2240   22.0732 C   0  0  0  0  0  0
  -22.4284   -8.0259   21.3509 C   0  0  0  0  0  0
  -21.9893   -9.0224   20.4619 C   0  0  0  0  0  0
  -22.7178  -10.2129   20.3032 C   0  0  0  0  0  0
  -21.6860   -6.0737   22.5277 C   0  0  0  0  0  0
  -21.4004   -6.5641   23.8208 C   0  0  0  0  0  0
  -21.3667   -5.6777   24.9165 C   0  0  0  0  0  0
  -21.6070   -4.3049   24.7207 C   0  0  0  0  0  0
  -21.8811   -3.8142   23.4328 C   0  0  0  0  0  0
  -21.9183   -4.6963   22.3394 C   0  0  0  0  0  0
  -22.7832  -13.5251   21.1852 C   0  0  0  0  0  0
  -22.1648   -4.2152   21.0964 F   0  0  0  0  0  0
  -21.5641   -3.4530   25.7728 F   0  0  0  0  0  0
  -30.0341  -13.2743   20.4388 N   0  0  0  0  0  0
  -26.3003  -12.9329   20.3314 N   0  0  0  0  0  0
  -25.9282  -11.6495   20.5722 N   0  0  0  0  0  0
  -22.0454  -12.8259   22.0406 N   0  0  0  0  0  0
  -25.4299  -15.1887   20.4105 N   0  0  0  0  0  0
  -31.8066  -14.6557   20.0560 O   0  0  0  0  0  0
  -21.6628   -6.8879   21.4245 O   0  0  0  0  0  0
  -22.3521  -14.5559   20.6701 O   0  0  0  0  0  0
  -24.6137  -31.8717   23.2117 C   0  0  0  0  0  0
  -25.9038  -32.4828   23.8411 C   0  0  1  0  0  0
  -27.2488  -27.4493   20.1163 C   0  0  0  0  0  0
  -25.5914  -33.8619   24.2346 N   0  0  0  0  0  0
  -23.3996  -30.4964   21.5503 C   0  0  2  0  0  0
  -24.8538  -28.9570   20.1224 C   0  0  0  0  0  0
  -22.7383  -29.4685   22.4978 C   0  0  0  0  0  0
  -18.0280  -28.1363   22.8512 C   0  0  0  0  0  0
  -24.1477  -36.7308   23.2644 C   0  0  0  0  0  0
  -25.9289  -30.8382   21.3662 C   0  0  0  0  0  0
  -26.0076  -29.4682   20.7291 C   0  0  0  0  0  0
  -27.2086  -28.7241   20.7310 C   0  0  0  0  0  0
  -26.0839  -26.9529   19.4966 C   0  0  0  0  0  0
  -24.8863  -27.6967   19.4988 C   0  0  0  0  0  0
  -23.6127  -29.8235   20.1661 C   0  0  0  0  0  0
  -25.4090  -36.3102   24.0355 C   0  0  1  0  0  0
  -20.5879  -28.3660   23.1312 C   0  0  2  0  0  0
  -20.6759  -26.9394   22.5408 C   0  0  0  0  0  0
  -19.5728  -26.6379   21.5207 C   0  0  0  0  0  0
  -18.1918  -26.7914   22.1635 C   0  0  0  0  0  0
  -19.1535  -28.8830   23.2920 C   0  0  0  0  0  0
  -18.9459  -30.1446   23.8902 C   0  0  0  0  0  0
  -17.6464  -30.6577   24.0565 C   0  0  0  0  0  0
  -25.9038  -34.9469   23.5150 C   0  0  0  0  0  0
  -16.5356  -29.9066   23.6350 C   0  0  0  0  0  0
  -16.7275  -28.6490   23.0363 C   0  0  0  0  0  0
  -26.4475  -31.6555   25.0697 C   0  0  0  0  0  0
  -25.3757  -31.3661   26.1458 C   0  0  0  0  0  0
  -27.0294  -30.2994   24.6037 C   0  0  0  0  0  0
  -27.6057  -32.4265   25.7459 C   0  0  0  0  0  0
  -27.5578  -37.1806   24.8487 C   0  0  0  0  0  0
  -21.4117  -29.3039   22.3721 N   0  0  0  0  0  0
  -26.4277  -37.3773   23.9449 N   0  0  0  0  0  0
  -24.6646  -31.0849   22.1000 N   0  0  0  0  0  0
  -23.4169  -28.8259   23.3033 O   0  0  0  0  0  0
  -28.3859  -26.6766   20.0247 O   0  0  0  0  0  0
  -26.5586  -34.8924   22.4700 O   0  0  0  0  0  0
  -23.5347  -32.1489   23.7513 O   0  0  0  0  0  0
  -29.4375  -19.2900   20.2146 C   0  0  0  0  0  0
  -30.4258  -20.3005   20.3826 C   0  0  0  0  0  0
  -31.7819  -18.7962   21.4851 C   0  0  0  0  0  0
  -30.7888  -17.7842   21.3639 C   0  0  0  0  0  0
  -27.5001  -18.5651   18.5761 C   0  0  0  0  0  0
  -28.0379  -19.8753   18.0718 C   0  0  0  0  0  0
  -28.1107  -19.5506   19.5515 C   0  0  0  0  0  0
  -33.1028  -18.5776   22.1947 C   0  0  0  0  0  0
  -30.2505  -21.7489   19.9346 C   0  0  0  0  0  0
  -30.9448  -16.4332   22.0755 C   0  0  0  0  0  0
  -29.7522  -22.6793   21.0613 C   0  0  0  0  0  0
  -29.1125  -25.0296   21.6424 C   0  0  0  0  0  0
  -29.1916  -26.5032   21.1930 C   0  0  0  0  0  0
  -29.6194  -18.0348   20.7170 N   0  0  0  0  0  0
  -31.6005  -20.0418   20.9957 N   0  0  0  0  0  0
  -30.2229  -15.2857   21.5126 N   0  0  0  0  0  0
  -29.6296  -24.0907   20.6129 N   0  3  0  0  0  0
  -31.4613  -12.4006   19.0938 H   0  0  0  0  0  0
  -30.3120  -11.2879   19.7856 H   0  0  0  0  0  0
  -29.7284  -11.8058   17.3982 H   0  0  0  0  0  0
  -29.6545  -13.5087   17.7660 H   0  0  0  0  0  0
  -27.8160  -11.3163   18.7925 H   0  0  0  0  0  0
  -27.3603  -12.6508   17.7788 H   0  0  0  0  0  0
  -27.7102  -14.2582   19.5861 H   0  0  0  0  0  0
  -28.6729  -11.9264   21.3097 H   0  0  0  0  0  0
  -28.4537  -13.5544   21.8729 H   0  0  0  0  0  0
  -25.2733   -9.5727   22.4719 H   0  0  0  0  0  0
  -24.0018   -7.4641   22.7454 H   0  0  0  0  0  0
  -21.0811   -8.8712   19.8944 H   0  0  0  0  0  0
  -22.3602  -10.9650   19.6136 H   0  0  0  0  0  0
  -21.1981   -7.6141   23.9712 H   0  0  0  0  0  0
  -21.1516   -6.0502   25.9071 H   0  0  0  0  0  0
  -22.0593   -2.7603   23.2804 H   0  0  0  0  0  0
  -22.4079  -11.9950   22.4852 H   0  0  0  0  0  0
  -21.1057  -13.1274   22.2601 H   0  0  0  0  0  0
  -24.6692  -15.8495   20.5253 H   0  0  0  0  0  0
  -26.2940  -15.6263   20.1175 H   0  0  0  0  0  0
  -26.7118  -32.5532   23.1189 H   0  0  0  0  0  0
  -25.0072  -33.9789   25.0498 H   0  0  0  0  0  0
  -22.6868  -31.3133   21.4106 H   0  0  0  0  0  0
  -23.3723  -35.9656   23.3317 H   0  0  0  0  0  0
  -24.3598  -36.8907   22.2066 H   0  0  0  0  0  0
  -23.7257  -37.6526   23.6642 H   0  0  0  0  0  0
  -26.0400  -31.5873   20.5809 H   0  0  0  0  0  0
  -26.8202  -30.9005   21.9796 H   0  0  0  0  0  0
  -28.0940  -29.1451   21.1867 H   0  0  0  0  0  0
  -26.1051  -25.9860   19.0120 H   0  0  0  0  0  0
  -24.0062  -27.3008   19.0112 H   0  0  0  0  0  0
  -23.7146  -30.5985   19.4054 H   0  0  0  0  0  0
  -22.7381  -29.2400   19.8709 H   0  0  0  0  0  0
  -25.1258  -36.1956   25.0847 H   0  0  0  0  0  0
  -20.9997  -28.3230   24.1419 H   0  0  0  0  0  0
  -20.5644  -26.2271   23.3600 H   0  0  0  0  0  0
  -21.6640  -26.7424   22.1214 H   0  0  0  0  0  0
  -19.6870  -25.6287   21.1224 H   0  0  0  0  0  0
  -19.6652  -27.3214   20.6754 H   0  0  0  0  0  0
  -17.4186  -26.6720   21.4023 H   0  0  0  0  0  0
  -18.0304  -26.0007   22.8986 H   0  0  0  0  0  0
  -19.7937  -30.7282   24.2230 H   0  0  0  0  0  0
  -17.5011  -31.6249   24.5187 H   0  0  0  0  0  0
  -15.5356  -30.2973   23.7631 H   0  0  0  0  0  0
  -15.8681  -28.0806   22.7050 H   0  0  0  0  0  0
  -24.5894  -30.7031   25.7849 H   0  0  0  0  0  0
  -24.8971  -32.2813   26.4944 H   0  0  0  0  0  0
  -25.8151  -30.8813   27.0187 H   0  0  0  0  0  0
  -26.2797  -29.6741   24.1168 H   0  0  0  0  0  0
  -27.4181  -29.7235   25.4463 H   0  0  0  0  0  0
  -27.8601  -30.4343   23.9098 H   0  0  0  0  0  0
  -27.2653  -33.3541   26.2070 H   0  0  0  0  0  0
  -28.3838  -32.6868   25.0267 H   0  0  0  0  0  0
  -28.0730  -31.8347   26.5334 H   0  0  0  0  0  0
  -28.2602  -38.0092   24.7499 H   0  0  0  0  0  0
  -28.1055  -36.2631   24.6303 H   0  0  0  0  0  0
  -27.2329  -37.1465   25.8896 H   0  0  0  0  0  0
  -20.9255  -29.8720   21.6932 H   0  0  0  0  0  0
  -26.0164  -38.2867   24.1372 H   0  0  0  0  0  0
  -28.0659  -17.6637   18.3426 H   0  0  0  0  0  0
  -26.4178  -18.4555   18.5785 H   0  0  0  0  0  0
  -27.3079  -20.6136   17.7477 H   0  0  0  0  0  0
  -28.9596  -19.8473   17.4923 H   0  0  0  0  0  0
  -27.4407  -20.1026   20.2104 H   0  0  0  0  0  0
  -33.6410  -17.7440   21.7436 H   0  0  0  0  0  0
  -32.9330  -18.3660   23.2491 H   0  0  0  0  0  0
  -33.7443  -19.4577   22.1263 H   0  0  0  0  0  0
  -29.5854  -21.8134   19.0764 H   0  0  0  0  0  0
  -31.2220  -22.1019   19.5853 H   0  0  0  0  0  0
  -30.6112  -16.5690   23.1045 H   0  0  0  0  0  0
  -32.0019  -16.1750   22.1508 H   0  0  0  0  0  0
  -30.4480  -22.6433   21.9032 H   0  0  0  0  0  0
  -28.7917  -22.3188   21.4330 H   0  0  0  0  0  0
  -28.0869  -24.7692   21.9072 H   0  0  0  0  0  0
  -29.7079  -24.9179   22.5476 H   0  0  0  0  0  0
  -30.2224  -26.7686   20.9539 H   0  0  0  0  0  0
  -28.8917  -27.1477   22.0199 H   0  0  0  0  0  0
  -29.3323  -15.0549   21.9243 H   0  0  0  0  0  0
  -29.0285  -24.1377   19.8016 H   0  0  0  0  0  0
  -30.5452  -24.4025   20.3288 H   0  0  0  0  0  0
  1 25  1  0  0  0
  1 30  2  0  0  0
  1 86  1  0  0  0
  2  3  1  0  0  0
  2 25  1  0  0  0
  2 88  1  0  0  0
  2 89  1  0  0  0
  3  4  1  0  0  0
  3 90  1  0  0  0
  3 91  1  0  0  0
  4  5  1  0  0  0
  4 92  1  0  0  0
  4 93  1  0  0  0
  5  6  1  0  0  0
  5 26  1  0  0  0
  5 94  1  0  0  0
  6 25  1  0  0  0
  6 95  1  0  0  0
  6 96  1  0  0  0
  7  8  2  0  0  0
  7 26  1  0  0  0
  7 29  1  0  0  0
  8  9  1  0  0  0
  8 22  1  0  0  0
  9 10  1  0  0  0
  9 27  2  0  0  0
 10 11  2  0  0  0
 10 15  1  0  0  0
 11 12  1  0  0  0
 11 97  1  0  0  0
 12 13  2  0  0  0
 12 98  1  0  0  0
 13 14  1  0  0  0
 13 31  1  0  0  0
 14 15  2  0  0  0
 14 99  1  0  0  0
 15100  1  0  0  0
 16 17  2  0  0  0
 16 21  1  0  0  0
 16 31  1  0  0  0
 17 18  1  0  0  0
 17101  1  0  0  0
 18 19  2  0  0  0
 18102  1  0  0  0
 19 20  1  0  0  0
 19 24  1  0  0  0
 20 21  2  0  0  0
 20103  1  0  0  0
 21 23  1  0  0  0
 22 28  1  0  0  0
 22 32  2  0  0  0
 26 27  1  0  0  0
 28104  1  0  0  0
 28105  1  0  0  0
 29106  1  0  0  0
 29107  1  0  0  0
 33 34  1  0  0  0
 33 66  1  0  0  0
 33 70  2  0  0  0
 34 36  1  0  0  0
 34 59  1  0  0  0
 34108  1  0  0  0
 35 44  2  0  0  0
 35 45  1  0  0  0
 35 68  1  0  0  0
 36 56  1  0  0  0
 36109  1  0  0  0
 37 39  1  0  0  0
 37 47  1  0  0  0
 37 66  1  0  0  0
 37110  1  0  0  0
 38 43  2  0  0  0
 38 46  1  0  0  0
 38 47  1  0  0  0
 39 64  1  0  0  0
 39 67  2  0  0  0
 40 52  1  0  0  0
 40 53  2  0  0  0
 40 58  1  0  0  0
 41111  1  0  0  0
 41112  1  0  0  0
 41113  1  0  0  0
 41 48  1  0  0  0
 42 43  1  0  0  0
 42 66  1  0  0  0
 42114  1  0  0  0
 42115  1  0  0  0
 43 44  1  0  0  0
 44116  1  0  0  0
 45 46  2  0  0  0
 45117  1  0  0  0
 46118  1  0  0  0
 47119  1  0  0  0
 47120  1  0  0  0
 48 56  1  0  0  0
 48 65  1  0  0  0
 48121  1  0  0  0
 49 50  1  0  0  0
 49 53  1  0  0  0
 49 64  1  0  0  0
 49122  1  0  0  0
 50 51  1  0  0  0
 50123  1  0  0  0
 50124  1  0  0  0
 51 52  1  0  0  0
 51125  1  0  0  0
 51126  1  0  0  0
 52127  1  0  0  0
 52128  1  0  0  0
 53 54  1  0  0  0
 54 55  2  0  0  0
 54129  1  0  0  0
 55 57  1  0  0  0
 55130  1  0  0  0
 56 69  2  0  0  0
 57 58  2  0  0  0
 57131  1  0  0  0
 58132  1  0  0  0
 59 60  1  0  0  0
 59 61  1  0  0  0
 59 62  1  0  0  0
 60133  1  0  0  0
 60134  1  0  0  0
 60135  1  0  0  0
 61136  1  0  0  0
 61137  1  0  0  0
 61138  1  0  0  0
 62139  1  0  0  0
 62140  1  0  0  0
 62141  1  0  0  0
 63 65  1  0  0  0
 63142  1  0  0  0
 63143  1  0  0  0
 63144  1  0  0  0
 64145  1  0  0  0
 65146  1  0  0  0
 68 83  1  0  0  0
 71 72  1  0  0  0
 71 84  2  0  0  0
 71 77  1  0  0  0
 72 79  1  0  0  0
 72 85  2  0  0  0
 73 74  2  0  0  0
 73 78  1  0  0  0
 73 85  1  0  0  0
 74 80  1  0  0  0
 74 84  1  0  0  0
 75 76  1  0  0  0
 75 77  1  0  0  0
 75147  1  0  0  0
 75148  1  0  0  0
 76 77  1  0  0  0
 76149  1  0  0  0
 76150  1  0  0  0
 77151  1  0  0  0
 78152  1  0  0  0
 78153  1  0  0  0
 78154  1  0  0  0
 79 81  1  0  0  0
 79155  1  0  0  0
 79156  1  0  0  0
 80 86  1  0  0  0
 80157  1  0  0  0
 80158  1  0  0  0
 81 87  1  0  0  0
 81159  1  0  0  0
 81160  1  0  0  0
 82 83  1  0  0  0
 82 87  1  0  0  0
 82161  1  0  0  0
 82162  1  0  0  0
 83163  1  0  0  0
 83164  1  0  0  0
 86165  1  0  0  0
 87166  1  0  0  0
 87167  1  0  0  0
M  CHG  1  87   1
M  ISO  4   1 100  68 101  83 101  86 100
M  END
> <chiral flag>
0

> <version>
0

> <s_m_source_file>
/data/baiqing/PycharmProjects/Reinvent-master-3.2/result/LINK_invent/BTK/process_docking_weight1_custom_sum_contain_oxygen_bond_distance_aromatic_linkinvent_7_9_3/rearranged_h_0197.sdf

> <i_m_source_file_index>
54

> <r_mmod_Potential_Energy-OPLS-2005>
-266.751007080078

> <r_mmod_Stretch_Energy-OPLS-2005>
38.1648406982422

> <r_mmod_Bend_Energy-OPLS-2005>
99.1665115356445

> <r_mmod_Torsional_Energy-OPLS-2005>
224.698257446289

> <r_mmod_Improper_Torsional_Energy-OPLS-2005>
2.43105340003967

> <r_mmod_Van_der_Waal_Energy-OPLS-2005>
150.262634277344

> <r_mmod_Electrostatic_Energy-OPLS-2005>
-332.845428466797

> <r_mmod_Solvation_Energy-OPLS-2005>
-456.724090576172

> <b_mmod_Minimization_Converged-OPLS-2005>
0

> <r_mmod_RMS_Derivative-OPLS-2005>
4.13010215759277

$$$$
54
                    3D
 Structure written by MMmdl.
160169  0  0  1  0            999 V2000
  -30.6114  -14.6552   20.4770 C   0  0  0  0  0  0
  -30.4359  -12.3931   19.4689 C   0  0  0  0  0  0
  -29.5115  -12.5035   18.2347 C   0  0  0  0  0  0
  -28.0340  -12.3417   18.6425 C   0  0  0  0  0  0
  -27.6529  -13.2179   19.8652 C   0  0  2  0  0  0
  -28.6946  -13.0866   21.0011 C   0  0  0  0  0  0
  -25.2551  -13.8173   20.5681 C   0  0  0  0  0  0
  -24.1821  -13.0437   20.9192 C   0  0  0  0  0  0
  -24.6390  -11.6909   20.8741 C   0  0  0  0  0  0
  -23.9059  -10.4291   21.0407 C   0  0  0  0  0  0
  -24.3613   -9.4207   21.9182 C   0  0  0  0  0  0
  -23.6288   -8.2243   22.0753 C   0  0  0  0  0  0
  -22.4268   -8.0280   21.3546 C   0  0  0  0  0  0
  -21.9902   -9.0255   20.4651 C   0  0  0  0  0  0
  -22.7231  -10.2134   20.3058 C   0  0  0  0  0  0
  -21.6852   -6.0733   22.5276 C   0  0  0  0  0  0
  -21.4016   -6.5636   23.8211 C   0  0  0  0  0  0
  -21.3660   -5.6790   24.9172 C   0  0  0  0  0  0
  -21.6042   -4.3053   24.7225 C   0  0  0  0  0  0
  -21.8819   -3.8144   23.4345 C   0  0  0  0  0  0
  -21.9194   -4.6960   22.3402 C   0  0  0  0  0  0
  -22.7842  -13.5231   21.1853 C   0  0  0  0  0  0
  -22.1660   -4.2147   21.0980 F   0  0  0  0  0  0
  -21.5630   -3.4536   25.7738 F   0  0  0  0  0  0
  -30.0119  -13.4224   20.4413 N   0  0  0  0  0  0
  -26.2983  -12.9357   20.3318 N   0  0  0  0  0  0
  -25.9319  -11.6512   20.5757 N   0  0  0  0  0  0
  -22.0482  -12.8232   22.0415 N   0  0  0  0  0  0
  -25.4263  -15.1894   20.4083 N   0  0  0  0  0  0
  -31.7618  -14.8195   20.0610 O   0  0  0  0  0  0
  -21.6636   -6.8873   21.4237 O   0  0  0  0  0  0
  -22.3529  -14.5536   20.6698 O   0  0  0  0  0  0
  -24.6251  -31.8582   23.2002 C   0  0  0  0  0  0
  -25.9099  -32.4768   23.8333 C   0  0  1  0  0  0
  -27.2324  -27.3183   20.1155 C   0  0  0  0  0  0
  -25.5914  -33.8569   24.2263 N   0  0  0  0  0  0
  -23.4188  -30.4789   21.5423 C   0  0  2  0  0  0
  -24.8663  -28.9276   20.1093 C   0  0  0  0  0  0
  -22.7465  -29.4611   22.4936 C   0  0  0  0  0  0
  -18.0284  -28.1386   22.8487 C   0  0  0  0  0  0
  -24.1489  -36.7292   23.2641 C   0  0  0  0  0  0
  -25.9573  -30.7877   21.3697 C   0  0  0  0  0  0
  -26.0308  -29.4129   20.7149 C   0  0  0  0  0  0
  -27.2116  -28.6168   20.7115 C   0  0  0  0  0  0
  -26.0432  -26.8755   19.4945 C   0  0  0  0  0  0
  -24.8739  -27.6646   19.4928 C   0  0  0  0  0  0
  -23.6332  -29.8077   20.1585 C   0  0  0  0  0  0
  -25.4114  -36.3076   24.0329 C   0  0  1  0  0  0
  -20.5881  -28.3685   23.1291 C   0  0  2  0  0  0
  -20.6769  -26.9407   22.5420 C   0  0  0  0  0  0
  -19.5751  -26.6384   21.5215 C   0  0  0  0  0  0
  -18.1928  -26.7930   22.1623 C   0  0  0  0  0  0
  -19.1535  -28.8853   23.2885 C   0  0  0  0  0  0
  -18.9459  -30.1455   23.8903 C   0  0  0  0  0  0
  -17.6459  -30.6587   24.0566 C   0  0  0  0  0  0
  -25.9048  -34.9446   23.5098 C   0  0  0  0  0  0
  -16.5350  -29.9087   23.6331 C   0  0  0  0  0  0
  -16.7271  -28.6505   23.0350 C   0  0  0  0  0  0
  -26.4497  -31.6582   25.0703 C   0  0  0  0  0  0
  -25.3741  -31.3722   26.1441 C   0  0  0  0  0  0
  -27.0343  -30.3009   24.6154 C   0  0  0  0  0  0
  -27.6053  -32.4329   25.7470 C   0  0  0  0  0  0
  -27.5578  -37.1801   24.8465 C   0  0  0  0  0  0
  -21.4178  -29.3032   22.3681 N   0  0  0  0  0  0
  -26.4292  -37.3771   23.9406 N   0  0  0  0  0  0
  -24.6857  -31.0590   22.0946 N   0  0  0  0  0  0
  -23.4189  -28.8159   23.3023 O   0  0  0  0  0  0
  -28.3801  -26.5168   20.1913 O   0  0  0  0  0  0
  -26.5621  -34.8918   22.4667 O   0  0  0  0  0  0
  -23.5417  -32.1378   23.7337 O   0  0  0  0  0  0
  -31.2186  -22.1340   21.9955 C   0  0  0  0  0  0
  -31.0208  -20.8254   21.5374 C   0  0  0  0  0  0
  -30.3231  -23.1568   21.6397 C   0  0  0  0  0  0
  -29.2408  -22.8331   20.7732 C   0  0  0  0  0  0
  -29.9320  -20.4903   20.7132 C   0  0  0  0  0  0
  -28.1755  -23.9145   20.4634 C   0  0  0  0  0  0
  -30.8576  -18.1226   20.4149 C   0  0  0  0  0  0
  -28.8308  -18.1699   20.6682 C   0  0  0  0  0  0
  -29.7774  -17.0719   20.0806 C   0  0  0  0  0  0
  -30.5799  -24.5513   22.2336 C   0  0  0  0  0  0
  -28.5015  -25.1763   19.5648 C   0  0  0  0  0  0
  -29.0668  -21.5109   20.3624 N   0  0  0  0  0  0
  -29.8095  -19.1427   20.1528 N   0  0  0  0  0  0
  -29.7989  -15.7223   20.7569 N   0  0  0  0  0  0
  -29.9778  -24.7288   23.5679 N   0  3  0  0  0  0
  -27.0255  -23.8053   20.9024 O   0  0  0  0  0  0
  -31.4795  -12.5104   19.1718 H   0  0  0  0  0  0
  -30.3649  -11.4003   19.9160 H   0  0  0  0  0  0
  -29.7785  -11.7491   17.4937 H   0  0  0  0  0  0
  -29.6553  -13.4708   17.7509 H   0  0  0  0  0  0
  -27.8713  -11.2893   18.8785 H   0  0  0  0  0  0
  -27.3820  -12.5674   17.7978 H   0  0  0  0  0  0
  -27.6679  -14.2503   19.5157 H   0  0  0  0  0  0
  -28.7032  -12.0709   21.3994 H   0  0  0  0  0  0
  -28.4391  -13.7343   21.8412 H   0  0  0  0  0  0
  -25.2760   -9.5683   22.4755 H   0  0  0  0  0  0
  -24.0001   -7.4631   22.7471 H   0  0  0  0  0  0
  -21.0832   -8.8775   19.8960 H   0  0  0  0  0  0
  -22.3687  -10.9673   19.6170 H   0  0  0  0  0  0
  -21.2007   -7.6144   23.9712 H   0  0  0  0  0  0
  -21.1482   -6.0521   25.9076 H   0  0  0  0  0  0
  -22.0599   -2.7606   23.2846 H   0  0  0  0  0  0
  -22.4092  -11.9894   22.4811 H   0  0  0  0  0  0
  -21.1104  -13.1271   22.2625 H   0  0  0  0  0  0
  -24.6548  -15.8404   20.5067 H   0  0  0  0  0  0
  -26.2662  -15.6243   20.0496 H   0  0  0  0  0  0
  -26.7159  -32.5438   23.1075 H   0  0  0  0  0  0
  -25.0064  -33.9709   25.0410 H   0  0  0  0  0  0
  -22.7126  -31.2990   21.3969 H   0  0  0  0  0  0
  -23.3746  -35.9630   23.3312 H   0  0  0  0  0  0
  -24.3577  -36.8906   22.2053 H   0  0  0  0  0  0
  -23.7252  -37.6499   23.6661 H   0  0  0  0  0  0
  -26.0863  -31.5496   20.5998 H   0  0  0  0  0  0
  -26.8382  -30.8393   21.9977 H   0  0  0  0  0  0
  -28.1059  -28.9854   21.1938 H   0  0  0  0  0  0
  -25.9853  -25.9027   19.0304 H   0  0  0  0  0  0
  -23.9772  -27.2842   19.0229 H   0  0  0  0  0  0
  -23.7504  -30.5813   19.3989 H   0  0  0  0  0  0
  -22.7536  -29.2349   19.8593 H   0  0  0  0  0  0
  -25.1298  -36.1925   25.0822 H   0  0  0  0  0  0
  -20.9974  -28.3262   24.1412 H   0  0  0  0  0  0
  -20.5664  -26.2294   23.3619 H   0  0  0  0  0  0
  -21.6641  -26.7434   22.1220 H   0  0  0  0  0  0
  -19.6910  -25.6294   21.1247 H   0  0  0  0  0  0
  -19.6692  -27.3194   20.6745 H   0  0  0  0  0  0
  -17.4199  -26.6682   21.4022 H   0  0  0  0  0  0
  -18.0323  -26.0072   22.9019 H   0  0  0  0  0  0
  -19.7934  -30.7269   24.2276 H   0  0  0  0  0  0
  -17.5014  -31.6267   24.5168 H   0  0  0  0  0  0
  -15.5351  -30.2989   23.7654 H   0  0  0  0  0  0
  -15.8671  -28.0826   22.7064 H   0  0  0  0  0  0
  -24.5900  -30.7088   25.7775 H   0  0  0  0  0  0
  -24.8954  -32.2893   26.4888 H   0  0  0  0  0  0
  -25.8075  -30.8882   27.0202 H   0  0  0  0  0  0
  -26.2908  -29.6750   24.1205 H   0  0  0  0  0  0
  -27.4075  -29.7278   25.4652 H   0  0  0  0  0  0
  -27.8763  -30.4302   23.9349 H   0  0  0  0  0  0
  -27.2652  -33.3622   26.2057 H   0  0  0  0  0  0
  -28.3853  -32.6908   25.0293 H   0  0  0  0  0  0
  -28.0738  -31.8457   26.5380 H   0  0  0  0  0  0
  -28.2604  -38.0089   24.7500 H   0  0  0  0  0  0
  -28.1067  -36.2621   24.6306 H   0  0  0  0  0  0
  -27.2297  -37.1470   25.8869 H   0  0  0  0  0  0
  -20.9356  -29.8744   21.6882 H   0  0  0  0  0  0
  -26.0174  -38.2848   24.1400 H   0  0  0  0  0  0
  -32.0642  -22.3438   22.6353 H   0  0  0  0  0  0
  -31.7534  -20.0894   21.8305 H   0  0  0  0  0  0
  -31.6932  -18.1476   19.7142 H   0  0  0  0  0  0
  -31.1910  -18.0664   21.4532 H   0  0  0  0  0  0
  -28.7593  -18.1727   21.7585 H   0  0  0  0  0  0
  -27.8518  -18.2299   20.1910 H   0  0  0  0  0  0
  -29.6447  -16.9750   18.9995 H   0  0  0  0  0  0
  -30.2568  -25.3543   21.5750 H   0  0  0  0  0  0
  -31.6577  -24.6945   22.3309 H   0  0  0  0  0  0
  -27.9102  -25.1223   18.6521 H   0  0  0  0  0  0
  -29.5352  -25.0707   19.2364 H   0  0  0  0  0  0
  -28.9210  -15.4570   21.1765 H   0  0  0  0  0  0
  -28.9768  -24.6624   23.5465 H   0  0  0  0  0  0
  -30.2181  -25.6376   23.9244 H   0  0  0  0  0  0
  -30.3328  -24.0499   24.2170 H   0  0  0  0  0  0
  1 25  1  0  0  0
  1 30  2  0  0  0
  1 84  1  0  0  0
  2  3  1  0  0  0
  2 25  1  0  0  0
  2 87  1  0  0  0
  2 88  1  0  0  0
  3  4  1  0  0  0
  3 89  1  0  0  0
  3 90  1  0  0  0
  4  5  1  0  0  0
  4 91  1  0  0  0
  4 92  1  0  0  0
  5  6  1  0  0  0
  5 26  1  0  0  0
  5 93  1  0  0  0
  6 25  1  0  0  0
  6 94  1  0  0  0
  6 95  1  0  0  0
  7  8  2  0  0  0
  7 26  1  0  0  0
  7 29  1  0  0  0
  8  9  1  0  0  0
  8 22  1  0  0  0
  9 10  1  0  0  0
  9 27  2  0  0  0
 10 11  2  0  0  0
 10 15  1  0  0  0
 11 12  1  0  0  0
 11 96  1  0  0  0
 12 13  2  0  0  0
 12 97  1  0  0  0
 13 14  1  0  0  0
 13 31  1  0  0  0
 14 15  2  0  0  0
 14 98  1  0  0  0
 15 99  1  0  0  0
 16 17  2  0  0  0
 16 21  1  0  0  0
 16 31  1  0  0  0
 17 18  1  0  0  0
 17100  1  0  0  0
 18 19  2  0  0  0
 18101  1  0  0  0
 19 20  1  0  0  0
 19 24  1  0  0  0
 20 21  2  0  0  0
 20102  1  0  0  0
 21 23  1  0  0  0
 22 28  1  0  0  0
 22 32  2  0  0  0
 26 27  1  0  0  0
 28103  1  0  0  0
 28104  1  0  0  0
 29105  1  0  0  0
 29106  1  0  0  0
 33 34  1  0  0  0
 33 66  1  0  0  0
 33 70  2  0  0  0
 34 36  1  0  0  0
 34 59  1  0  0  0
 34107  1  0  0  0
 35 44  2  0  0  0
 35 45  1  0  0  0
 35 68  1  0  0  0
 36 56  1  0  0  0
 36108  1  0  0  0
 37 39  1  0  0  0
 37 47  1  0  0  0
 37 66  1  0  0  0
 37109  1  0  0  0
 38 43  2  0  0  0
 38 46  1  0  0  0
 38 47  1  0  0  0
 39 64  1  0  0  0
 39 67  2  0  0  0
 40 52  1  0  0  0
 40 53  2  0  0  0
 40 58  1  0  0  0
 41110  1  0  0  0
 41111  1  0  0  0
 41112  1  0  0  0
 41 48  1  0  0  0
 42 43  1  0  0  0
 42 66  1  0  0  0
 42113  1  0  0  0
 42114  1  0  0  0
 43 44  1  0  0  0
 44115  1  0  0  0
 45 46  2  0  0  0
 45116  1  0  0  0
 46117  1  0  0  0
 47118  1  0  0  0
 47119  1  0  0  0
 48 56  1  0  0  0
 48 65  1  0  0  0
 48120  1  0  0  0
 49 50  1  0  0  0
 49 53  1  0  0  0
 49 64  1  0  0  0
 49121  1  0  0  0
 50 51  1  0  0  0
 50122  1  0  0  0
 50123  1  0  0  0
 51 52  1  0  0  0
 51124  1  0  0  0
 51125  1  0  0  0
 52126  1  0  0  0
 52127  1  0  0  0
 53 54  1  0  0  0
 54 55  2  0  0  0
 54128  1  0  0  0
 55 57  1  0  0  0
 55129  1  0  0  0
 56 69  2  0  0  0
 57 58  2  0  0  0
 57130  1  0  0  0
 58131  1  0  0  0
 59 60  1  0  0  0
 59 61  1  0  0  0
 59 62  1  0  0  0
 60132  1  0  0  0
 60133  1  0  0  0
 60134  1  0  0  0
 61135  1  0  0  0
 61136  1  0  0  0
 61137  1  0  0  0
 62138  1  0  0  0
 62139  1  0  0  0
 62140  1  0  0  0
 63 65  1  0  0  0
 63141  1  0  0  0
 63142  1  0  0  0
 63143  1  0  0  0
 64144  1  0  0  0
 65145  1  0  0  0
 68 81  1  0  0  0
 71 72  2  0  0  0
 71 73  1  0  0  0
 71146  1  0  0  0
 72 75  1  0  0  0
 72147  1  0  0  0
 73 74  2  0  0  0
 73 80  1  0  0  0
 74 76  1  0  0  0
 74 82  1  0  0  0
 75 82  2  0  0  0
 75 83  1  0  0  0
 76 81  1  0  0  0
 76 86  2  0  0  0
 77 79  1  0  0  0
 77 83  1  0  0  0
 77148  1  0  0  0
 77149  1  0  0  0
 78 79  1  0  0  0
 78 83  1  0  0  0
 78150  1  0  0  0
 78151  1  0  0  0
 79 84  1  0  0  0
 79152  1  0  0  0
 80 85  1  0  0  0
 80153  1  0  0  0
 80154  1  0  0  0
 81155  1  0  0  0
 81156  1  0  0  0
 84157  1  0  0  0
 85158  1  0  0  0
 85159  1  0  0  0
 85160  1  0  0  0
M  CHG  1  85   1
M  ISO  4   1 100  68 101  81 101  84 100
M  END
> <chiral flag>
0

> <version>
0

> <s_m_source_file>
/data/baiqing/PycharmProjects/Reinvent-master-3.2/result/LINK_invent/BTK/process_docking_weight1_custom_sum_contain_oxygen_bond_distance_aromatic_linkinvent_7_9_3/rearranged_h_0197.sdf

> <i_m_source_file_index>
55

> <r_mmod_Potential_Energy-OPLS-2005>
-260.686859130859

> <r_mmod_Stretch_Energy-OPLS-2005>
88.5187225341797

> <r_mmod_Bend_Energy-OPLS-2005>
195.048217773438

> <r_mmod_Torsional_Energy-OPLS-2005>
275.690216064453

> <r_mmod_Improper_Torsional_Energy-OPLS-2005>
16.3216381072998

> <r_mmod_Van_der_Waal_Energy-OPLS-2005>
142.327545166016

> <r_mmod_Electrostatic_Energy-OPLS-2005>
-475.046936035156

> <r_mmod_Solvation_Energy-OPLS-2005>
-554.140380859375

> <b_mmod_Minimization_Converged-OPLS-2005>
0

> <r_mmod_RMS_Derivative-OPLS-2005>
0.551079988479614

$$$$
55
                    3D
 Structure written by MMmdl.
170179  0  0  1  0            999 V2000
  -30.6588  -14.6621   20.4657 C   0  0  0  0  0  0
  -30.4187  -12.4027   19.4621 C   0  0  0  0  0  0
  -29.5011  -12.4945   18.2251 C   0  0  0  0  0  0
  -28.0242  -12.3406   18.6379 C   0  0  0  0  0  0
  -27.6420  -13.2310   19.8523 C   0  0  2  0  0  0
  -28.6893  -13.1473   20.9839 C   0  0  0  0  0  0
  -25.2517  -13.8197   20.5709 C   0  0  0  0  0  0
  -24.1805  -13.0442   20.9207 C   0  0  0  0  0  0
  -24.6388  -11.6915   20.8738 C   0  0  0  0  0  0
  -23.9063  -10.4290   21.0407 C   0  0  0  0  0  0
  -24.3612   -9.4203   21.9185 C   0  0  0  0  0  0
  -23.6289   -8.2241   22.0758 C   0  0  0  0  0  0
  -22.4272   -8.0276   21.3544 C   0  0  0  0  0  0
  -21.9905   -9.0247   20.4646 C   0  0  0  0  0  0
  -22.7236  -10.2130   20.3058 C   0  0  0  0  0  0
  -21.6855   -6.0731   22.5278 C   0  0  0  0  0  0
  -21.4012   -6.5634   23.8206 C   0  0  0  0  0  0
  -21.3662   -5.6791   24.9175 C   0  0  0  0  0  0
  -21.6047   -4.3054   24.7230 C   0  0  0  0  0  0
  -21.8817   -3.8143   23.4350 C   0  0  0  0  0  0
  -21.9189   -4.6957   22.3405 C   0  0  0  0  0  0
  -22.7831  -13.5226   21.1868 C   0  0  0  0  0  0
  -22.1658   -4.2139   21.0985 F   0  0  0  0  0  0
  -21.5633   -3.4534   25.7741 F   0  0  0  0  0  0
  -29.9906  -13.4669   20.3926 N   0  0  0  0  0  0
  -26.2940  -12.9402   20.3316 N   0  0  0  0  0  0
  -25.9322  -11.6544   20.5773 N   0  0  0  0  0  0
  -22.0478  -12.8200   22.0419 N   0  0  0  0  0  0
  -25.4239  -15.1918   20.4136 N   0  0  0  0  0  0
  -31.8635  -14.7046   20.1962 O   0  0  0  0  0  0
  -21.6648   -6.8869   21.4238 O   0  0  0  0  0  0
  -22.3506  -14.5532   20.6725 O   0  0  0  0  0  0
  -24.6271  -31.8577   23.1999 C   0  0  0  0  0  0
  -25.9115  -32.4764   23.8341 C   0  0  1  0  0  0
  -27.2148  -27.3021   20.1232 C   0  0  0  0  0  0
  -25.5933  -33.8569   24.2256 N   0  0  0  0  0  0
  -23.4202  -30.4790   21.5433 C   0  0  2  0  0  0
  -24.8644  -28.9269   20.1147 C   0  0  0  0  0  0
  -22.7477  -29.4590   22.4932 C   0  0  0  0  0  0
  -18.0281  -28.1359   22.8473 C   0  0  0  0  0  0
  -24.1485  -36.7281   23.2630 C   0  0  0  0  0  0
  -25.9607  -30.7849   21.3690 C   0  0  0  0  0  0
  -26.0334  -29.4081   20.7156 C   0  0  0  0  0  0
  -27.2165  -28.6086   20.7032 C   0  0  0  0  0  0
  -26.0245  -26.8738   19.4973 C   0  0  0  0  0  0
  -24.8606  -27.6656   19.4970 C   0  0  0  0  0  0
  -23.6336  -29.8102   20.1607 C   0  0  0  0  0  0
  -25.4119  -36.3074   24.0311 C   0  0  1  0  0  0
  -20.5872  -28.3664   23.1269 C   0  0  2  0  0  0
  -20.6763  -26.9383   22.5398 C   0  0  0  0  0  0
  -19.5755  -26.6354   21.5191 C   0  0  0  0  0  0
  -18.1933  -26.7896   22.1604 C   0  0  0  0  0  0
  -19.1529  -28.8837   23.2870 C   0  0  0  0  0  0
  -18.9465  -30.1440   23.8883 C   0  0  0  0  0  0
  -17.6467  -30.6571   24.0561 C   0  0  0  0  0  0
  -25.9058  -34.9440   23.5082 C   0  0  0  0  0  0
  -16.5356  -29.9062   23.6344 C   0  0  0  0  0  0
  -16.7269  -28.6475   23.0360 C   0  0  0  0  0  0
  -26.4497  -31.6593   25.0732 C   0  0  0  0  0  0
  -25.3713  -31.3727   26.1456 C   0  0  0  0  0  0
  -27.0336  -30.3014   24.6185 C   0  0  0  0  0  0
  -27.6058  -32.4326   25.7501 C   0  0  0  0  0  0
  -27.5575  -37.1801   24.8465 C   0  0  0  0  0  0
  -21.4187  -29.3025   22.3681 N   0  0  0  0  0  0
  -26.4293  -37.3773   23.9403 N   0  0  0  0  0  0
  -24.6881  -31.0581   22.0944 N   0  0  0  0  0  0
  -23.4192  -28.8129   23.3026 O   0  0  0  0  0  0
  -28.3313  -26.4546   20.1434 O   0  0  0  0  0  0
  -26.5625  -34.8901   22.4645 O   0  0  0  0  0  0
  -23.5428  -32.1386   23.7313 O   0  0  0  0  0  0
  -29.4536  -21.9080   18.2746 C   0  0  0  0  0  0
  -30.1331  -24.0716   17.4967 C   0  0  0  0  0  0
  -28.6653  -22.4894   19.3043 C   0  0  0  0  0  0
  -30.1798  -22.6846   17.3637 C   0  0  0  0  0  0
  -28.7336  -23.9660   19.3847 C   0  0  0  0  0  0
  -29.6421  -16.6888   21.5579 C   0  0  0  0  0  0
  -30.3030  -16.7849   19.3092 C   0  0  0  0  0  0
  -28.6750  -17.9162   21.2868 C   0  0  0  0  0  0
  -29.2687  -17.9229   19.0551 C   0  0  0  0  0  0
  -24.1603  -22.3975   20.7607 C   0  0  0  0  0  0
  -28.1520  -24.9963   20.4326 C   0  0  0  0  0  0
  -27.9897  -19.8327   19.8140 C   0  0  0  0  0  0
  -25.6500  -22.7127   20.5665 C   0  0  0  0  0  0
  -27.8433  -21.4247   20.1633 C   0  0  2  0  0  0
  -29.4461  -24.6789   18.4778 N   0  0  0  0  0  0
  -29.9184  -15.8324   20.3774 N   0  0  0  0  0  0
  -29.0778  -18.8500   20.1948 N   0  0  0  0  0  0
  -26.3765  -21.5901   19.9503 N   0  3  0  0  0  0
  -31.1012  -21.9438   16.1044 Cl  0  0  0  0  0  0
  -31.4643  -12.4978   19.1661 H   0  0  0  0  0  0
  -30.3331  -11.4242   19.9371 H   0  0  0  0  0  0
  -29.7684  -11.7252   17.4989 H   0  0  0  0  0  0
  -29.6447  -13.4545   17.7248 H   0  0  0  0  0  0
  -27.8608  -11.2904   18.8838 H   0  0  0  0  0  0
  -27.3714  -12.5581   17.7912 H   0  0  0  0  0  0
  -27.6422  -14.2583   19.4850 H   0  0  0  0  0  0
  -28.7082  -12.1513   21.4264 H   0  0  0  0  0  0
  -28.4446  -13.8395   21.7907 H   0  0  0  0  0  0
  -25.2756   -9.5682   22.4755 H   0  0  0  0  0  0
  -23.9992   -7.4635   22.7477 H   0  0  0  0  0  0
  -21.0837   -8.8765   19.8950 H   0  0  0  0  0  0
  -22.3691  -10.9664   19.6162 H   0  0  0  0  0  0
  -21.2004   -7.6141   23.9706 H   0  0  0  0  0  0
  -21.1490   -6.0529   25.9076 H   0  0  0  0  0  0
  -22.0595   -2.7604   23.2863 H   0  0  0  0  0  0
  -22.4099  -11.9843   22.4774 H   0  0  0  0  0  0
  -21.1096  -13.1220   22.2651 H   0  0  0  0  0  0
  -24.6582  -15.8469   20.5224 H   0  0  0  0  0  0
  -26.2816  -15.6241   20.0985 H   0  0  0  0  0  0
  -26.7176  -32.5430   23.1077 H   0  0  0  0  0  0
  -25.0119  -33.9717   25.0429 H   0  0  0  0  0  0
  -22.7167  -31.3013   21.3995 H   0  0  0  0  0  0
  -23.3743  -35.9622   23.3311 H   0  0  0  0  0  0
  -24.3560  -36.8903   22.2042 H   0  0  0  0  0  0
  -23.7244  -37.6477   23.6666 H   0  0  0  0  0  0
  -26.0937  -31.5461   20.5978 H   0  0  0  0  0  0
  -26.8389  -30.8354   22.0015 H   0  0  0  0  0  0
  -28.1212  -28.9743   21.1684 H   0  0  0  0  0  0
  -25.9810  -25.9136   19.0041 H   0  0  0  0  0  0
  -23.9629  -27.2950   19.0201 H   0  0  0  0  0  0
  -23.7500  -30.5848   19.4018 H   0  0  0  0  0  0
  -22.7539  -29.2370   19.8628 H   0  0  0  0  0  0
  -25.1299  -36.1922   25.0802 H   0  0  0  0  0  0
  -20.9983  -28.3227   24.1379 H   0  0  0  0  0  0
  -20.5637  -26.2270   23.3593 H   0  0  0  0  0  0
  -21.6632  -26.7369   22.1218 H   0  0  0  0  0  0
  -19.6910  -25.6263   21.1238 H   0  0  0  0  0  0
  -19.6702  -27.3151   20.6714 H   0  0  0  0  0  0
  -17.4199  -26.6642   21.4011 H   0  0  0  0  0  0
  -18.0354  -26.0022   22.8993 H   0  0  0  0  0  0
  -19.7948  -30.7279   24.2210 H   0  0  0  0  0  0
  -17.5023  -31.6255   24.5160 H   0  0  0  0  0  0
  -15.5362  -30.2977   23.7660 H   0  0  0  0  0  0
  -15.8664  -28.0811   22.7065 H   0  0  0  0  0  0
  -24.5912  -30.7042   25.7791 H   0  0  0  0  0  0
  -24.8875  -32.2883   26.4871 H   0  0  0  0  0  0
  -25.8029  -30.8927   27.0249 H   0  0  0  0  0  0
  -26.2896  -29.6797   24.1197 H   0  0  0  0  0  0
  -27.4004  -29.7262   25.4705 H   0  0  0  0  0  0
  -27.8785  -30.4298   23.9410 H   0  0  0  0  0  0
  -27.2668  -33.3642   26.2036 H   0  0  0  0  0  0
  -28.3873  -32.6863   25.0324 H   0  0  0  0  0  0
  -28.0714  -31.8482   26.5448 H   0  0  0  0  0  0
  -28.2590  -38.0104   24.7521 H   0  0  0  0  0  0
  -28.1061  -36.2631   24.6275 H   0  0  0  0  0  0
  -27.2290  -37.1435   25.8868 H   0  0  0  0  0  0
  -20.9365  -29.8787   21.6928 H   0  0  0  0  0  0
  -26.0167  -38.2833   24.1442 H   0  0  0  0  0  0
  -29.5275  -20.8423   18.1429 H   0  0  0  0  0  0
  -30.6704  -24.7115   16.8140 H   0  0  0  0  0  0
  -29.2144  -16.0694   22.3476 H   0  0  0  0  0  0
  -30.5911  -17.0567   21.9544 H   0  0  0  0  0  0
  -31.2793  -17.2212   19.5315 H   0  0  0  0  0  0
  -30.4292  -16.2318   18.3757 H   0  0  0  0  0  0
  -28.5593  -18.4868   22.2096 H   0  0  0  0  0  0
  -27.6870  -17.5039   21.0703 H   0  0  0  0  0  0
  -28.3151  -17.4715   18.7681 H   0  0  0  0  0  0
  -29.6033  -18.4928   18.1869 H   0  0  0  0  0  0
  -23.6391  -23.2586   21.1810 H   0  0  0  0  0  0
  -24.0114  -21.5596   21.4413 H   0  0  0  0  0  0
  -23.6756  -22.1605   19.8131 H   0  0  0  0  0  0
  -28.6919  -24.8059   21.3606 H   0  0  0  0  0  0
  -27.1233  -24.8065   20.6947 H   0  0  0  0  0  0
  -27.8170  -19.7493   18.7387 H   0  0  0  0  0  0
  -27.0893  -19.3605   20.2107 H   0  0  0  0  0  0
  -26.0945  -22.9781   21.5265 H   0  0  0  0  0  0
  -25.7112  -23.5594   19.8867 H   0  0  0  0  0  0
  -28.0681  -21.5783   21.2192 H   0  0  0  0  0  0
  -26.1705  -21.5608   18.9637 H   0  0  0  0  0  0
  -25.9675  -20.7602   20.3478 H   0  0  0  0  0  0
  1 25  1  0  0  0
  1 30  2  0  0  0
  1 86  1  0  0  0
  2  3  1  0  0  0
  2 25  1  0  0  0
  2 90  1  0  0  0
  2 91  1  0  0  0
  3  4  1  0  0  0
  3 92  1  0  0  0
  3 93  1  0  0  0
  4  5  1  0  0  0
  4 94  1  0  0  0
  4 95  1  0  0  0
  5  6  1  0  0  0
  5 26  1  0  0  0
  5 96  1  0  0  0
  6 25  1  0  0  0
  6 97  1  0  0  0
  6 98  1  0  0  0
  7  8  2  0  0  0
  7 26  1  0  0  0
  7 29  1  0  0  0
  8  9  1  0  0  0
  8 22  1  0  0  0
  9 10  1  0  0  0
  9 27  2  0  0  0
 10 11  2  0  0  0
 10 15  1  0  0  0
 11 12  1  0  0  0
 11 99  1  0  0  0
 12 13  2  0  0  0
 12100  1  0  0  0
 13 14  1  0  0  0
 13 31  1  0  0  0
 14 15  2  0  0  0
 14101  1  0  0  0
 15102  1  0  0  0
 16 17  2  0  0  0
 16 21  1  0  0  0
 16 31  1  0  0  0
 17 18  1  0  0  0
 17103  1  0  0  0
 18 19  2  0  0  0
 18104  1  0  0  0
 19 20  1  0  0  0
 19 24  1  0  0  0
 20 21  2  0  0  0
 20105  1  0  0  0
 21 23  1  0  0  0
 22 28  1  0  0  0
 22 32  2  0  0  0
 26 27  1  0  0  0
 28106  1  0  0  0
 28107  1  0  0  0
 29108  1  0  0  0
 29109  1  0  0  0
 33 34  1  0  0  0
 33 66  1  0  0  0
 33 70  2  0  0  0
 34 36  1  0  0  0
 34 59  1  0  0  0
 34110  1  0  0  0
 35 44  2  0  0  0
 35 45  1  0  0  0
 35 68  1  0  0  0
 36 56  1  0  0  0
 36111  1  0  0  0
 37 39  1  0  0  0
 37 47  1  0  0  0
 37 66  1  0  0  0
 37112  1  0  0  0
 38 43  2  0  0  0
 38 46  1  0  0  0
 38 47  1  0  0  0
 39 64  1  0  0  0
 39 67  2  0  0  0
 40 52  1  0  0  0
 40 53  2  0  0  0
 40 58  1  0  0  0
 41113  1  0  0  0
 41114  1  0  0  0
 41115  1  0  0  0
 41 48  1  0  0  0
 42 43  1  0  0  0
 42 66  1  0  0  0
 42116  1  0  0  0
 42117  1  0  0  0
 43 44  1  0  0  0
 44118  1  0  0  0
 45 46  2  0  0  0
 45119  1  0  0  0
 46120  1  0  0  0
 47121  1  0  0  0
 47122  1  0  0  0
 48 56  1  0  0  0
 48 65  1  0  0  0
 48123  1  0  0  0
 49 50  1  0  0  0
 49 53  1  0  0  0
 49 64  1  0  0  0
 49124  1  0  0  0
 50 51  1  0  0  0
 50125  1  0  0  0
 50126  1  0  0  0
 51 52  1  0  0  0
 51127  1  0  0  0
 51128  1  0  0  0
 52129  1  0  0  0
 52130  1  0  0  0
 53 54  1  0  0  0
 54 55  2  0  0  0
 54131  1  0  0  0
 55 57  1  0  0  0
 55132  1  0  0  0
 56 69  2  0  0  0
 57 58  2  0  0  0
 57133  1  0  0  0
 58134  1  0  0  0
 59 60  1  0  0  0
 59 61  1  0  0  0
 59 62  1  0  0  0
 60135  1  0  0  0
 60136  1  0  0  0
 60137  1  0  0  0
 61138  1  0  0  0
 61139  1  0  0  0
 61140  1  0  0  0
 62141  1  0  0  0
 62142  1  0  0  0
 62143  1  0  0  0
 63 65  1  0  0  0
 63144  1  0  0  0
 63145  1  0  0  0
 63146  1  0  0  0
 64147  1  0  0  0
 65148  1  0  0  0
 68 81  1  0  0  0
 71 73  2  0  0  0
 71 74  1  0  0  0
 71149  1  0  0  0
 72 74  2  0  0  0
 72 85  1  0  0  0
 72150  1  0  0  0
 73 75  1  0  0  0
 73 84  1  0  0  0
 74 89  1  0  0  0
 75 81  1  0  0  0
 75 85  2  0  0  0
 76 78  1  0  0  0
 76 86  1  0  0  0
 76151  1  0  0  0
 76152  1  0  0  0
 77 79  1  0  0  0
 77 86  1  0  0  0
 77153  1  0  0  0
 77154  1  0  0  0
 78 87  1  0  0  0
 78155  1  0  0  0
 78156  1  0  0  0
 79 87  1  0  0  0
 79157  1  0  0  0
 79158  1  0  0  0
 80 83  1  0  0  0
 80159  1  0  0  0
 80160  1  0  0  0
 80161  1  0  0  0
 81162  1  0  0  0
 81163  1  0  0  0
 82 87  1  0  0  0
 82164  1  0  0  0
 82165  1  0  0  0
 82 84  1  0  0  0
 83 88  1  0  0  0
 83166  1  0  0  0
 83167  1  0  0  0
 84 88  1  0  0  0
 84168  1  0  0  0
 88169  1  0  0  0
 88170  1  0  0  0
M  CHG  1  88   1
M  ISO  4   1 100  68 101  81 101  86 100
M  END
> <chiral flag>
0

> <version>
0

> <s_m_source_file>
/data/baiqing/PycharmProjects/Reinvent-master-3.2/result/LINK_invent/BTK/process_docking_weight1_custom_sum_contain_oxygen_bond_distance_aromatic_linkinvent_7_9_3/rearranged_h_0197.sdf

> <i_m_source_file_index>
56

> <r_mmod_Potential_Energy-OPLS-2005>
224.892608642578

> <r_mmod_Stretch_Energy-OPLS-2005>
117.71556854248

> <r_mmod_Bend_Energy-OPLS-2005>
233.568084716797

> <r_mmod_Torsional_Energy-OPLS-2005>
377.264190673828

> <r_mmod_Improper_Torsional_Energy-OPLS-2005>
18.6379089355469

> <r_mmod_Van_der_Waal_Energy-OPLS-2005>
158.279312133789

> <r_mmod_Electrostatic_Energy-OPLS-2005>
-234.872100830078

> <r_mmod_Solvation_Energy-OPLS-2005>
-504.951812744141

> <b_mmod_Minimization_Converged-OPLS-2005>
0

> <r_mmod_RMS_Derivative-OPLS-2005>
2.31204009056091

$$$$
56
                    3D
 Structure written by MMmdl.
158167  0  0  1  0            999 V2000
  -30.6607  -14.6838   20.4566 C   0  0  0  0  0  0
  -30.4200  -12.4187   19.4611 C   0  0  0  0  0  0
  -29.5029  -12.4974   18.2245 C   0  0  0  0  0  0
  -28.0277  -12.3407   18.6400 C   0  0  0  0  0  0
  -27.6417  -13.2356   19.8495 C   0  0  2  0  0  0
  -28.6889  -13.1685   20.9817 C   0  0  0  0  0  0
  -25.2508  -13.8209   20.5709 C   0  0  0  0  0  0
  -24.1800  -13.0448   20.9203 C   0  0  0  0  0  0
  -24.6399  -11.6926   20.8753 C   0  0  0  0  0  0
  -23.9077  -10.4297   21.0413 C   0  0  0  0  0  0
  -24.3619   -9.4201   21.9190 C   0  0  0  0  0  0
  -23.6288   -8.2238   22.0755 C   0  0  0  0  0  0
  -22.4270   -8.0284   21.3545 C   0  0  0  0  0  0
  -21.9917   -9.0260   20.4642 C   0  0  0  0  0  0
  -22.7248  -10.2140   20.3060 C   0  0  0  0  0  0
  -21.6853   -6.0727   22.5275 C   0  0  0  0  0  0
  -21.4025   -6.5635   23.8209 C   0  0  0  0  0  0
  -21.3659   -5.6789   24.9180 C   0  0  0  0  0  0
  -21.6042   -4.3051   24.7230 C   0  0  0  0  0  0
  -21.8823   -3.8142   23.4354 C   0  0  0  0  0  0
  -21.9192   -4.6955   22.3406 C   0  0  0  0  0  0
  -22.7816  -13.5214   21.1865 C   0  0  0  0  0  0
  -22.1654   -4.2134   21.0983 F   0  0  0  0  0  0
  -21.5624   -3.4542   25.7750 F   0  0  0  0  0  0
  -29.9908  -13.4877   20.3883 N   0  0  0  0  0  0
  -26.2947  -12.9432   20.3303 N   0  0  0  0  0  0
  -25.9338  -11.6566   20.5772 N   0  0  0  0  0  0
  -22.0466  -12.8207   22.0420 N   0  0  0  0  0  0
  -25.4215  -15.1943   20.4159 N   0  0  0  0  0  0
  -31.8612  -14.7315   20.1709 O   0  0  0  0  0  0
  -21.6634   -6.8883   21.4239 O   0  0  0  0  0  0
  -22.3498  -14.5516   20.6708 O   0  0  0  0  0  0
  -24.6273  -31.8593   23.2014 C   0  0  0  0  0  0
  -25.9112  -32.4781   23.8355 C   0  0  1  0  0  0
  -27.2206  -27.3055   20.1251 C   0  0  0  0  0  0
  -25.5924  -33.8585   24.2276 N   0  0  0  0  0  0
  -23.4230  -30.4801   21.5464 C   0  0  2  0  0  0
  -24.8711  -28.9318   20.1137 C   0  0  0  0  0  0
  -22.7477  -29.4626   22.4963 C   0  0  0  0  0  0
  -18.0282  -28.1393   22.8503 C   0  0  0  0  0  0
  -24.1485  -36.7288   23.2647 C   0  0  0  0  0  0
  -25.9655  -30.7853   21.3741 C   0  0  0  0  0  0
  -26.0423  -29.4108   20.7171 C   0  0  0  0  0  0
  -27.2255  -28.6096   20.7124 C   0  0  0  0  0  0
  -26.0328  -26.8813   19.4955 C   0  0  0  0  0  0
  -24.8678  -27.6718   19.4942 C   0  0  0  0  0  0
  -23.6385  -29.8128   20.1634 C   0  0  0  0  0  0
  -25.4111  -36.3083   24.0330 C   0  0  1  0  0  0
  -20.5879  -28.3711   23.1292 C   0  0  2  0  0  0
  -20.6773  -26.9431   22.5423 C   0  0  0  0  0  0
  -19.5745  -26.6392   21.5234 C   0  0  0  0  0  0
  -18.1922  -26.7941   22.1627 C   0  0  0  0  0  0
  -19.1531  -28.8866   23.2889 C   0  0  0  0  0  0
  -18.9455  -30.1467   23.8906 C   0  0  0  0  0  0
  -17.6454  -30.6602   24.0565 C   0  0  0  0  0  0
  -25.9053  -34.9457   23.5103 C   0  0  0  0  0  0
  -16.5347  -29.9103   23.6339 C   0  0  0  0  0  0
  -16.7269  -28.6510   23.0377 C   0  0  0  0  0  0
  -26.4487  -31.6601   25.0736 C   0  0  0  0  0  0
  -25.3716  -31.3738   26.1460 C   0  0  0  0  0  0
  -27.0350  -30.3026   24.6212 C   0  0  0  0  0  0
  -27.6057  -32.4338   25.7494 C   0  0  0  0  0  0
  -27.5577  -37.1789   24.8461 C   0  0  0  0  0  0
  -21.4189  -29.3047   22.3675 N   0  0  0  0  0  0
  -26.4285  -37.3782   23.9413 N   0  0  0  0  0  0
  -24.6913  -31.0583   22.0974 N   0  0  0  0  0  0
  -23.4184  -28.8179   23.3067 O   0  0  0  0  0  0
  -28.2907  -26.3995   20.1521 O   0  0  0  0  0  0
  -26.5626  -34.8919   22.4673 O   0  0  0  0  0  0
  -23.5432  -32.1408   23.7322 O   0  0  0  0  0  0
  -28.5671  -23.7973   20.5231 C   0  0  0  0  0  0
  -28.8562  -21.6603   20.3976 C   0  0  0  0  0  0
  -28.9590  -18.0071   19.3955 C   0  0  0  0  0  0
  -29.5480  -18.1821   21.7369 C   0  0  0  0  0  0
  -29.7897  -16.6676   19.3097 C   0  0  0  0  0  0
  -30.3624  -16.8355   21.6243 C   0  0  0  0  0  0
  -29.4674  -19.0424   20.4411 C   0  0  0  0  0  0
  -30.7052  -24.4590   19.3342 C   0  0  0  0  0  0
  -28.0536  -25.2031   21.0011 C   0  0  0  0  0  0
  -27.9756  -22.6201   20.8527 N   0  0  0  0  0  0
  -29.9207  -22.1788   19.7872 N   0  0  0  0  0  0
  -29.7196  -23.5420   19.8735 N   0  0  0  0  0  0
  -29.9440  -15.8724   20.5652 N   0  0  0  0  0  0
  -28.5792  -20.2489   20.5909 N   0  0  0  0  0  0
  -31.4638  -12.5206   19.1584 H   0  0  0  0  0  0
  -30.3404  -11.4436   19.9428 H   0  0  0  0  0  0
  -29.7723  -11.7244   17.5036 H   0  0  0  0  0  0
  -29.6451  -13.4533   17.7172 H   0  0  0  0  0  0
  -27.8708  -11.2915   18.8933 H   0  0  0  0  0  0
  -27.3732  -12.5480   17.7925 H   0  0  0  0  0  0
  -27.6380  -14.2606   19.4771 H   0  0  0  0  0  0
  -28.7114  -12.1795   21.4410 H   0  0  0  0  0  0
  -28.4423  -13.8761   21.7750 H   0  0  0  0  0  0
  -25.2761   -9.5668   22.4772 H   0  0  0  0  0  0
  -23.9980   -7.4631   22.7488 H   0  0  0  0  0  0
  -21.0844   -8.8793   19.8952 H   0  0  0  0  0  0
  -22.3703  -10.9687   19.6176 H   0  0  0  0  0  0
  -21.2031   -7.6146   23.9716 H   0  0  0  0  0  0
  -21.1474   -6.0522   25.9080 H   0  0  0  0  0  0
  -22.0604   -2.7601   23.2872 H   0  0  0  0  0  0
  -22.4071  -11.9864   22.4811 H   0  0  0  0  0  0
  -21.1087  -13.1243   22.2625 H   0  0  0  0  0  0
  -24.6649  -15.8570   20.5454 H   0  0  0  0  0  0
  -26.2893  -15.6336   20.1367 H   0  0  0  0  0  0
  -26.7185  -32.5449   23.1115 H   0  0  0  0  0  0
  -25.0058  -33.9740   25.0409 H   0  0  0  0  0  0
  -22.7190  -31.3015   21.4013 H   0  0  0  0  0  0
  -23.3772  -35.9598   23.3293 H   0  0  0  0  0  0
  -24.3566  -36.8942   22.2064 H   0  0  0  0  0  0
  -23.7210  -37.6468   23.6690 H   0  0  0  0  0  0
  -26.0939  -31.5470   20.6040 H   0  0  0  0  0  0
  -26.8452  -30.8383   22.0036 H   0  0  0  0  0  0
  -28.1242  -28.9675   21.1947 H   0  0  0  0  0  0
  -25.9995  -25.9077   19.0256 H   0  0  0  0  0  0
  -23.9692  -27.2966   19.0241 H   0  0  0  0  0  0
  -23.7570  -30.5880   19.4056 H   0  0  0  0  0  0
  -22.7586  -29.2409   19.8632 H   0  0  0  0  0  0
  -25.1292  -36.1942   25.0825 H   0  0  0  0  0  0
  -20.9960  -28.3297   24.1416 H   0  0  0  0  0  0
  -20.5707  -26.2321   23.3623 H   0  0  0  0  0  0
  -21.6637  -26.7479   22.1212 H   0  0  0  0  0  0
  -19.6916  -25.6307   21.1259 H   0  0  0  0  0  0
  -19.6679  -27.3202   20.6764 H   0  0  0  0  0  0
  -17.4199  -26.6726   21.4015 H   0  0  0  0  0  0
  -18.0281  -26.0074   22.9002 H   0  0  0  0  0  0
  -19.7930  -30.7277   24.2284 H   0  0  0  0  0  0
  -17.5018  -31.6286   24.5172 H   0  0  0  0  0  0
  -15.5352  -30.3011   23.7663 H   0  0  0  0  0  0
  -15.8666  -28.0825   22.7117 H   0  0  0  0  0  0
  -24.5894  -30.7091   25.7777 H   0  0  0  0  0  0
  -24.8899  -32.2904   26.4876 H   0  0  0  0  0  0
  -25.8026  -30.8914   27.0245 H   0  0  0  0  0  0
  -26.2940  -29.6753   24.1242 H   0  0  0  0  0  0
  -27.4061  -29.7302   25.4730 H   0  0  0  0  0  0
  -27.8801  -30.4328   23.9445 H   0  0  0  0  0  0
  -27.2703  -33.3681   26.2011 H   0  0  0  0  0  0
  -28.3880  -32.6825   25.0311 H   0  0  0  0  0  0
  -28.0710  -31.8497   26.5448 H   0  0  0  0  0  0
  -28.2581  -38.0100   24.7544 H   0  0  0  0  0  0
  -28.1085  -36.2632   24.6253 H   0  0  0  0  0  0
  -27.2297  -37.1417   25.8865 H   0  0  0  0  0  0
  -20.9378  -29.8738   21.6851 H   0  0  0  0  0  0
  -26.0173  -38.2855   24.1444 H   0  0  0  0  0  0
  -27.9196  -17.7517   19.6108 H   0  0  0  0  0  0
  -28.9485  -18.4745   18.4097 H   0  0  0  0  0  0
  -29.9811  -18.7858   22.5349 H   0  0  0  0  0  0
  -28.5368  -17.9387   22.0672 H   0  0  0  0  0  0
  -30.7846  -16.9059   18.9272 H   0  0  0  0  0  0
  -29.3315  -16.0280   18.5523 H   0  0  0  0  0  0
  -30.3134  -16.3234   22.5873 H   0  0  0  0  0  0
  -31.4155  -17.0824   21.4751 H   0  0  0  0  0  0
  -30.4684  -19.3765   20.1626 H   0  0  0  0  0  0
  -30.8226  -25.3142   20.0005 H   0  0  0  0  0  0
  -30.3752  -24.8175   18.3589 H   0  0  0  0  0  0
  -31.6725  -23.9678   19.2250 H   0  0  0  0  0  0
  -28.5378  -25.4061   21.9564 H   0  0  0  0  0  0
  -26.9946  -25.0966   21.2371 H   0  0  0  0  0  0
  -27.6894  -20.0709   21.0445 H   0  0  0  0  0  0
  1 25  1  0  0  0
  1 30  2  0  0  0
  1 83  1  0  0  0
  2  3  1  0  0  0
  2 25  1  0  0  0
  2 85  1  0  0  0
  2 86  1  0  0  0
  3  4  1  0  0  0
  3 87  1  0  0  0
  3 88  1  0  0  0
  4  5  1  0  0  0
  4 89  1  0  0  0
  4 90  1  0  0  0
  5  6  1  0  0  0
  5 26  1  0  0  0
  5 91  1  0  0  0
  6 25  1  0  0  0
  6 92  1  0  0  0
  6 93  1  0  0  0
  7  8  2  0  0  0
  7 26  1  0  0  0
  7 29  1  0  0  0
  8  9  1  0  0  0
  8 22  1  0  0  0
  9 10  1  0  0  0
  9 27  2  0  0  0
 10 11  2  0  0  0
 10 15  1  0  0  0
 11 12  1  0  0  0
 11 94  1  0  0  0
 12 13  2  0  0  0
 12 95  1  0  0  0
 13 14  1  0  0  0
 13 31  1  0  0  0
 14 15  2  0  0  0
 14 96  1  0  0  0
 15 97  1  0  0  0
 16 17  2  0  0  0
 16 21  1  0  0  0
 16 31  1  0  0  0
 17 18  1  0  0  0
 17 98  1  0  0  0
 18 19  2  0  0  0
 18 99  1  0  0  0
 19 20  1  0  0  0
 19 24  1  0  0  0
 20 21  2  0  0  0
 20100  1  0  0  0
 21 23  1  0  0  0
 22 28  1  0  0  0
 22 32  2  0  0  0
 26 27  1  0  0  0
 28101  1  0  0  0
 28102  1  0  0  0
 29103  1  0  0  0
 29104  1  0  0  0
 33 34  1  0  0  0
 33 66  1  0  0  0
 33 70  2  0  0  0
 34 36  1  0  0  0
 34 59  1  0  0  0
 34105  1  0  0  0
 35 44  2  0  0  0
 35 45  1  0  0  0
 35 68  1  0  0  0
 36 56  1  0  0  0
 36106  1  0  0  0
 37 39  1  0  0  0
 37 47  1  0  0  0
 37 66  1  0  0  0
 37107  1  0  0  0
 38 43  2  0  0  0
 38 46  1  0  0  0
 38 47  1  0  0  0
 39 64  1  0  0  0
 39 67  2  0  0  0
 40 52  1  0  0  0
 40 53  2  0  0  0
 40 58  1  0  0  0
 41108  1  0  0  0
 41109  1  0  0  0
 41110  1  0  0  0
 41 48  1  0  0  0
 42 43  1  0  0  0
 42 66  1  0  0  0
 42111  1  0  0  0
 42112  1  0  0  0
 43 44  1  0  0  0
 44113  1  0  0  0
 45 46  2  0  0  0
 45114  1  0  0  0
 46115  1  0  0  0
 47116  1  0  0  0
 47117  1  0  0  0
 48 56  1  0  0  0
 48 65  1  0  0  0
 48118  1  0  0  0
 49 50  1  0  0  0
 49 53  1  0  0  0
 49 64  1  0  0  0
 49119  1  0  0  0
 50 51  1  0  0  0
 50120  1  0  0  0
 50121  1  0  0  0
 51 52  1  0  0  0
 51122  1  0  0  0
 51123  1  0  0  0
 52124  1  0  0  0
 52125  1  0  0  0
 53 54  1  0  0  0
 54 55  2  0  0  0
 54126  1  0  0  0
 55 57  1  0  0  0
 55127  1  0  0  0
 56 69  2  0  0  0
 57 58  2  0  0  0
 57128  1  0  0  0
 58129  1  0  0  0
 59 60  1  0  0  0
 59 61  1  0  0  0
 59 62  1  0  0  0
 60130  1  0  0  0
 60131  1  0  0  0
 60132  1  0  0  0
 61133  1  0  0  0
 61134  1  0  0  0
 61135  1  0  0  0
 62136  1  0  0  0
 62137  1  0  0  0
 62138  1  0  0  0
 63 65  1  0  0  0
 63139  1  0  0  0
 63140  1  0  0  0
 63141  1  0  0  0
 64142  1  0  0  0
 65143  1  0  0  0
 68 79  1  0  0  0
 71 79  1  0  0  0
 71 80  2  0  0  0
 71 82  1  0  0  0
 72 80  1  0  0  0
 72 81  2  0  0  0
 72 84  1  0  0  0
 73 75  1  0  0  0
 73 77  1  0  0  0
 73144  1  0  0  0
 73145  1  0  0  0
 74 76  1  0  0  0
 74 77  1  0  0  0
 74146  1  0  0  0
 74147  1  0  0  0
 75 83  1  0  0  0
 75148  1  0  0  0
 75149  1  0  0  0
 76 83  1  0  0  0
 76150  1  0  0  0
 76151  1  0  0  0
 77 84  1  0  0  0
 77152  1  0  0  0
 78 82  1  0  0  0
 78153  1  0  0  0
 78154  1  0  0  0
 78155  1  0  0  0
 79156  1  0  0  0
 79157  1  0  0  0
 81 82  1  0  0  0
 84158  1  0  0  0
M  ISO  4   1 100  68 101  79 101  83 100
M  END
> <chiral flag>
0

> <version>
0

> <s_m_source_file>
/data/baiqing/PycharmProjects/Reinvent-master-3.2/result/LINK_invent/BTK/process_docking_weight1_custom_sum_contain_oxygen_bond_distance_aromatic_linkinvent_7_9_3/rearranged_h_0197.sdf

> <i_m_source_file_index>
57

> <r_mmod_Potential_Energy-OPLS-2005>
198.942794799805

> <r_mmod_Stretch_Energy-OPLS-2005>
85.920783996582

> <r_mmod_Bend_Energy-OPLS-2005>
190.873306274414

> <r_mmod_Torsional_Energy-OPLS-2005>
341.709197998047

> <r_mmod_Improper_Torsional_Energy-OPLS-2005>
12.4545288085938

> <r_mmod_Van_der_Waal_Energy-OPLS-2005>
116.33576965332

> <r_mmod_Electrostatic_Energy-OPLS-2005>
-398.719451904297

> <r_mmod_Solvation_Energy-OPLS-2005>
-216.787399291992

> <b_mmod_Minimization_Converged-OPLS-2005>
0

> <r_mmod_RMS_Derivative-OPLS-2005>
1.57380473613739

$$$$
57
                    3D
 Structure written by MMmdl.
166175  0  0  1  0            999 V2000
  -30.7606  -14.3670   20.6820 C   0  0  0  0  0  0
  -30.4167  -12.2857   19.4001 C   0  0  0  0  0  0
  -29.4874  -12.5278   18.1950 C   0  0  0  0  0  0
  -28.0100  -12.3829   18.6074 C   0  0  0  0  0  0
  -27.6658  -13.2017   19.8782 C   0  0  2  0  0  0
  -28.6996  -12.9357   20.9926 C   0  0  0  0  0  0
  -25.2593  -13.8157   20.5649 C   0  0  0  0  0  0
  -24.1839  -13.0432   20.9141 C   0  0  0  0  0  0
  -24.6385  -11.6900   20.8703 C   0  0  0  0  0  0
  -23.9053  -10.4284   21.0384 C   0  0  0  0  0  0
  -24.3612   -9.4206   21.9161 C   0  0  0  0  0  0
  -23.6292   -8.2238   22.0742 C   0  0  0  0  0  0
  -22.4268   -8.0269   21.3543 C   0  0  0  0  0  0
  -21.9902   -9.0241   20.4643 C   0  0  0  0  0  0
  -22.7226  -10.2123   20.3040 C   0  0  0  0  0  0
  -21.6847   -6.0727   22.5283 C   0  0  0  0  0  0
  -21.4006   -6.5631   23.8216 C   0  0  0  0  0  0
  -21.3660   -5.6787   24.9181 C   0  0  0  0  0  0
  -21.6048   -4.3049   24.7236 C   0  0  0  0  0  0
  -21.8815   -3.8138   23.4356 C   0  0  0  0  0  0
  -21.9189   -4.6953   22.3409 C   0  0  0  0  0  0
  -22.7864  -13.5237   21.1813 C   0  0  0  0  0  0
  -22.1657   -4.2139   21.0986 F   0  0  0  0  0  0
  -21.5642   -3.4537   25.7752 F   0  0  0  0  0  0
  -30.0465  -13.2288   20.4660 N   0  0  0  0  0  0
  -26.3032  -12.9321   20.3350 N   0  0  0  0  0  0
  -25.9308  -11.6482   20.5728 N   0  0  0  0  0  0
  -22.0513  -12.8231   22.0383 N   0  0  0  0  0  0
  -25.4312  -15.1870   20.4069 N   0  0  0  0  0  0
  -31.7833  -14.6474   20.0449 O   0  0  0  0  0  0
  -21.6635   -6.8864   21.4241 O   0  0  0  0  0  0
  -22.3544  -14.5534   20.6651 O   0  0  0  0  0  0
  -24.6095  -31.8705   23.2131 C   0  0  0  0  0  0
  -25.9004  -32.4840   23.8408 C   0  0  1  0  0  0
  -27.2358  -27.4750   20.0907 C   0  0  0  0  0  0
  -25.5876  -33.8638   24.2341 N   0  0  0  0  0  0
  -23.3959  -30.4931   21.5533 C   0  0  2  0  0  0
  -24.8431  -28.9615   20.1170 C   0  0  0  0  0  0
  -22.7384  -29.4659   22.5020 C   0  0  0  0  0  0
  -18.0265  -28.1369   22.8494 C   0  0  0  0  0  0
  -24.1486  -36.7330   23.2637 C   0  0  0  0  0  0
  -25.9190  -30.8489   21.3587 C   0  0  0  0  0  0
  -25.9989  -29.4840   20.7111 C   0  0  0  0  0  0
  -27.2006  -28.7468   20.6975 C   0  0  0  0  0  0
  -26.0692  -26.9547   19.4937 C   0  0  0  0  0  0
  -24.8704  -27.6937   19.5075 C   0  0  0  0  0  0
  -23.6017  -29.8229   20.1680 C   0  0  0  0  0  0
  -25.4106  -36.3127   24.0340 C   0  0  1  0  0  0
  -20.5851  -28.3646   23.1342 C   0  0  2  0  0  0
  -20.6755  -26.9388   22.5433 C   0  0  0  0  0  0
  -19.5739  -26.6386   21.5220 C   0  0  0  0  0  0
  -18.1916  -26.7918   22.1628 C   0  0  0  0  0  0
  -19.1514  -28.8825   23.2910 C   0  0  0  0  0  0
  -18.9445  -30.1436   23.8909 C   0  0  0  0  0  0
  -17.6448  -30.6576   24.0568 C   0  0  0  0  0  0
  -25.9028  -34.9488   23.5141 C   0  0  0  0  0  0
  -16.5337  -29.9084   23.6328 C   0  0  0  0  0  0
  -16.7257  -28.6504   23.0343 C   0  0  0  0  0  0
  -26.4454  -31.6603   25.0717 C   0  0  0  0  0  0
  -25.3733  -31.3701   26.1478 C   0  0  0  0  0  0
  -27.0285  -30.3055   24.6057 C   0  0  0  0  0  0
  -27.6038  -32.4315   25.7473 C   0  0  0  0  0  0
  -27.5583  -37.1820   24.8464 C   0  0  0  0  0  0
  -21.4117  -29.3018   22.3760 N   0  0  0  0  0  0
  -26.4297  -37.3806   23.9407 N   0  0  0  0  0  0
  -24.6595  -31.0837   22.1014 N   0  0  0  0  0  0
  -23.4179  -28.8192   23.3036 O   0  0  0  0  0  0
  -28.4042  -26.7602   20.0670 O   0  0  0  0  0  0
  -26.5594  -34.8931   22.4706 O   0  0  0  0  0  0
  -23.5305  -32.1440   23.7559 O   0  0  0  0  0  0
  -27.0343  -19.2632   23.7946 C   0  0  0  0  0  0
  -26.4974  -20.5471   23.6454 C   0  0  0  0  0  0
  -28.0809  -18.9097   22.9453 C   0  0  0  0  0  0
  -27.9424  -20.9492   21.9265 C   0  0  0  0  0  0
  -30.7545  -16.4561   23.5528 C   0  0  0  0  0  0
  -30.4477  -15.0672   22.9960 C   0  0  0  0  0  0
  -30.0372  -17.4100   22.6053 C   0  0  1  0  0  0
  -30.1220  -16.6759   21.2517 C   0  0  2  0  0  0
  -29.0176  -16.9851   20.2211 C   0  0  0  0  0  0
  -28.4246  -21.9002   20.8460 C   0  0  0  0  0  0
  -28.3668  -24.3556   20.4059 C   0  0  0  0  0  0
  -28.4851  -25.7404   21.0609 C   0  0  0  0  0  0
  -26.9616  -21.3992   22.7105 N   0  0  0  0  0  0
  -28.5360  -19.7634   22.0159 N   0  0  0  0  0  0
  -30.2187  -15.2404   21.5577 N   0  0  0  0  0  0
  -28.6630  -17.6439   23.0461 N   0  0  0  0  0  0
  -28.4277  -23.2602   21.4030 N   0  3  0  0  0  0
  -31.4616  -12.3807   19.0995 H   0  0  0  0  0  0
  -30.3096  -11.2617   19.7608 H   0  0  0  0  0  0
  -29.7213  -11.8265   17.3930 H   0  0  0  0  0  0
  -29.6615  -13.5257   17.7888 H   0  0  0  0  0  0
  -27.8157  -11.3245   18.7868 H   0  0  0  0  0  0
  -27.3600  -12.6777   17.7833 H   0  0  0  0  0  0
  -27.7254  -14.2563   19.6096 H   0  0  0  0  0  0
  -28.6575  -11.8916   21.3051 H   0  0  0  0  0  0
  -28.4355  -13.5107   21.8780 H   0  0  0  0  0  0
  -25.2758   -9.5692   22.4734 H   0  0  0  0  0  0
  -24.0004   -7.4631   22.7461 H   0  0  0  0  0  0
  -21.0830   -8.8760   19.8956 H   0  0  0  0  0  0
  -22.3673  -10.9661   19.6151 H   0  0  0  0  0  0
  -21.1986   -7.6136   23.9718 H   0  0  0  0  0  0
  -21.1490   -6.0521   25.9088 H   0  0  0  0  0  0
  -22.0590   -2.7601   23.2868 H   0  0  0  0  0  0
  -22.4140  -11.9912   22.4792 H   0  0  0  0  0  0
  -21.1123  -13.1241   22.2566 H   0  0  0  0  0  0
  -24.6699  -15.8453   20.5297 H   0  0  0  0  0  0
  -26.2989  -15.6282   20.1303 H   0  0  0  0  0  0
  -26.7077  -32.5566   23.1178 H   0  0  0  0  0  0
  -25.0031  -33.9811   25.0487 H   0  0  0  0  0  0
  -22.6815  -31.3074   21.4155 H   0  0  0  0  0  0
  -23.3744  -35.9668   23.3316 H   0  0  0  0  0  0
  -24.3573  -36.8925   22.2045 H   0  0  0  0  0  0
  -23.7244  -37.6545   23.6640 H   0  0  0  0  0  0
  -26.0233  -31.6137   20.5874 H   0  0  0  0  0  0
  -26.8100  -30.9068   21.9720 H   0  0  0  0  0  0
  -28.0966  -29.1494   21.1500 H   0  0  0  0  0  0
  -26.0869  -25.9880   19.0109 H   0  0  0  0  0  0
  -23.9810  -27.2871   19.0454 H   0  0  0  0  0  0
  -23.7031  -30.5964   19.4061 H   0  0  0  0  0  0
  -22.7277  -29.2375   19.8769 H   0  0  0  0  0  0
  -25.1280  -36.2008   25.0835 H   0  0  0  0  0  0
  -20.9936  -28.3205   24.1464 H   0  0  0  0  0  0
  -20.5675  -26.2239   23.3609 H   0  0  0  0  0  0
  -21.6623  -26.7449   22.1209 H   0  0  0  0  0  0
  -19.6900  -25.6310   21.1223 H   0  0  0  0  0  0
  -19.6681  -27.3216   20.6766 H   0  0  0  0  0  0
  -17.4192  -26.6675   21.4024 H   0  0  0  0  0  0
  -18.0302  -26.0055   22.9016 H   0  0  0  0  0  0
  -19.7923  -30.7252   24.2274 H   0  0  0  0  0  0
  -17.5009  -31.6255   24.5171 H   0  0  0  0  0  0
  -15.5342  -30.2991   23.7644 H   0  0  0  0  0  0
  -15.8656  -28.0836   22.7037 H   0  0  0  0  0  0
  -24.5894  -30.7057   25.7824 H   0  0  0  0  0  0
  -24.8938  -32.2856   26.4954 H   0  0  0  0  0  0
  -25.8093  -30.8856   27.0222 H   0  0  0  0  0  0
  -26.2820  -29.6819   24.1124 H   0  0  0  0  0  0
  -27.4091  -29.7284   25.4496 H   0  0  0  0  0  0
  -27.8633  -30.4393   23.9173 H   0  0  0  0  0  0
  -27.2658  -33.3597   26.2096 H   0  0  0  0  0  0
  -28.3823  -32.6903   25.0282 H   0  0  0  0  0  0
  -28.0733  -31.8412   26.5354 H   0  0  0  0  0  0
  -28.2616  -38.0103   24.7511 H   0  0  0  0  0  0
  -28.1066  -36.2640   24.6296 H   0  0  0  0  0  0
  -27.2301  -37.1475   25.8866 H   0  0  0  0  0  0
  -20.9274  -29.8748   21.6990 H   0  0  0  0  0  0
  -26.0199  -38.2894   24.1398 H   0  0  0  0  0  0
  -26.6470  -18.5935   24.5494 H   0  0  0  0  0  0
  -25.6930  -20.8945   24.2773 H   0  0  0  0  0  0
  -31.8299  -16.6349   23.4929 H   0  0  0  0  0  0
  -30.4692  -16.5712   24.6004 H   0  0  0  0  0  0
  -29.5369  -14.6838   23.4556 H   0  0  0  0  0  0
  -31.2493  -14.3610   23.2207 H   0  0  0  0  0  0
  -30.5755  -18.3595   22.5672 H   0  0  0  0  0  0
  -31.0708  -16.9789   20.8025 H   0  0  0  0  0  0
  -28.0330  -16.6969   20.5873 H   0  0  0  0  0  0
  -29.1893  -16.4559   19.2835 H   0  0  0  0  0  0
  -28.9915  -18.0489   19.9855 H   0  0  0  0  0  0
  -27.7349  -21.8329   20.0047 H   0  0  0  0  0  0
  -29.4175  -21.6297   20.4846 H   0  0  0  0  0  0
  -29.1689  -24.2317   19.6778 H   0  0  0  0  0  0
  -27.4276  -24.2838   19.8586 H   0  0  0  0  0  0
  -29.4497  -25.8358   21.5610 H   0  0  0  0  0  0
  -27.7257  -25.8637   21.8364 H   0  0  0  0  0  0
  -28.3088  -17.0393   23.7764 H   0  0  0  0  0  0
  -29.2347  -23.3358   21.9998 H   0  0  0  0  0  0
  -27.6125  -23.2373   22.0048 H   0  0  0  0  0  0
  1 25  1  0  0  0
  1 30  2  0  0  0
  1 85  1  0  0  0
  2  3  1  0  0  0
  2 25  1  0  0  0
  2 88  1  0  0  0
  2 89  1  0  0  0
  3  4  1  0  0  0
  3 90  1  0  0  0
  3 91  1  0  0  0
  4  5  1  0  0  0
  4 92  1  0  0  0
  4 93  1  0  0  0
  5  6  1  0  0  0
  5 26  1  0  0  0
  5 94  1  0  0  0
  6 25  1  0  0  0
  6 95  1  0  0  0
  6 96  1  0  0  0
  7  8  2  0  0  0
  7 26  1  0  0  0
  7 29  1  0  0  0
  8  9  1  0  0  0
  8 22  1  0  0  0
  9 10  1  0  0  0
  9 27  2  0  0  0
 10 11  2  0  0  0
 10 15  1  0  0  0
 11 12  1  0  0  0
 11 97  1  0  0  0
 12 13  2  0  0  0
 12 98  1  0  0  0
 13 14  1  0  0  0
 13 31  1  0  0  0
 14 15  2  0  0  0
 14 99  1  0  0  0
 15100  1  0  0  0
 16 17  2  0  0  0
 16 21  1  0  0  0
 16 31  1  0  0  0
 17 18  1  0  0  0
 17101  1  0  0  0
 18 19  2  0  0  0
 18102  1  0  0  0
 19 20  1  0  0  0
 19 24  1  0  0  0
 20 21  2  0  0  0
 20103  1  0  0  0
 21 23  1  0  0  0
 22 28  1  0  0  0
 22 32  2  0  0  0
 26 27  1  0  0  0
 28104  1  0  0  0
 28105  1  0  0  0
 29106  1  0  0  0
 29107  1  0  0  0
 33 34  1  0  0  0
 33 66  1  0  0  0
 33 70  2  0  0  0
 34 36  1  0  0  0
 34 59  1  0  0  0
 34108  1  0  0  0
 35 44  2  0  0  0
 35 45  1  0  0  0
 35 68  1  0  0  0
 36 56  1  0  0  0
 36109  1  0  0  0
 37 39  1  0  0  0
 37 47  1  0  0  0
 37 66  1  0  0  0
 37110  1  0  0  0
 38 43  2  0  0  0
 38 46  1  0  0  0
 38 47  1  0  0  0
 39 64  1  0  0  0
 39 67  2  0  0  0
 40 52  1  0  0  0
 40 53  2  0  0  0
 40 58  1  0  0  0
 41111  1  0  0  0
 41112  1  0  0  0
 41113  1  0  0  0
 41 48  1  0  0  0
 42 43  1  0  0  0
 42 66  1  0  0  0
 42114  1  0  0  0
 42115  1  0  0  0
 43 44  1  0  0  0
 44116  1  0  0  0
 45 46  2  0  0  0
 45117  1  0  0  0
 46118  1  0  0  0
 47119  1  0  0  0
 47120  1  0  0  0
 48 56  1  0  0  0
 48 65  1  0  0  0
 48121  1  0  0  0
 49 50  1  0  0  0
 49 53  1  0  0  0
 49 64  1  0  0  0
 49122  1  0  0  0
 50 51  1  0  0  0
 50123  1  0  0  0
 50124  1  0  0  0
 51 52  1  0  0  0
 51125  1  0  0  0
 51126  1  0  0  0
 52127  1  0  0  0
 52128  1  0  0  0
 53 54  1  0  0  0
 54 55  2  0  0  0
 54129  1  0  0  0
 55 57  1  0  0  0
 55130  1  0  0  0
 56 69  2  0  0  0
 57 58  2  0  0  0
 57131  1  0  0  0
 58132  1  0  0  0
 59 60  1  0  0  0
 59 61  1  0  0  0
 59 62  1  0  0  0
 60133  1  0  0  0
 60134  1  0  0  0
 60135  1  0  0  0
 61136  1  0  0  0
 61137  1  0  0  0
 61138  1  0  0  0
 62139  1  0  0  0
 62140  1  0  0  0
 62141  1  0  0  0
 63 65  1  0  0  0
 63142  1  0  0  0
 63143  1  0  0  0
 63144  1  0  0  0
 64145  1  0  0  0
 65146  1  0  0  0
 68 82  1  0  0  0
 71 72  2  0  0  0
 71 73  1  0  0  0
 71147  1  0  0  0
 72 83  1  0  0  0
 72148  1  0  0  0
 73 84  2  0  0  0
 73 86  1  0  0  0
 74 80  1  0  0  0
 74 83  2  0  0  0
 74 84  1  0  0  0
 75 76  1  0  0  0
 75 77  1  0  0  0
 75149  1  0  0  0
 75150  1  0  0  0
 76 85  1  0  0  0
 76151  1  0  0  0
 76152  1  0  0  0
 77 78  1  0  0  0
 77 86  1  0  0  0
 77153  1  0  0  0
 78 79  1  0  0  0
 78 85  1  0  0  0
 78154  1  0  0  0
 79155  1  0  0  0
 79156  1  0  0  0
 79157  1  0  0  0
 80 87  1  0  0  0
 80158  1  0  0  0
 80159  1  0  0  0
 81 82  1  0  0  0
 81 87  1  0  0  0
 81160  1  0  0  0
 81161  1  0  0  0
 82162  1  0  0  0
 82163  1  0  0  0
 86164  1  0  0  0
 87165  1  0  0  0
 87166  1  0  0  0
M  CHG  1  87   1
M  ISO  4   1 100  68 101  82 101  85 100
M  END
> <chiral flag>
0

> <version>
0

> <s_m_source_file>
/data/baiqing/PycharmProjects/Reinvent-master-3.2/result/LINK_invent/BTK/process_docking_weight1_custom_sum_contain_oxygen_bond_distance_aromatic_linkinvent_7_9_3/rearranged_h_0197.sdf

> <i_m_source_file_index>
58

> <r_mmod_Potential_Energy-OPLS-2005>
-664.894104003906

> <r_mmod_Stretch_Energy-OPLS-2005>
32.0628242492676

> <r_mmod_Bend_Energy-OPLS-2005>
123.265258789062

> <r_mmod_Torsional_Energy-OPLS-2005>
370.243286132812

> <r_mmod_Improper_Torsional_Energy-OPLS-2005>
7.337317943573

> <r_mmod_Van_der_Waal_Energy-OPLS-2005>
162.464996337891

> <r_mmod_Electrostatic_Energy-OPLS-2005>
-926.231994628906

> <r_mmod_Solvation_Energy-OPLS-2005>
-440.438354492188

> <b_mmod_Minimization_Converged-OPLS-2005>
0

> <r_mmod_RMS_Derivative-OPLS-2005>
1.21513795852661

$$$$
58
                    3D
 Structure written by MMmdl.
168177  0  0  1  0            999 V2000
  -30.6606  -14.6703   20.4778 C   0  0  0  0  0  0
  -30.4236  -12.4106   19.4639 C   0  0  0  0  0  0
  -29.5039  -12.4999   18.2279 C   0  0  0  0  0  0
  -28.0282  -12.3398   18.6410 C   0  0  0  0  0  0
  -27.6448  -13.2285   19.8553 C   0  0  2  0  0  0
  -28.6908  -13.1326   20.9871 C   0  0  0  0  0  0
  -25.2521  -13.8194   20.5691 C   0  0  0  0  0  0
  -24.1805  -13.0443   20.9197 C   0  0  0  0  0  0
  -24.6392  -11.6920   20.8743 C   0  0  0  0  0  0
  -23.9066  -10.4296   21.0404 C   0  0  0  0  0  0
  -24.3617   -9.4213   21.9181 C   0  0  0  0  0  0
  -23.6297   -8.2245   22.0751 C   0  0  0  0  0  0
  -22.4276   -8.0280   21.3544 C   0  0  0  0  0  0
  -21.9911   -9.0252   20.4645 C   0  0  0  0  0  0
  -22.7238  -10.2135   20.3055 C   0  0  0  0  0  0
  -21.6853   -6.0734   22.5279 C   0  0  0  0  0  0
  -21.4015   -6.5637   23.8213 C   0  0  0  0  0  0
  -21.3660   -5.6790   24.9174 C   0  0  0  0  0  0
  -21.6045   -4.3052   24.7224 C   0  0  0  0  0  0
  -21.8818   -3.8144   23.4344 C   0  0  0  0  0  0
  -21.9194   -4.6961   22.3400 C   0  0  0  0  0  0
  -22.7830  -13.5228   21.1860 C   0  0  0  0  0  0
  -22.1663   -4.2146   21.0978 F   0  0  0  0  0  0
  -21.5630   -3.4538   25.7737 F   0  0  0  0  0  0
  -29.9950  -13.4699   20.4040 N   0  0  0  0  0  0
  -26.2954  -12.9400   20.3305 N   0  0  0  0  0  0
  -25.9324  -11.6543   20.5759 N   0  0  0  0  0  0
  -22.0474  -12.8222   22.0418 N   0  0  0  0  0  0
  -25.4214  -15.1912   20.4095 N   0  0  0  0  0  0
  -31.8501  -14.7259   20.1496 O   0  0  0  0  0  0
  -21.6641   -6.8878   21.4241 O   0  0  0  0  0  0
  -22.3514  -14.5534   20.6707 O   0  0  0  0  0  0
  -24.6284  -31.8592   23.2038 C   0  0  0  0  0  0
  -25.9128  -32.4774   23.8361 C   0  0  1  0  0  0
  -27.2119  -27.2958   20.1175 C   0  0  0  0  0  0
  -25.5940  -33.8576   24.2282 N   0  0  0  0  0  0
  -23.4223  -30.4860   21.5465 C   0  0  2  0  0  0
  -24.8677  -28.9467   20.1067 C   0  0  0  0  0  0
  -22.7487  -29.4625   22.4921 C   0  0  0  0  0  0
  -18.0291  -28.1384   22.8484 C   0  0  0  0  0  0
  -24.1491  -36.7293   23.2638 C   0  0  0  0  0  0
  -25.9674  -30.7817   21.3817 C   0  0  0  0  0  0
  -26.0388  -29.4098   20.7196 C   0  0  0  0  0  0
  -27.2136  -28.5952   20.7195 C   0  0  0  0  0  0
  -26.0206  -26.9080   19.4566 C   0  0  0  0  0  0
  -24.8621  -27.7017   19.4653 C   0  0  0  0  0  0
  -23.6377  -29.8286   20.1593 C   0  0  0  0  0  0
  -25.4115  -36.3080   24.0328 C   0  0  1  0  0  0
  -20.5893  -28.3693   23.1273 C   0  0  2  0  0  0
  -20.6779  -26.9414   22.5405 C   0  0  0  0  0  0
  -19.5754  -26.6384   21.5209 C   0  0  0  0  0  0
  -18.1935  -26.7927   22.1622 C   0  0  0  0  0  0
  -19.1544  -28.8854   23.2874 C   0  0  0  0  0  0
  -18.9467  -30.1456   23.8894 C   0  0  0  0  0  0
  -17.6467  -30.6587   24.0560 C   0  0  0  0  0  0
  -25.9055  -34.9449   23.5104 C   0  0  0  0  0  0
  -16.5358  -29.9085   23.6330 C   0  0  0  0  0  0
  -16.7276  -28.6501   23.0354 C   0  0  0  0  0  0
  -26.4504  -31.6588   25.0738 C   0  0  0  0  0  0
  -25.3731  -31.3741   26.1464 C   0  0  0  0  0  0
  -27.0350  -30.3004   24.6217 C   0  0  0  0  0  0
  -27.6060  -32.4325   25.7509 C   0  0  0  0  0  0
  -27.5581  -37.1801   24.8462 C   0  0  0  0  0  0
  -21.4198  -29.3047   22.3666 N   0  0  0  0  0  0
  -26.4291  -37.3777   23.9409 N   0  0  0  0  0  0
  -24.6915  -31.0590   22.1003 N   0  0  0  0  0  0
  -23.4204  -28.8157   23.2999 O   0  0  0  0  0  0
  -28.2967  -26.3980   20.2052 O   0  0  0  0  0  0
  -26.5618  -34.8916   22.4667 O   0  0  0  0  0  0
  -23.5442  -32.1403   23.7353 O   0  0  0  0  0  0
  -28.9391  -23.8189   20.5127 C   0  0  0  0  0  0
  -30.0232  -23.8913   21.3620 C   0  0  0  0  0  0
  -29.6754  -21.7371   20.8990 C   0  0  0  0  0  0
  -29.4348  -17.9629   21.8276 C   0  0  0  0  0  0
  -30.3753  -18.2662   19.5908 C   0  0  0  0  0  0
  -29.1203  -16.4476   21.5125 C   0  0  0  0  0  0
  -30.0119  -16.7749   19.2621 C   0  0  0  0  0  0
  -29.4440  -18.9564   20.6207 C   0  0  0  0  0  0
  -31.7616  -25.7195   21.1540 C   0  0  0  0  0  0
  -31.2272  -21.9007   23.8484 C   0  0  0  0  0  0
  -28.0008  -24.9514   19.9832 C   0  0  0  0  0  0
  -30.6387  -25.1042   21.9955 C   0  0  0  0  0  0
  -31.6391  -22.2102   22.4022 C   0  0  0  0  0  0
  -28.7305  -22.4295   20.2340 N   0  0  0  0  0  0
  -30.4921  -22.5808   21.5748 N   0  0  0  0  0  0
  -29.9123  -15.8387   20.4162 N   0  0  0  0  0  0
  -29.9111  -20.3264   21.0104 N   0  0  0  0  0  0
  -31.4673  -12.5119   19.1614 H   0  0  0  0  0  0
  -30.3465  -11.4294   19.9345 H   0  0  0  0  0  0
  -29.7745  -11.7338   17.5003 H   0  0  0  0  0  0
  -29.6448  -13.4602   17.7293 H   0  0  0  0  0  0
  -27.8710  -11.2899   18.8903 H   0  0  0  0  0  0
  -27.3730  -12.5512   17.7953 H   0  0  0  0  0  0
  -27.6493  -14.2565   19.4932 H   0  0  0  0  0  0
  -28.7124  -12.1281   21.4115 H   0  0  0  0  0  0
  -28.4342  -13.8010   21.8082 H   0  0  0  0  0  0
  -25.2762   -9.5695   22.4755 H   0  0  0  0  0  0
  -24.0008   -7.4637   22.7469 H   0  0  0  0  0  0
  -21.0842   -8.8772   19.8953 H   0  0  0  0  0  0
  -22.3692  -10.9673   19.6167 H   0  0  0  0  0  0
  -21.2007   -7.6147   23.9716 H   0  0  0  0  0  0
  -21.1484   -6.0519   25.9079 H   0  0  0  0  0  0
  -22.0598   -2.7607   23.2842 H   0  0  0  0  0  0
  -22.4093  -11.9890   22.4816 H   0  0  0  0  0  0
  -21.1090  -13.1249   22.2615 H   0  0  0  0  0  0
  -24.6550  -15.8464   20.5187 H   0  0  0  0  0  0
  -26.2737  -15.6283   20.0839 H   0  0  0  0  0  0
  -26.7194  -32.5433   23.1104 H   0  0  0  0  0  0
  -25.0085  -33.9718   25.0425 H   0  0  0  0  0  0
  -22.7170  -31.3079   21.4064 H   0  0  0  0  0  0
  -23.3753  -35.9627   23.3298 H   0  0  0  0  0  0
  -24.3583  -36.8915   22.2053 H   0  0  0  0  0  0
  -23.7246  -37.6496   23.6659 H   0  0  0  0  0  0
  -26.1063  -31.5464   20.6161 H   0  0  0  0  0  0
  -26.8453  -30.8251   22.0146 H   0  0  0  0  0  0
  -28.1055  -28.9389   21.2247 H   0  0  0  0  0  0
  -25.9403  -25.9662   18.9353 H   0  0  0  0  0  0
  -23.9681  -27.3453   18.9722 H   0  0  0  0  0  0
  -23.7597  -30.6088   19.4070 H   0  0  0  0  0  0
  -22.7564  -29.2621   19.8535 H   0  0  0  0  0  0
  -25.1295  -36.1931   25.0821 H   0  0  0  0  0  0
  -20.9987  -28.3269   24.1393 H   0  0  0  0  0  0
  -20.5679  -26.2304   23.3607 H   0  0  0  0  0  0
  -21.6647  -26.7441   22.1201 H   0  0  0  0  0  0
  -19.6917  -25.6294   21.1242 H   0  0  0  0  0  0
  -19.6692  -27.3190   20.6736 H   0  0  0  0  0  0
  -17.4205  -26.6672   21.4025 H   0  0  0  0  0  0
  -18.0339  -26.0069   22.9019 H   0  0  0  0  0  0
  -19.7944  -30.7269   24.2263 H   0  0  0  0  0  0
  -17.5025  -31.6268   24.5162 H   0  0  0  0  0  0
  -15.5358  -30.2987   23.7658 H   0  0  0  0  0  0
  -15.8676  -28.0818   22.7073 H   0  0  0  0  0  0
  -24.5903  -30.7089   25.7798 H   0  0  0  0  0  0
  -24.8926  -32.2915   26.4875 H   0  0  0  0  0  0
  -25.8052  -30.8931   27.0247 H   0  0  0  0  0  0
  -26.2933  -29.6751   24.1232 H   0  0  0  0  0  0
  -27.4023  -29.7266   25.4736 H   0  0  0  0  0  0
  -27.8817  -30.4277   23.9467 H   0  0  0  0  0  0
  -27.2668  -33.3626   26.2080 H   0  0  0  0  0  0
  -28.3877  -32.6882   25.0344 H   0  0  0  0  0  0
  -28.0722  -31.8455   26.5433 H   0  0  0  0  0  0
  -28.2594  -38.0103   24.7515 H   0  0  0  0  0  0
  -28.1082  -36.2635   24.6278 H   0  0  0  0  0  0
  -27.2301  -37.1440   25.8865 H   0  0  0  0  0  0
  -20.9377  -29.8779   21.6884 H   0  0  0  0  0  0
  -26.0172  -38.2852   24.1411 H   0  0  0  0  0  0
  -30.4095  -17.9988   22.3165 H   0  0  0  0  0  0
  -28.7233  -18.3178   22.5744 H   0  0  0  0  0  0
  -30.3733  -18.8435   18.6652 H   0  0  0  0  0  0
  -31.4037  -18.2950   19.9538 H   0  0  0  0  0  0
  -28.0665  -16.3504   21.2505 H   0  0  0  0  0  0
  -29.2582  -15.8687   22.4270 H   0  0  0  0  0  0
  -30.7250  -16.3963   18.5275 H   0  0  0  0  0  0
  -29.0468  -16.7557   18.7542 H   0  0  0  0  0  0
  -28.4377  -19.0374   20.2062 H   0  0  0  0  0  0
  -32.1734  -26.6022   21.6441 H   0  0  0  0  0  0
  -31.3947  -26.0260   20.1740 H   0  0  0  0  0  0
  -32.5782  -25.0141   21.0003 H   0  0  0  0  0  0
  -32.0940  -21.6167   24.4458 H   0  0  0  0  0  0
  -30.5120  -21.0789   23.8930 H   0  0  0  0  0  0
  -30.7678  -22.7679   24.3235 H   0  0  0  0  0  0
  -27.0240  -24.7372   20.4187 H   0  0  0  0  0  0
  -27.8870  -24.8149   18.9071 H   0  0  0  0  0  0
  -31.0185  -24.8614   22.9881 H   0  0  0  0  0  0
  -29.8684  -25.8559   22.1688 H   0  0  0  0  0  0
  -32.1465  -21.3539   21.9572 H   0  0  0  0  0  0
  -32.3711  -23.0170   22.3857 H   0  0  0  0  0  0
  -30.7057  -20.2104   21.6272 H   0  0  0  0  0  0
  1 25  1  0  0  0
  1 30  2  0  0  0
  1 86  1  0  0  0
  2  3  1  0  0  0
  2 25  1  0  0  0
  2 88  1  0  0  0
  2 89  1  0  0  0
  3  4  1  0  0  0
  3 90  1  0  0  0
  3 91  1  0  0  0
  4  5  1  0  0  0
  4 92  1  0  0  0
  4 93  1  0  0  0
  5  6  1  0  0  0
  5 26  1  0  0  0
  5 94  1  0  0  0
  6 25  1  0  0  0
  6 95  1  0  0  0
  6 96  1  0  0  0
  7  8  2  0  0  0
  7 26  1  0  0  0
  7 29  1  0  0  0
  8  9  1  0  0  0
  8 22  1  0  0  0
  9 10  1  0  0  0
  9 27  2  0  0  0
 10 11  2  0  0  0
 10 15  1  0  0  0
 11 12  1  0  0  0
 11 97  1  0  0  0
 12 13  2  0  0  0
 12 98  1  0  0  0
 13 14  1  0  0  0
 13 31  1  0  0  0
 14 15  2  0  0  0
 14 99  1  0  0  0
 15100  1  0  0  0
 16 17  2  0  0  0
 16 21  1  0  0  0
 16 31  1  0  0  0
 17 18  1  0  0  0
 17101  1  0  0  0
 18 19  2  0  0  0
 18102  1  0  0  0
 19 20  1  0  0  0
 19 24  1  0  0  0
 20 21  2  0  0  0
 20103  1  0  0  0
 21 23  1  0  0  0
 22 28  1  0  0  0
 22 32  2  0  0  0
 26 27  1  0  0  0
 28104  1  0  0  0
 28105  1  0  0  0
 29106  1  0  0  0
 29107  1  0  0  0
 33 34  1  0  0  0
 33 66  1  0  0  0
 33 70  2  0  0  0
 34 36  1  0  0  0
 34 59  1  0  0  0
 34108  1  0  0  0
 35 44  2  0  0  0
 35 45  1  0  0  0
 35 68  1  0  0  0
 36 56  1  0  0  0
 36109  1  0  0  0
 37 39  1  0  0  0
 37 47  1  0  0  0
 37 66  1  0  0  0
 37110  1  0  0  0
 38 43  2  0  0  0
 38 46  1  0  0  0
 38 47  1  0  0  0
 39 64  1  0  0  0
 39 67  2  0  0  0
 40 52  1  0  0  0
 40 53  2  0  0  0
 40 58  1  0  0  0
 41111  1  0  0  0
 41112  1  0  0  0
 41113  1  0  0  0
 41 48  1  0  0  0
 42 43  1  0  0  0
 42 66  1  0  0  0
 42114  1  0  0  0
 42115  1  0  0  0
 43 44  1  0  0  0
 44116  1  0  0  0
 45 46  2  0  0  0
 45117  1  0  0  0
 46118  1  0  0  0
 47119  1  0  0  0
 47120  1  0  0  0
 48 56  1  0  0  0
 48 65  1  0  0  0
 48121  1  0  0  0
 49 50  1  0  0  0
 49 53  1  0  0  0
 49 64  1  0  0  0
 49122  1  0  0  0
 50 51  1  0  0  0
 50123  1  0  0  0
 50124  1  0  0  0
 51 52  1  0  0  0
 51125  1  0  0  0
 51126  1  0  0  0
 52127  1  0  0  0
 52128  1  0  0  0
 53 54  1  0  0  0
 54 55  2  0  0  0
 54129  1  0  0  0
 55 57  1  0  0  0
 55130  1  0  0  0
 56 69  2  0  0  0
 57 58  2  0  0  0
 57131  1  0  0  0
 58132  1  0  0  0
 59 60  1  0  0  0
 59 61  1  0  0  0
 59 62  1  0  0  0
 60133  1  0  0  0
 60134  1  0  0  0
 60135  1  0  0  0
 61136  1  0  0  0
 61137  1  0  0  0
 61138  1  0  0  0
 62139  1  0  0  0
 62140  1  0  0  0
 62141  1  0  0  0
 63 65  1  0  0  0
 63142  1  0  0  0
 63143  1  0  0  0
 63144  1  0  0  0
 64145  1  0  0  0
 65146  1  0  0  0
 68 81  1  0  0  0
 71 72  2  0  0  0
 71 81  1  0  0  0
 71 84  1  0  0  0
 72 82  1  0  0  0
 72 85  1  0  0  0
 73 84  2  0  0  0
 73 85  1  0  0  0
 73 87  1  0  0  0
 74 76  1  0  0  0
 74 78  1  0  0  0
 74147  1  0  0  0
 74148  1  0  0  0
 75 77  1  0  0  0
 75 78  1  0  0  0
 75149  1  0  0  0
 75150  1  0  0  0
 76 86  1  0  0  0
 76151  1  0  0  0
 76152  1  0  0  0
 77 86  1  0  0  0
 77153  1  0  0  0
 77154  1  0  0  0
 78 87  1  0  0  0
 78155  1  0  0  0
 79 82  1  0  0  0
 79156  1  0  0  0
 79157  1  0  0  0
 79158  1  0  0  0
 80 83  1  0  0  0
 80159  1  0  0  0
 80160  1  0  0  0
 80161  1  0  0  0
 81162  1  0  0  0
 81163  1  0  0  0
 82164  1  0  0  0
 82165  1  0  0  0
 83 85  1  0  0  0
 83166  1  0  0  0
 83167  1  0  0  0
 87168  1  0  0  0
M  ISO  4   1 100  68 101  81 101  86 100
M  END
> <chiral flag>
0

> <version>
0

> <s_m_source_file>
/data/baiqing/PycharmProjects/Reinvent-master-3.2/result/LINK_invent/BTK/process_docking_weight1_custom_sum_contain_oxygen_bond_distance_aromatic_linkinvent_7_9_3/rearranged_h_0197.sdf

> <i_m_source_file_index>
59

> <r_mmod_Potential_Energy-OPLS-2005>
244.142532348633

> <r_mmod_Stretch_Energy-OPLS-2005>
85.1360855102539

> <r_mmod_Bend_Energy-OPLS-2005>
166.522399902344

> <r_mmod_Torsional_Energy-OPLS-2005>
336.504974365234

> <r_mmod_Improper_Torsional_Energy-OPLS-2005>
16.5186462402344

> <r_mmod_Van_der_Waal_Energy-OPLS-2005>
120.132041931152

> <r_mmod_Electrostatic_Energy-OPLS-2005>
-329.81103515625

> <r_mmod_Solvation_Energy-OPLS-2005>
-215.724899291992

> <b_mmod_Minimization_Converged-OPLS-2005>
0

> <r_mmod_RMS_Derivative-OPLS-2005>
0.601998031139374

$$$$
59
                    3D
 Structure written by MMmdl.
154163  0  0  1  0            999 V2000
  -30.5119  -15.1006   20.3721 C   0  0  0  0  0  0
  -30.4249  -12.6835   19.5137 C   0  0  0  0  0  0
  -29.5190  -12.5471   18.2669 C   0  0  0  0  0  0
  -28.0559  -12.3193   18.6857 C   0  0  0  0  0  0
  -27.6146  -13.2712   19.8270 C   0  0  2  0  0  0
  -28.6555  -13.3874   20.9606 C   0  0  0  0  0  0
  -25.2409  -13.8263   20.5782 C   0  0  0  0  0  0
  -24.1744  -13.0458   20.9255 C   0  0  0  0  0  0
  -24.6389  -11.6943   20.8766 C   0  0  0  0  0  0
  -23.9094  -10.4306   21.0394 C   0  0  0  0  0  0
  -24.3639   -9.4218   21.9171 C   0  0  0  0  0  0
  -23.6311   -8.2252   22.0743 C   0  0  0  0  0  0
  -22.4287   -8.0293   21.3537 C   0  0  0  0  0  0
  -21.9931   -9.0265   20.4631 C   0  0  0  0  0  0
  -22.7267  -10.2142   20.3037 C   0  0  0  0  0  0
  -21.6861   -6.0743   22.5281 C   0  0  0  0  0  0
  -21.4015   -6.5643   23.8214 C   0  0  0  0  0  0
  -21.3664   -5.6795   24.9176 C   0  0  0  0  0  0
  -21.6042   -4.3057   24.7223 C   0  0  0  0  0  0
  -21.8821   -3.8152   23.4343 C   0  0  0  0  0  0
  -21.9195   -4.6970   22.3403 C   0  0  0  0  0  0
  -22.7759  -13.5189   21.1932 C   0  0  0  0  0  0
  -22.1664   -4.2153   21.0979 F   0  0  0  0  0  0
  -21.5635   -3.4542   25.7737 F   0  0  0  0  0  0
  -29.9104  -13.8264   20.3403 N   0  0  0  0  0  0
  -26.2827  -12.9532   20.3241 N   0  0  0  0  0  0
  -25.9330  -11.6636   20.5734 N   0  0  0  0  0  0
  -22.0438  -12.8124   22.0461 N   0  0  0  0  0  0
  -25.4110  -15.2009   20.4305 N   0  0  0  0  0  0
  -31.7271  -15.0961   20.1380 O   0  0  0  0  0  0
  -21.6648   -6.8890   21.4241 O   0  0  0  0  0  0
  -22.3425  -14.5504   20.6807 O   0  0  0  0  0  0
  -24.6500  -31.8363   23.1744 C   0  0  0  0  0  0
  -25.9229  -32.4665   23.8184 C   0  0  1  0  0  0
  -27.2134  -27.0369   20.1710 C   0  0  0  0  0  0
  -25.5918  -33.8468   24.2081 N   0  0  0  0  0  0
  -23.4585  -30.4508   21.5250 C   0  0  2  0  0  0
  -24.9062  -28.8535   20.1143 C   0  0  0  0  0  0
  -22.7609  -29.4500   22.4827 C   0  0  0  0  0  0
  -18.0328  -28.1403   22.8517 C   0  0  0  0  0  0
  -24.1475  -36.7227   23.2655 C   0  0  0  0  0  0
  -26.0205  -30.6766   21.3868 C   0  0  0  0  0  0
  -26.0886  -29.2760   20.7338 C   0  0  0  0  0  0
  -27.2414  -28.3893   20.7371 C   0  0  0  0  0  0
  -25.9998  -26.7326   19.5156 C   0  0  0  0  0  0
  -24.8792  -27.5952   19.4905 C   0  0  0  0  0  0
  -23.6870  -29.7690   20.1494 C   0  0  0  0  0  0
  -25.4111  -36.3010   24.0315 C   0  0  1  0  0  0
  -20.5954  -28.3713   23.1242 C   0  0  2  0  0  0
  -20.6791  -26.9412   22.5413 C   0  0  0  0  0  0
  -19.5741  -26.6394   21.5238 C   0  0  0  0  0  0
  -18.1940  -26.7952   22.1665 C   0  0  0  0  0  0
  -19.1598  -28.8884   23.2879 C   0  0  0  0  0  0
  -18.9515  -30.1491   23.8888 C   0  0  0  0  0  0
  -17.6510  -30.6604   24.0578 C   0  0  0  0  0  0
  -25.9077  -34.9400   23.5011 C   0  0  0  0  0  0
  -16.5393  -29.9092   23.6358 C   0  0  0  0  0  0
  -16.7323  -28.6509   23.0386 C   0  0  0  0  0  0
  -26.4481  -31.6583   25.0693 C   0  0  0  0  0  0
  -25.3610  -31.3870   26.1358 C   0  0  0  0  0  0
  -27.0330  -30.2949   24.6364 C   0  0  0  0  0  0
  -27.6004  -32.4351   25.7500 C   0  0  0  0  0  0
  -27.5562  -37.1752   24.8469 C   0  0  0  0  0  0
  -21.4296  -29.3028   22.3601 N   0  0  0  0  0  0
  -26.4257  -37.3733   23.9435 N   0  0  0  0  0  0
  -24.7311  -31.0131   22.0819 N   0  0  0  0  0  0
  -23.4229  -28.8097   23.3033 O   0  0  0  0  0  0
  -28.2517  -26.0048   20.2018 O   0  0  0  0  0  0
  -26.5732  -34.8931   22.4635 O   0  0  0  0  0  0
  -23.5586  -32.1275   23.6881 O   0  0  0  0  0  0
  -30.3359  -21.8815   18.6763 C   0  0  0  0  0  0
  -28.5738  -21.5519   20.5999 C   0  0  0  0  0  0
  -29.3004  -20.3241   20.0728 C   0  0  0  0  0  0
  -28.7794  -22.9466   20.0390 C   0  0  0  0  0  0
  -30.3917  -17.6803   21.0961 C   0  0  0  0  0  0
  -29.2773  -17.3556   19.4819 C   0  0  0  0  0  0
  -29.2899  -18.6497   20.4457 C   0  0  0  0  0  0
  -26.6393  -20.4853   21.6974 C   0  0  0  0  0  0
  -27.9699  -24.4297   20.3504 C   0  0  0  0  0  0
  -30.1789  -20.6188   19.0932 N   0  0  0  0  0  0
  -29.7155  -22.9994   19.0669 N   0  0  0  0  0  0
  -29.8025  -16.3675   20.5400 N   0  0  0  0  0  0
  -27.7123  -21.4686   21.7051 N   0  0  0  0  0  0
  -31.4587  -12.8348   19.2020 H   0  0  0  0  0  0
  -30.4282  -11.7569   20.0898 H   0  0  0  0  0  0
  -29.8576  -11.7272   17.6319 H   0  0  0  0  0  0
  -29.5904  -13.4519   17.6618 H   0  0  0  0  0  0
  -27.9625  -11.2840   19.0128 H   0  0  0  0  0  0
  -27.3940  -12.4277   17.8249 H   0  0  0  0  0  0
  -27.5480  -14.2541   19.3604 H   0  0  0  0  0  0
  -28.7799  -12.4434   21.4913 H   0  0  0  0  0  0
  -28.3354  -14.1260   21.6975 H   0  0  0  0  0  0
  -25.2777   -9.5699   22.4759 H   0  0  0  0  0  0
  -24.0033   -7.4632   22.7448 H   0  0  0  0  0  0
  -21.0875   -8.8762   19.8931 H   0  0  0  0  0  0
  -22.3709  -10.9675   19.6152 H   0  0  0  0  0  0
  -21.1999   -7.6150   23.9709 H   0  0  0  0  0  0
  -21.1489   -6.0529   25.9074 H   0  0  0  0  0  0
  -22.0596   -2.7614   23.2836 H   0  0  0  0  0  0
  -22.4086  -11.9767   22.4795 H   0  0  0  0  0  0
  -21.1050  -13.1092   22.2716 H   0  0  0  0  0  0
  -24.6600  -15.8649   20.5815 H   0  0  0  0  0  0
  -26.2775  -15.6398   20.1461 H   0  0  0  0  0  0
  -26.7297  -32.5233   23.0910 H   0  0  0  0  0  0
  -24.9963  -33.9552   25.0160 H   0  0  0  0  0  0
  -22.7652  -31.2783   21.3612 H   0  0  0  0  0  0
  -23.3755  -35.9538   23.3309 H   0  0  0  0  0  0
  -24.3554  -36.8861   22.2070 H   0  0  0  0  0  0
  -23.7199  -37.6406   23.6692 H   0  0  0  0  0  0
  -26.1864  -31.4208   20.6080 H   0  0  0  0  0  0
  -26.8854  -30.7302   22.0369 H   0  0  0  0  0  0
  -28.1384  -28.7211   21.2415 H   0  0  0  0  0  0
  -25.8962  -25.7730   19.0283 H   0  0  0  0  0  0
  -23.9751  -27.2608   18.9995 H   0  0  0  0  0  0
  -23.8228  -30.5365   19.3857 H   0  0  0  0  0  0
  -22.7959  -29.2138   19.8487 H   0  0  0  0  0  0
  -25.1292  -36.1810   25.0800 H   0  0  0  0  0  0
  -21.0061  -28.3293   24.1356 H   0  0  0  0  0  0
  -20.5639  -26.2346   23.3642 H   0  0  0  0  0  0
  -21.6659  -26.7369   22.1235 H   0  0  0  0  0  0
  -19.6872  -25.6302   21.1268 H   0  0  0  0  0  0
  -19.6667  -27.3227   20.6790 H   0  0  0  0  0  0
  -17.4202  -26.6759   21.4072 H   0  0  0  0  0  0
  -18.0281  -26.0104   22.9061 H   0  0  0  0  0  0
  -19.7996  -30.7324   24.2222 H   0  0  0  0  0  0
  -17.5073  -31.6289   24.5167 H   0  0  0  0  0  0
  -15.5391  -30.2990   23.7674 H   0  0  0  0  0  0
  -15.8746  -28.0816   22.7083 H   0  0  0  0  0  0
  -24.5877  -30.7088   25.7730 H   0  0  0  0  0  0
  -24.8684  -32.3071   26.4510 H   0  0  0  0  0  0
  -25.7846  -30.9295   27.0305 H   0  0  0  0  0  0
  -26.2962  -29.6703   24.1292 H   0  0  0  0  0  0
  -27.3821  -29.7229   25.4971 H   0  0  0  0  0  0
  -27.8916  -30.4166   23.9765 H   0  0  0  0  0  0
  -27.2613  -33.3735   26.1895 H   0  0  0  0  0  0
  -28.3915  -32.6748   25.0390 H   0  0  0  0  0  0
  -28.0541  -31.8580   26.5564 H   0  0  0  0  0  0
  -28.2543  -38.0089   24.7559 H   0  0  0  0  0  0
  -28.1090  -36.2614   24.6220 H   0  0  0  0  0  0
  -27.2303  -37.1310   25.8879 H   0  0  0  0  0  0
  -20.9499  -29.8727   21.6775 H   0  0  0  0  0  0
  -26.0124  -38.2789   24.1470 H   0  0  0  0  0  0
  -31.0685  -22.0205   17.8960 H   0  0  0  0  0  0
  -30.4128  -17.7397   22.1843 H   0  0  0  0  0  0
  -31.3901  -17.8962   20.7081 H   0  0  0  0  0  0
  -29.9596  -17.4787   18.6378 H   0  0  0  0  0  0
  -28.2825  -17.1259   19.0994 H   0  0  0  0  0  0
  -28.4049  -18.5495   21.0667 H   0  0  0  0  0  0
  -26.9196  -19.5996   22.2676 H   0  0  0  0  0  0
  -26.3470  -20.1932   20.6867 H   0  0  0  0  0  0
  -25.7610  -20.9117   22.1874 H   0  0  0  0  0  0
  -27.8817  -24.5099   19.2664 H   0  0  0  0  0  0
  -28.8458  -24.5639   20.9844 H   0  0  0  0  0  0
  -27.4469  -22.3621   22.1195 H   0  0  0  0  0  0
  1 25  1  0  0  0
  1 30  2  0  0  0
  1 82  1  0  0  0
  2  3  1  0  0  0
  2 25  1  0  0  0
  2 84  1  0  0  0
  2 85  1  0  0  0
  3  4  1  0  0  0
  3 86  1  0  0  0
  3 87  1  0  0  0
  4  5  1  0  0  0
  4 88  1  0  0  0
  4 89  1  0  0  0
  5  6  1  0  0  0
  5 26  1  0  0  0
  5 90  1  0  0  0
  6 25  1  0  0  0
  6 91  1  0  0  0
  6 92  1  0  0  0
  7  8  2  0  0  0
  7 26  1  0  0  0
  7 29  1  0  0  0
  8  9  1  0  0  0
  8 22  1  0  0  0
  9 10  1  0  0  0
  9 27  2  0  0  0
 10 11  2  0  0  0
 10 15  1  0  0  0
 11 12  1  0  0  0
 11 93  1  0  0  0
 12 13  2  0  0  0
 12 94  1  0  0  0
 13 14  1  0  0  0
 13 31  1  0  0  0
 14 15  2  0  0  0
 14 95  1  0  0  0
 15 96  1  0  0  0
 16 17  2  0  0  0
 16 21  1  0  0  0
 16 31  1  0  0  0
 17 18  1  0  0  0
 17 97  1  0  0  0
 18 19  2  0  0  0
 18 98  1  0  0  0
 19 20  1  0  0  0
 19 24  1  0  0  0
 20 21  2  0  0  0
 20 99  1  0  0  0
 21 23  1  0  0  0
 22 28  1  0  0  0
 22 32  2  0  0  0
 26 27  1  0  0  0
 28100  1  0  0  0
 28101  1  0  0  0
 29102  1  0  0  0
 29103  1  0  0  0
 33 34  1  0  0  0
 33 66  1  0  0  0
 33 70  2  0  0  0
 34 36  1  0  0  0
 34 59  1  0  0  0
 34104  1  0  0  0
 35 44  2  0  0  0
 35 45  1  0  0  0
 35 68  1  0  0  0
 36 56  1  0  0  0
 36105  1  0  0  0
 37 39  1  0  0  0
 37 47  1  0  0  0
 37 66  1  0  0  0
 37106  1  0  0  0
 38 43  2  0  0  0
 38 46  1  0  0  0
 38 47  1  0  0  0
 39 64  1  0  0  0
 39 67  2  0  0  0
 40 52  1  0  0  0
 40 53  2  0  0  0
 40 58  1  0  0  0
 41107  1  0  0  0
 41108  1  0  0  0
 41109  1  0  0  0
 41 48  1  0  0  0
 42 43  1  0  0  0
 42 66  1  0  0  0
 42110  1  0  0  0
 42111  1  0  0  0
 43 44  1  0  0  0
 44112  1  0  0  0
 45 46  2  0  0  0
 45113  1  0  0  0
 46114  1  0  0  0
 47115  1  0  0  0
 47116  1  0  0  0
 48 56  1  0  0  0
 48 65  1  0  0  0
 48117  1  0  0  0
 49 50  1  0  0  0
 49 53  1  0  0  0
 49 64  1  0  0  0
 49118  1  0  0  0
 50 51  1  0  0  0
 50119  1  0  0  0
 50120  1  0  0  0
 51 52  1  0  0  0
 51121  1  0  0  0
 51122  1  0  0  0
 52123  1  0  0  0
 52124  1  0  0  0
 53 54  1  0  0  0
 54 55  2  0  0  0
 54125  1  0  0  0
 55 57  1  0  0  0
 55126  1  0  0  0
 56 69  2  0  0  0
 57 58  2  0  0  0
 57127  1  0  0  0
 58128  1  0  0  0
 59 60  1  0  0  0
 59 61  1  0  0  0
 59 62  1  0  0  0
 60129  1  0  0  0
 60130  1  0  0  0
 60131  1  0  0  0
 61132  1  0  0  0
 61133  1  0  0  0
 61134  1  0  0  0
 62135  1  0  0  0
 62136  1  0  0  0
 62137  1  0  0  0
 63 65  1  0  0  0
 63138  1  0  0  0
 63139  1  0  0  0
 63140  1  0  0  0
 64141  1  0  0  0
 65142  1  0  0  0
 68 79  1  0  0  0
 71 80  2  0  0  0
 71 81  1  0  0  0
 71143  1  0  0  0
 72 73  2  0  0  0
 72 74  1  0  0  0
 72 83  1  0  0  0
 73 80  1  0  0  0
 73 77  1  0  0  0
 74 79  1  0  0  0
 74 81  2  0  0  0
 75 77  1  0  0  0
 75 82  1  0  0  0
 75144  1  0  0  0
 75145  1  0  0  0
 76 77  1  0  0  0
 76 82  1  0  0  0
 76146  1  0  0  0
 76147  1  0  0  0
 77148  1  0  0  0
 78 83  1  0  0  0
 78149  1  0  0  0
 78150  1  0  0  0
 78151  1  0  0  0
 79152  1  0  0  0
 79153  1  0  0  0
 83154  1  0  0  0
M  ISO  4   1 100  68 101  79 101  82 100
M  END
> <chiral flag>
0

> <version>
0

> <s_m_source_file>
/data/baiqing/PycharmProjects/Reinvent-master-3.2/result/LINK_invent/BTK/process_docking_weight1_custom_sum_contain_oxygen_bond_distance_aromatic_linkinvent_7_9_3/rearranged_h_0197.sdf

> <i_m_source_file_index>
60

> <r_mmod_Potential_Energy-OPLS-2005>
824.775756835938

> <r_mmod_Stretch_Energy-OPLS-2005>
375.695983886719

> <r_mmod_Bend_Energy-OPLS-2005>
528.981140136719

> <r_mmod_Torsional_Energy-OPLS-2005>
270.602172851562

> <r_mmod_Improper_Torsional_Energy-OPLS-2005>
13.0760583877563

> <r_mmod_Van_der_Waal_Energy-OPLS-2005>
134.768997192383

> <r_mmod_Electrostatic_Energy-OPLS-2005>
-549.242248535156

> <r_mmod_Solvation_Energy-OPLS-2005>
-250.166763305664

> <b_mmod_Minimization_Converged-OPLS-2005>
0

> <r_mmod_RMS_Derivative-OPLS-2005>
3.15914988517761

$$$$
60
                    3D
 Structure written by MMmdl.
174184  0  0  1  0            999 V2000
  -30.9614  -14.1752   20.7587 C   0  0  0  0  0  0
  -31.3166  -12.1661   19.2125 C   0  0  0  0  0  0
  -30.1008  -12.7523   17.7941 C   0  0  0  0  0  0
  -28.5751  -13.8177   18.2208 C   0  0  0  0  0  0
  -27.7548  -13.9685   20.0252 C   0  0  2  0  0  0
  -28.8155  -13.4368   21.5845 C   0  0  0  0  0  0
  -25.2219  -14.3062   21.0318 C   0  0  0  0  0  0
  -23.9049  -13.4581   21.3153 C   0  0  0  0  0  0
  -24.0608  -11.3399   20.3771 C   0  0  0  0  0  0
  -23.7296   -9.9707   20.5790 C   0  0  0  0  0  0
  -24.2985   -9.1310   21.5707 C   0  0  0  0  0  0
  -23.5485   -8.0281   21.9667 C   0  0  0  0  0  0
  -22.3179   -7.8065   21.3049 C   0  0  0  0  0  0
  -21.8717   -8.5989   20.2568 C   0  0  0  0  0  0
  -22.6471   -9.6277   19.8110 C   0  0  0  0  0  0
  -21.6267   -5.9907   22.5865 C   0  0  0  0  0  0
  -21.3629   -6.5086   23.8670 C   0  0  0  0  0  0
  -21.3597   -5.6328   24.9636 C   0  0  0  0  0  0
  -21.6170   -4.2628   24.7635 C   0  0  0  0  0  0
  -21.9058   -3.7641   23.4801 C   0  0  0  0  0  0
  -21.9125   -4.6354   22.3841 C   0  0  0  0  0  0
  -22.7547  -14.3424   21.7314 C   0  0  0  0  0  0
  -22.1582   -4.1750   21.1326 F   0  0  0  0  0  0
  -21.5815   -3.4163   25.8147 F   0  0  0  0  0  0
  -30.5914  -12.9887   20.8700 N   0  0  0  0  0  0
  -26.3167  -13.4475   20.2076 N   0  0  0  0  0  0
  -25.3053  -11.2891   19.7064 N   0  0  0  0  0  0
  -22.1205  -14.0342   22.8446 N   0  0  0  0  0  0
  -25.4505  -15.6446   21.0361 N   0  0  0  0  0  0
  -31.8878  -14.7679   20.2081 O   0  0  0  0  0  0
  -21.4973   -6.7593   21.4924 O   0  0  0  0  0  0
  -22.3250  -15.1789   20.9546 O   0  0  0  0  0  0
  -24.6764  -31.8228   23.1768 C   0  0  0  0  0  0
  -25.9427  -32.4562   23.8212 C   0  0  1  0  0  0
  -26.9641  -26.8142   19.9977 C   0  0  0  0  0  0
  -25.6092  -33.8393   24.2099 N   0  0  0  0  0  0
  -23.4738  -30.4678   21.5415 C   0  0  2  0  0  0
  -24.8604  -28.8758   20.0802 C   0  0  0  0  0  0
  -22.7640  -29.4515   22.4767 C   0  0  0  0  0  0
  -18.0309  -28.1408   22.8453 C   0  0  0  0  0  0
  -24.1484  -36.7157   23.2648 C   0  0  0  0  0  0
  -26.0603  -30.5727   21.4198 C   0  0  0  0  0  0
  -26.0736  -29.1720   20.7145 C   0  0  0  0  0  0
  -27.1415  -28.1481   20.6674 C   0  0  0  0  0  0
  -25.7429  -26.7333   19.3271 C   0  0  0  0  0  0
  -24.7237  -27.6840   19.3819 C   0  0  0  0  0  0
  -23.6915  -29.8422   20.1486 C   0  0  0  0  0  0
  -25.4138  -36.2956   24.0298 C   0  0  1  0  0  0
  -20.5935  -28.3773   23.1142 C   0  0  2  0  0  0
  -20.6804  -26.9461   22.5354 C   0  0  0  0  0  0
  -19.5781  -26.6379   21.5177 C   0  0  0  0  0  0
  -18.1958  -26.7935   22.1598 C   0  0  0  0  0  0
  -19.1575  -28.8902   23.2787 C   0  0  0  0  0  0
  -18.9494  -30.1480   23.8839 C   0  0  0  0  0  0
  -17.6494  -30.6606   24.0541 C   0  0  0  0  0  0
  -25.9137  -34.9344   23.5008 C   0  0  0  0  0  0
  -16.5373  -29.9100   23.6340 C   0  0  0  0  0  0
  -16.7288  -28.6507   23.0376 C   0  0  0  0  0  0
  -26.4629  -31.6534   25.0773 C   0  0  0  0  0  0
  -25.3714  -31.3828   26.1387 C   0  0  0  0  0  0
  -27.0553  -30.2885   24.6617 C   0  0  0  0  0  0
  -27.6087  -32.4362   25.7587 C   0  0  0  0  0  0
  -27.5567  -37.1747   24.8472 C   0  0  0  0  0  0
  -21.4312  -29.3099   22.3519 N   0  0  0  0  0  0
  -26.4270  -37.3713   23.9423 N   0  0  0  0  0  0
  -24.7661  -30.9788   22.0985 N   0  0  0  0  0  0
  -23.4187  -28.8012   23.2947 O   0  0  0  0  0  0
  -27.7277  -25.5251   19.9083 O   0  0  0  0  0  0
  -26.5712  -34.8887   22.4586 O   0  0  0  0  0  0
  -23.5826  -32.1313   23.6812 O   0  0  0  0  0  0
  -26.8307  -12.1338   18.1934 C   0  0  0  0  0  0
  -24.3762  -13.1711   19.2005 C   0  0  0  0  0  0
  -25.4948  -13.2164   18.0191 C   0  0  0  0  0  0
  -25.5884  -12.0799   21.7186 C   0  0  0  0  0  0
  -27.5977  -11.5013   19.6719 C   0  0  0  0  0  0
  -22.4480  -12.7656   19.5218 C   0  0  0  0  0  0
  -23.8891  -11.5906   22.7153 C   0  0  0  0  0  0
  -22.0967  -11.8419   21.4708 C   0  0  0  0  0  0
  -26.5330  -18.9029   17.0783 C   0  0  0  0  0  0
  -26.3503  -17.3249   16.7880 C   0  0  0  0  0  0
  -26.2757  -17.6689   18.9698 C   0  0  0  0  0  0
  -26.9373  -19.2347   18.5416 C   0  0  2  0  0  0
  -25.6418  -14.9303   17.5433 C   0  0  0  0  0  0
  -29.0524  -11.8207   19.8089 C   0  0  0  0  0  0
  -27.5083  -22.2422   19.2125 C   0  0  0  0  0  0
  -27.0383  -23.9959   19.5579 C   0  0  0  0  0  0
  -27.0166  -11.3921   21.2559 N   0  0  0  0  0  0
  -26.3650  -16.4031   17.9639 N   0  0  0  0  0  0
  -30.1024  -13.7297   19.9404 N   0  0  0  0  0  0
  -26.6035  -20.8023   19.1153 N   0  3  0  0  0  0
  -32.3213  -12.5406   19.0135 H   0  0  0  0  0  0
  -31.4433  -11.0846   19.2951 H   0  0  0  0  0  0
  -29.7923  -11.8959   17.1895 H   0  0  0  0  0  0
  -30.6943  -13.3262   17.0823 H   0  0  0  0  0  0
  -27.9628  -13.9864   17.3374 H   0  0  0  0  0  0
  -28.9910  -14.8253   18.1276 H   0  0  0  0  0  0
  -27.6827  -15.0477   20.1338 H   0  0  0  0  0  0
  -28.4780  -12.7359   22.3394 H   0  0  0  0  0  0
  -28.8993  -14.3371   22.1989 H   0  0  0  0  0  0
  -25.2163   -9.3839   22.0864 H   0  0  0  0  0  0
  -23.9078   -7.3751   22.7485 H   0  0  0  0  0  0
  -20.9565   -8.3527   19.7386 H   0  0  0  0  0  0
  -22.3152  -10.1848   18.9590 H   0  0  0  0  0  0
  -21.1279   -7.5553   24.0001 H   0  0  0  0  0  0
  -21.1362   -6.0032   25.9538 H   0  0  0  0  0  0
  -22.1093   -2.7141   23.3360 H   0  0  0  0  0  0
  -22.4399  -13.2945   23.4450 H   0  0  0  0  0  0
  -21.3004  -14.5600   23.1076 H   0  0  0  0  0  0
  -24.6054  -16.1924   21.1314 H   0  0  0  0  0  0
  -25.9551  -15.9132   20.1974 H   0  0  0  0  0  0
  -26.7472  -32.5018   23.0885 H   0  0  0  0  0  0
  -25.0243  -33.9492   25.0250 H   0  0  0  0  0  0
  -22.7916  -31.3102   21.4004 H   0  0  0  0  0  0
  -23.3800  -35.9435   23.3271 H   0  0  0  0  0  0
  -24.3561  -36.8850   22.2076 H   0  0  0  0  0  0
  -23.7174  -37.6299   23.6734 H   0  0  0  0  0  0
  -26.2783  -31.3327   20.6677 H   0  0  0  0  0  0
  -26.9074  -30.5907   22.0907 H   0  0  0  0  0  0
  -28.0602  -28.3359   21.2091 H   0  0  0  0  0  0
  -25.4720  -25.8729   18.7433 H   0  0  0  0  0  0
  -23.7919  -27.4773   18.8738 H   0  0  0  0  0  0
  -23.8811  -30.6370   19.4249 H   0  0  0  0  0  0
  -22.7787  -29.3512   19.8050 H   0  0  0  0  0  0
  -25.1332  -36.1758   25.0791 H   0  0  0  0  0  0
  -21.0006  -28.3373   24.1269 H   0  0  0  0  0  0
  -20.5674  -26.2407   23.3605 H   0  0  0  0  0  0
  -21.6681  -26.7455   22.1178 H   0  0  0  0  0  0
  -19.6972  -25.6270   21.1284 H   0  0  0  0  0  0
  -19.6718  -27.3118   20.6658 H   0  0  0  0  0  0
  -17.4216  -26.6607   21.4016 H   0  0  0  0  0  0
  -18.0404  -26.0081   22.9017 H   0  0  0  0  0  0
  -19.7974  -30.7296   24.2188 H   0  0  0  0  0  0
  -17.5065  -31.6293   24.5155 H   0  0  0  0  0  0
  -15.5381  -30.3009   23.7733 H   0  0  0  0  0  0
  -15.8659  -28.0824   22.7170 H   0  0  0  0  0  0
  -24.5861  -30.7240   25.7665 H   0  0  0  0  0  0
  -24.8963  -32.3059   26.4721 H   0  0  0  0  0  0
  -25.7895  -30.9009   27.0230 H   0  0  0  0  0  0
  -26.3271  -29.6472   24.1638 H   0  0  0  0  0  0
  -27.4029  -29.7367   25.5360 H   0  0  0  0  0  0
  -27.9239  -30.4031   24.0123 H   0  0  0  0  0  0
  -27.2635  -33.3705   26.2028 H   0  0  0  0  0  0
  -28.3978  -32.6843   25.0476 H   0  0  0  0  0  0
  -28.0656  -31.8580   26.5628 H   0  0  0  0  0  0
  -28.2540  -38.0087   24.7561 H   0  0  0  0  0  0
  -28.1102  -36.2609   24.6246 H   0  0  0  0  0  0
  -27.2276  -37.1324   25.8871 H   0  0  0  0  0  0
  -20.9541  -29.8851   21.6721 H   0  0  0  0  0  0
  -26.0100  -38.2757   24.1471 H   0  0  0  0  0  0
  -27.4234  -12.0138   17.2946 H   0  0  0  0  0  0
  -22.1110  -12.1296   18.7068 H   0  0  0  0  0  0
  -21.8096  -13.6246   19.3185 H   0  0  0  0  0  0
  -23.8559  -12.3001   23.5428 H   0  0  0  0  0  0
  -23.9125  -10.6818   23.3116 H   0  0  0  0  0  0
  -21.5771  -10.8957   21.4240 H   0  0  0  0  0  0
  -21.1768  -12.1959   21.9381 H   0  0  0  0  0  0
  -25.5794  -19.3906   16.8735 H   0  0  0  0  0  0
  -27.2384  -19.3422   16.3733 H   0  0  0  0  0  0
  -27.1061  -16.9865   16.0752 H   0  0  0  0  0  0
  -25.3969  -17.2054   16.2656 H   0  0  0  0  0  0
  -25.2281  -17.8049   19.2435 H   0  0  0  0  0  0
  -26.7955  -17.3803   19.8853 H   0  0  0  0  0  0
  -28.0188  -19.1258   18.6239 H   0  0  0  0  0  0
  -24.5996  -15.2009   17.3673 H   0  0  0  0  0  0
  -26.0180  -14.7821   16.5318 H   0  0  0  0  0  0
  -29.3231  -11.0444   19.0854 H   0  0  0  0  0  0
  -29.2863  -11.1585   20.6629 H   0  0  0  0  0  0
  -28.2836  -22.0073   19.9418 H   0  0  0  0  0  0
  -28.0521  -22.2777   18.2676 H   0  0  0  0  0  0
  -26.2788  -23.9066   20.3354 H   0  0  0  0  0  0
  -26.4686  -24.1682   18.6503 H   0  0  0  0  0  0
  -30.0517  -14.2470   19.0795 H   0  0  0  0  0  0
  -26.3783  -20.6283   20.0821 H   0  0  0  0  0  0
  -25.7253  -21.0567   18.6952 H   0  0  0  0  0  0
  1 25  1  0  0  0
  1 30  2  0  0  0
  1 89  1  0  0  0
  2  3  1  0  0  0
  2 25  1  0  0  0
  2 91  1  0  0  0
  2 92  1  0  0  0
  3  4  1  0  0  0
  3 93  1  0  0  0
  3 94  1  0  0  0
  4  5  1  0  0  0
  4 95  1  0  0  0
  4 96  1  0  0  0
  5  6  1  0  0  0
  5 26  1  0  0  0
  5 97  1  0  0  0
  6 25  1  0  0  0
  6 98  1  0  0  0
  6 99  1  0  0  0
  7  8  2  0  0  0
  7 26  1  0  0  0
  7 29  1  0  0  0
  8  9  1  0  0  0
  8 22  1  0  0  0
  9 10  1  0  0  0
  9 27  2  0  0  0
 10 11  2  0  0  0
 10 15  1  0  0  0
 11 12  1  0  0  0
 11100  1  0  0  0
 12 13  2  0  0  0
 12101  1  0  0  0
 13 14  1  0  0  0
 13 31  1  0  0  0
 14 15  2  0  0  0
 14102  1  0  0  0
 15103  1  0  0  0
 16 17  2  0  0  0
 16 21  1  0  0  0
 16 31  1  0  0  0
 17 18  1  0  0  0
 17104  1  0  0  0
 18 19  2  0  0  0
 18105  1  0  0  0
 19 20  1  0  0  0
 19 24  1  0  0  0
 20 21  2  0  0  0
 20106  1  0  0  0
 21 23  1  0  0  0
 22 28  1  0  0  0
 22 32  2  0  0  0
 26 27  1  0  0  0
 28107  1  0  0  0
 28108  1  0  0  0
 29109  1  0  0  0
 29110  1  0  0  0
 33 34  1  0  0  0
 33 66  1  0  0  0
 33 70  2  0  0  0
 34 36  1  0  0  0
 34 59  1  0  0  0
 34111  1  0  0  0
 35 44  2  0  0  0
 35 45  1  0  0  0
 35 68  1  0  0  0
 36 56  1  0  0  0
 36112  1  0  0  0
 37 39  1  0  0  0
 37 47  1  0  0  0
 37 66  1  0  0  0
 37113  1  0  0  0
 38 43  2  0  0  0
 38 46  1  0  0  0
 38 47  1  0  0  0
 39 64  1  0  0  0
 39 67  2  0  0  0
 40 52  1  0  0  0
 40 53  2  0  0  0
 40 58  1  0  0  0
 41114  1  0  0  0
 41115  1  0  0  0
 41116  1  0  0  0
 41 48  1  0  0  0
 42 43  1  0  0  0
 42 66  1  0  0  0
 42117  1  0  0  0
 42118  1  0  0  0
 43 44  1  0  0  0
 44119  1  0  0  0
 45 46  2  0  0  0
 45120  1  0  0  0
 46121  1  0  0  0
 47122  1  0  0  0
 47123  1  0  0  0
 48 56  1  0  0  0
 48 65  1  0  0  0
 48124  1  0  0  0
 49 50  1  0  0  0
 49 53  1  0  0  0
 49 64  1  0  0  0
 49125  1  0  0  0
 50 51  1  0  0  0
 50126  1  0  0  0
 50127  1  0  0  0
 51 52  1  0  0  0
 51128  1  0  0  0
 51129  1  0  0  0
 52130  1  0  0  0
 52131  1  0  0  0
 53 54  1  0  0  0
 54 55  2  0  0  0
 54132  1  0  0  0
 55 57  1  0  0  0
 55133  1  0  0  0
 56 69  2  0  0  0
 57 58  2  0  0  0
 57134  1  0  0  0
 58135  1  0  0  0
 59 60  1  0  0  0
 59 61  1  0  0  0
 59 62  1  0  0  0
 60136  1  0  0  0
 60137  1  0  0  0
 60138  1  0  0  0
 61139  1  0  0  0
 61140  1  0  0  0
 61141  1  0  0  0
 62142  1  0  0  0
 62143  1  0  0  0
 62144  1  0  0  0
 63 65  1  0  0  0
 63145  1  0  0  0
 63146  1  0  0  0
 63147  1  0  0  0
 64148  1  0  0  0
 65149  1  0  0  0
 68 86  1  0  0  0
 71 73  2  0  0  0
 71 75  1  0  0  0
 71150  1  0  0  0
 72 73  1  0  0  0
 72 74  2  0  0  0
 72 76  1  0  0  0
 73 83  1  0  0  0
 74 77  1  0  0  0
 74 87  1  0  0  0
 75 84  1  0  0  0
 75 87  2  0  0  0
 76 78  1  0  0  0
 76151  1  0  0  0
 76152  1  0  0  0
 77 78  1  0  0  0
 77153  1  0  0  0
 77154  1  0  0  0
 78155  1  0  0  0
 78156  1  0  0  0
 79 80  1  0  0  0
 79 82  1  0  0  0
 79157  1  0  0  0
 79158  1  0  0  0
 80 88  1  0  0  0
 80159  1  0  0  0
 80160  1  0  0  0
 81 82  1  0  0  0
 81 88  1  0  0  0
 81161  1  0  0  0
 81162  1  0  0  0
 82 90  1  0  0  0
 82163  1  0  0  0
 83 88  1  0  0  0
 83164  1  0  0  0
 83165  1  0  0  0
 84 89  1  0  0  0
 84166  1  0  0  0
 84167  1  0  0  0
 85 86  1  0  0  0
 85 90  1  0  0  0
 85168  1  0  0  0
 85169  1  0  0  0
 86170  1  0  0  0
 86171  1  0  0  0
 89172  1  0  0  0
 90173  1  0  0  0
 90174  1  0  0  0
M  CHG  1  90   1
M  ISO  4   1 100  68 101  86 101  89 100
M  END
> <chiral flag>
0

> <version>
0

> <s_m_source_file>
/data/baiqing/PycharmProjects/Reinvent-master-3.2/result/LINK_invent/BTK/process_docking_weight1_custom_sum_contain_oxygen_bond_distance_aromatic_linkinvent_7_9_3/rearranged_h_0197.sdf

> <i_m_source_file_index>
61

> <r_mmod_Potential_Energy-OPLS-2005>
25144.974609375

> <r_mmod_Stretch_Energy-OPLS-2005>
14748.779296875

> <r_mmod_Bend_Energy-OPLS-2005>
1645.458984375

> <r_mmod_Torsional_Energy-OPLS-2005>
758.392639160156

> <r_mmod_Improper_Torsional_Energy-OPLS-2005>
139.540924072266

> <r_mmod_Van_der_Waal_Energy-OPLS-2005>
6989.681640625

> <r_mmod_Electrostatic_Energy-OPLS-2005>
-460.088623046875

> <r_mmod_Solvation_Energy-OPLS-2005>
-511.972412109375

> <b_mmod_Minimization_Converged-OPLS-2005>
0

> <r_mmod_RMS_Derivative-OPLS-2005>
9.90917682647705

$$$$
61
                    3D
 Structure written by MMmdl.
176186  0  0  1  0            999 V2000
  -30.6858  -14.5396   20.6317 C   0  0  0  0  0  0
  -30.4238  -12.3573   19.4863 C   0  0  0  0  0  0
  -29.5095  -12.4538   18.2460 C   0  0  0  0  0  0
  -28.0387  -12.2551   18.6623 C   0  0  0  0  0  0
  -27.6393  -13.1658   19.8495 C   0  0  2  0  0  0
  -28.6655  -13.0331   21.0040 C   0  0  0  0  0  0
  -25.2461  -13.7984   20.5641 C   0  0  0  0  0  0
  -24.1749  -13.0341   20.9280 C   0  0  0  0  0  0
  -24.6256  -11.6763   20.8802 C   0  0  0  0  0  0
  -23.8916  -10.4185   21.0431 C   0  0  0  0  0  0
  -24.3445   -9.4104   21.9212 C   0  0  0  0  0  0
  -23.6140   -8.2149   22.0796 C   0  0  0  0  0  0
  -22.4135   -8.0182   21.3592 C   0  0  0  0  0  0
  -21.9757   -9.0139   20.4673 C   0  0  0  0  0  0
  -22.7087  -10.2021   20.3080 C   0  0  0  0  0  0
  -21.6799   -6.0598   22.5279 C   0  0  0  0  0  0
  -21.3993   -6.5539   23.8202 C   0  0  0  0  0  0
  -21.3711   -5.6742   24.9188 C   0  0  0  0  0  0
  -21.6047   -4.3003   24.7267 C   0  0  0  0  0  0
  -21.8814   -3.8039   23.4415 C   0  0  0  0  0  0
  -21.9191   -4.6826   22.3430 C   0  0  0  0  0  0
  -22.7782  -13.5175   21.1935 C   0  0  0  0  0  0
  -22.1635   -4.1973   21.1025 F   0  0  0  0  0  0
  -21.5635   -3.4539   25.7818 F   0  0  0  0  0  0
  -29.9919  -13.3712   20.4706 N   0  0  0  0  0  0
  -26.2821  -12.9091   20.3152 N   0  0  0  0  0  0
  -25.9151  -11.6316   20.5761 N   0  0  0  0  0  0
  -22.0343  -12.8226   22.0423 N   0  0  0  0  0  0
  -25.4152  -15.1698   20.3881 N   0  0  0  0  0  0
  -31.7976  -14.6928   20.1166 O   0  0  0  0  0  0
  -21.6581   -6.8729   21.4238 O   0  0  0  0  0  0
  -22.3557  -14.5545   20.6812 O   0  0  0  0  0  0
  -24.6080  -31.8676   23.2074 C   0  0  0  0  0  0
  -25.8969  -32.4804   23.8387 C   0  0  1  0  0  0
  -27.2598  -27.4868   20.0875 C   0  0  0  0  0  0
  -25.5851  -33.8605   24.2347 N   0  0  0  0  0  0
  -23.3966  -30.4851   21.5449 C   0  0  2  0  0  0
  -24.8494  -28.9542   20.1217 C   0  0  0  0  0  0
  -22.7361  -29.4646   22.4977 C   0  0  0  0  0  0
  -18.0244  -28.1365   22.8453 C   0  0  0  0  0  0
  -24.1484  -36.7333   23.2632 C   0  0  0  0  0  0
  -25.9142  -30.8637   21.3340 C   0  0  0  0  0  0
  -26.0066  -29.4971   20.6930 C   0  0  0  0  0  0
  -27.2208  -28.7840   20.6508 C   0  0  0  0  0  0
  -26.0825  -26.9485   19.5340 C   0  0  0  0  0  0
  -24.8825  -27.6786   19.5327 C   0  0  0  0  0  0
  -23.6030  -29.8019   20.1657 C   0  0  0  0  0  0
  -25.4096  -36.3107   24.0331 C   0  0  1  0  0  0
  -20.5816  -28.3661   23.1291 C   0  0  2  0  0  0
  -20.6709  -26.9391   22.5391 C   0  0  0  0  0  0
  -19.5724  -26.6413   21.5142 C   0  0  0  0  0  0
  -18.1904  -26.7916   22.1579 C   0  0  0  0  0  0
  -19.1477  -28.8823   23.2882 C   0  0  0  0  0  0
  -18.9429  -30.1418   23.8902 C   0  0  0  0  0  0
  -17.6436  -30.6577   24.0551 C   0  0  0  0  0  0
  -25.9019  -34.9462   23.5154 C   0  0  0  0  0  0
  -16.5332  -29.9076   23.6306 C   0  0  0  0  0  0
  -16.7234  -28.6494   23.0330 C   0  0  0  0  0  0
  -26.4446  -31.6499   25.0652 C   0  0  0  0  0  0
  -25.3789  -31.3530   26.1450 C   0  0  0  0  0  0
  -27.0215  -30.2966   24.5844 C   0  0  0  0  0  0
  -27.6069  -32.4160   25.7385 C   0  0  0  0  0  0
  -27.5561  -37.1804   24.8470 C   0  0  0  0  0  0
  -21.4085  -29.3058   22.3731 N   0  0  0  0  0  0
  -26.4297  -37.3780   23.9392 N   0  0  0  0  0  0
  -24.6591  -31.0847   22.0916 N   0  0  0  0  0  0
  -23.4141  -28.8181   23.3013 O   0  0  0  0  0  0
  -28.3569  -26.6605   20.0228 O   0  0  0  0  0  0
  -26.5614  -34.8923   22.4734 O   0  0  0  0  0  0
  -23.5289  -32.1372   23.7522 O   0  0  0  0  0  0
  -30.7077  -21.1861   21.2331 C   0  0  0  0  0  0
  -30.1233  -20.7183   20.0358 C   0  0  0  0  0  0
  -29.5270  -21.7369   19.2415 C   0  0  0  0  0  0
  -30.1790  -23.3421   20.7342 C   0  0  0  0  0  0
  -29.7268  -21.6034   16.6549 C   0  0  0  0  0  0
  -28.5505  -22.5206   16.8442 C   0  0  0  0  0  0
  -28.8309  -16.1616   21.3738 C   0  0  0  0  0  0
  -31.0783  -16.4881   22.1249 C   0  0  0  0  0  0
  -28.7922  -17.5158   20.6028 C   0  0  0  0  0  0
  -31.0245  -17.9370   21.5701 C   0  0  0  0  0  0
  -28.8806  -21.4776   17.9013 C   0  0  0  0  0  0
  -31.6247  -19.1669   18.7139 C   0  0  0  0  0  0
  -29.5676  -27.1907   22.1393 C   0  0  0  0  0  0
  -30.5093  -25.7915   20.2135 C   0  0  0  0  0  0
  -30.3010  -19.2684   19.4890 C   0  0  1  0  0  0
  -29.6114  -26.9877   20.6073 C   0  0  2  0  0  0
  -30.7139  -22.4872   21.5785 N   0  0  0  0  0  0
  -29.5696  -23.0413   19.6013 N   0  0  0  0  0  0
  -30.1788  -15.5395   21.4257 N   0  0  0  0  0  0
  -30.3089  -24.6506   21.1081 N   0  0  0  0  0  0
  -30.1571  -18.0598   20.3725 N   0  3  0  0  0  0
  -31.4697  -12.4720   19.1960 H   0  0  0  0  0  0
  -30.3527  -11.3643   19.9402 H   0  0  0  0  0  0
  -29.7979  -11.6953   17.5141 H   0  0  0  0  0  0
  -29.6340  -13.4258   17.7642 H   0  0  0  0  0  0
  -27.9288  -11.2108   18.9639 H   0  0  0  0  0  0
  -27.3657  -12.3975   17.8156 H   0  0  0  0  0  0
  -27.6551  -14.1721   19.4390 H   0  0  0  0  0  0
  -28.6787  -12.0140   21.3858 H   0  0  0  0  0  0
  -28.3831  -13.6328   21.8682 H   0  0  0  0  0  0
  -25.2585   -9.5559   22.4776 H   0  0  0  0  0  0
  -23.9874   -7.4498   22.7465 H   0  0  0  0  0  0
  -21.0730   -8.8587   19.8908 H   0  0  0  0  0  0
  -22.3547  -10.9525   19.6162 H   0  0  0  0  0  0
  -21.1947   -7.6041   23.9658 H   0  0  0  0  0  0
  -21.1582   -6.0485   25.9099 H   0  0  0  0  0  0
  -22.0565   -2.7482   23.3006 H   0  0  0  0  0  0
  -22.3945  -11.9960   22.4966 H   0  0  0  0  0  0
  -21.0957  -13.1305   22.2576 H   0  0  0  0  0  0
  -24.6096  -15.7875   20.4256 H   0  0  0  0  0  0
  -26.1729  -15.5403   19.8353 H   0  0  0  0  0  0
  -26.7032  -32.5560   23.1158 H   0  0  0  0  0  0
  -24.9912  -33.9784   25.0423 H   0  0  0  0  0  0
  -22.6864  -31.2987   21.3911 H   0  0  0  0  0  0
  -23.3732  -35.9682   23.3322 H   0  0  0  0  0  0
  -24.3570  -36.8934   22.2041 H   0  0  0  0  0  0
  -23.7255  -37.6558   23.6635 H   0  0  0  0  0  0
  -25.9908  -31.6176   20.5507 H   0  0  0  0  0  0
  -26.8200  -30.9527   21.9176 H   0  0  0  0  0  0
  -28.1115  -29.2585   21.0290 H   0  0  0  0  0  0
  -26.1038  -25.9562   19.1046 H   0  0  0  0  0  0
  -23.9928  -27.2469   19.0971 H   0  0  0  0  0  0
  -23.6933  -30.5675   19.3953 H   0  0  0  0  0  0
  -22.7415  -29.1936   19.8829 H   0  0  0  0  0  0
  -25.1244  -36.2011   25.0822 H   0  0  0  0  0  0
  -20.9880  -28.3229   24.1425 H   0  0  0  0  0  0
  -20.5515  -26.2268   23.3577 H   0  0  0  0  0  0
  -21.6588  -26.7395   22.1233 H   0  0  0  0  0  0
  -19.6914  -25.6349   21.1118 H   0  0  0  0  0  0
  -19.6667  -27.3255   20.6696 H   0  0  0  0  0  0
  -17.4144  -26.6613   21.4031 H   0  0  0  0  0  0
  -18.0403  -26.0052   22.8982 H   0  0  0  0  0  0
  -19.7909  -30.7209   24.2287 H   0  0  0  0  0  0
  -17.5007  -31.6246   24.5177 H   0  0  0  0  0  0
  -15.5332  -30.2997   23.7628 H   0  0  0  0  0  0
  -15.8629  -28.0827   22.7039 H   0  0  0  0  0  0
  -24.6048  -30.6757   25.7828 H   0  0  0  0  0  0
  -24.8879  -32.2641   26.4885 H   0  0  0  0  0  0
  -25.8259  -30.8768   27.0186 H   0  0  0  0  0  0
  -26.2676  -29.6785   24.0955 H   0  0  0  0  0  0
  -27.4136  -29.7093   25.4152 H   0  0  0  0  0  0
  -27.8435  -30.4335   23.8812 H   0  0  0  0  0  0
  -27.2738  -33.3454   26.1992 H   0  0  0  0  0  0
  -28.3836  -32.6684   25.0167 H   0  0  0  0  0  0
  -28.0756  -31.8241   26.5248 H   0  0  0  0  0  0
  -28.2587  -38.0080   24.7451 H   0  0  0  0  0  0
  -28.1035  -36.2609   24.6362 H   0  0  0  0  0  0
  -27.2274  -37.1517   25.8873 H   0  0  0  0  0  0
  -20.9262  -29.8786   21.6933 H   0  0  0  0  0  0
  -26.0203  -38.2853   24.1447 H   0  0  0  0  0  0
  -31.2410  -20.5508   21.9225 H   0  0  0  0  0  0
  -30.7171  -22.0498   16.7477 H   0  0  0  0  0  0
  -29.6422  -20.7922   15.9373 H   0  0  0  0  0  0
  -27.6989  -22.3039   16.2001 H   0  0  0  0  0  0
  -28.7499  -23.5782   17.0245 H   0  0  0  0  0  0
  -28.5282  -16.3275   22.4073 H   0  0  0  0  0  0
  -28.0495  -15.5313   20.9856 H   0  0  0  0  0  0
  -30.8004  -16.5227   23.1793 H   0  0  0  0  0  0
  -32.1142  -16.1542   22.1327 H   0  0  0  0  0  0
  -28.1848  -18.2353   21.1560 H   0  0  0  0  0  0
  -28.2866  -17.3718   19.6444 H   0  0  0  0  0  0
  -32.0351  -18.2847   21.3472 H   0  0  0  0  0  0
  -30.6270  -18.5751   22.3562 H   0  0  0  0  0  0
  -28.1482  -20.6783   17.9760 H   0  0  0  0  0  0
  -32.4910  -19.1943   19.3713 H   0  0  0  0  0  0
  -31.7412  -20.0066   18.0312 H   0  0  0  0  0  0
  -31.6758  -18.2439   18.1294 H   0  0  0  0  0  0
  -28.9834  -26.4090   22.6242 H   0  0  0  0  0  0
  -29.1236  -28.1373   22.4311 H   0  0  0  0  0  0
  -30.5713  -27.1785   22.5656 H   0  0  0  0  0  0
  -31.5550  -26.0845   20.3028 H   0  0  0  0  0  0
  -30.3688  -25.5217   19.1662 H   0  0  0  0  0  0
  -29.5290  -19.1173   18.7368 H   0  0  0  0  0  0
  -29.9944  -27.8895   20.1300 H   0  0  0  0  0  0
  -30.7493  -24.7583   22.0117 H   0  0  0  0  0  0
  -30.5380  -17.3602   19.7506 H   0  0  0  0  0  0
  1 25  1  0  0  0
  1 30  2  0  0  0
  1 89  1  0  0  0
  2  3  1  0  0  0
  2 25  1  0  0  0
  2 92  1  0  0  0
  2 93  1  0  0  0
  3  4  1  0  0  0
  3 94  1  0  0  0
  3 95  1  0  0  0
  4  5  1  0  0  0
  4 96  1  0  0  0
  4 97  1  0  0  0
  5  6  1  0  0  0
  5 26  1  0  0  0
  5 98  1  0  0  0
  6 25  1  0  0  0
  6 99  1  0  0  0
  6100  1  0  0  0
  7  8  2  0  0  0
  7 26  1  0  0  0
  7 29  1  0  0  0
  8  9  1  0  0  0
  8 22  1  0  0  0
  9 10  1  0  0  0
  9 27  2  0  0  0
 10 11  2  0  0  0
 10 15  1  0  0  0
 11 12  1  0  0  0
 11101  1  0  0  0
 12 13  2  0  0  0
 12102  1  0  0  0
 13 14  1  0  0  0
 13 31  1  0  0  0
 14 15  2  0  0  0
 14103  1  0  0  0
 15104  1  0  0  0
 16 17  2  0  0  0
 16 21  1  0  0  0
 16 31  1  0  0  0
 17 18  1  0  0  0
 17105  1  0  0  0
 18 19  2  0  0  0
 18106  1  0  0  0
 19 20  1  0  0  0
 19 24  1  0  0  0
 20 21  2  0  0  0
 20107  1  0  0  0
 21 23  1  0  0  0
 22 28  1  0  0  0
 22 32  2  0  0  0
 26 27  1  0  0  0
 28108  1  0  0  0
 28109  1  0  0  0
 29110  1  0  0  0
 29111  1  0  0  0
 33 34  1  0  0  0
 33 66  1  0  0  0
 33 70  2  0  0  0
 34 36  1  0  0  0
 34 59  1  0  0  0
 34112  1  0  0  0
 35 44  2  0  0  0
 35 45  1  0  0  0
 35 68  1  0  0  0
 36 56  1  0  0  0
 36113  1  0  0  0
 37 39  1  0  0  0
 37 47  1  0  0  0
 37 66  1  0  0  0
 37114  1  0  0  0
 38 43  2  0  0  0
 38 46  1  0  0  0
 38 47  1  0  0  0
 39 64  1  0  0  0
 39 67  2  0  0  0
 40 52  1  0  0  0
 40 53  2  0  0  0
 40 58  1  0  0  0
 41115  1  0  0  0
 41116  1  0  0  0
 41117  1  0  0  0
 41 48  1  0  0  0
 42 43  1  0  0  0
 42 66  1  0  0  0
 42118  1  0  0  0
 42119  1  0  0  0
 43 44  1  0  0  0
 44120  1  0  0  0
 45 46  2  0  0  0
 45121  1  0  0  0
 46122  1  0  0  0
 47123  1  0  0  0
 47124  1  0  0  0
 48 56  1  0  0  0
 48 65  1  0  0  0
 48125  1  0  0  0
 49 50  1  0  0  0
 49 53  1  0  0  0
 49 64  1  0  0  0
 49126  1  0  0  0
 50 51  1  0  0  0
 50127  1  0  0  0
 50128  1  0  0  0
 51 52  1  0  0  0
 51129  1  0  0  0
 51130  1  0  0  0
 52131  1  0  0  0
 52132  1  0  0  0
 53 54  1  0  0  0
 54 55  2  0  0  0
 54133  1  0  0  0
 55 57  1  0  0  0
 55134  1  0  0  0
 56 69  2  0  0  0
 57 58  2  0  0  0
 57135  1  0  0  0
 58136  1  0  0  0
 59 60  1  0  0  0
 59 61  1  0  0  0
 59 62  1  0  0  0
 60137  1  0  0  0
 60138  1  0  0  0
 60139  1  0  0  0
 61140  1  0  0  0
 61141  1  0  0  0
 61142  1  0  0  0
 62143  1  0  0  0
 62144  1  0  0  0
 62145  1  0  0  0
 63 65  1  0  0  0
 63146  1  0  0  0
 63147  1  0  0  0
 63148  1  0  0  0
 64149  1  0  0  0
 65150  1  0  0  0
 68 86  1  0  0  0
 71 72  2  0  0  0
 71 87  1  0  0  0
 71151  1  0  0  0
 72 73  1  0  0  0
 72 85  1  0  0  0
 73 88  2  0  0  0
 73 81  1  0  0  0
 74 87  2  0  0  0
 74 88  1  0  0  0
 74 90  1  0  0  0
 75 76  1  0  0  0
 75 81  1  0  0  0
 75152  1  0  0  0
 75153  1  0  0  0
 76 81  1  0  0  0
 76154  1  0  0  0
 76155  1  0  0  0
 77 79  1  0  0  0
 77 89  1  0  0  0
 77156  1  0  0  0
 77157  1  0  0  0
 78 80  1  0  0  0
 78 89  1  0  0  0
 78158  1  0  0  0
 78159  1  0  0  0
 79160  1  0  0  0
 79161  1  0  0  0
 79 91  1  0  0  0
 80 91  1  0  0  0
 80162  1  0  0  0
 80163  1  0  0  0
 81164  1  0  0  0
 82165  1  0  0  0
 82166  1  0  0  0
 82167  1  0  0  0
 82 85  1  0  0  0
 83168  1  0  0  0
 83169  1  0  0  0
 83170  1  0  0  0
 83 86  1  0  0  0
 84 86  1  0  0  0
 84 90  1  0  0  0
 84171  1  0  0  0
 84172  1  0  0  0
 85 91  1  0  0  0
 85173  1  0  0  0
 86174  1  0  0  0
 90175  1  0  0  0
 91176  1  0  0  0
M  CHG  1  91   1
M  ISO  4   1 100  68 101  86 101  89 100
M  END
> <chiral flag>
0

> <version>
0

> <s_m_source_file>
/data/baiqing/PycharmProjects/Reinvent-master-3.2/result/LINK_invent/BTK/process_docking_weight1_custom_sum_contain_oxygen_bond_distance_aromatic_linkinvent_7_9_3/rearranged_h_0197.sdf

> <i_m_source_file_index>
62

> <r_mmod_Potential_Energy-OPLS-2005>
-375.350219726562

> <r_mmod_Stretch_Energy-OPLS-2005>
48.4785804748535

> <r_mmod_Bend_Energy-OPLS-2005>
186.039688110352

> <r_mmod_Torsional_Energy-OPLS-2005>
407.461181640625

> <r_mmod_Improper_Torsional_Energy-OPLS-2005>
8.67432689666748

> <r_mmod_Van_der_Waal_Energy-OPLS-2005>
179.257263183594

> <r_mmod_Electrostatic_Energy-OPLS-2005>
-770.846496582031

> <r_mmod_Solvation_Energy-OPLS-2005>
-455.965484619141

> <b_mmod_Minimization_Converged-OPLS-2005>
0

> <r_mmod_RMS_Derivative-OPLS-2005>
7.4919581413269

$$$$
62
                    3D
 Structure written by MMmdl.
163172  0  0  1  0            999 V2000
  -30.6447  -14.6916   20.4924 C   0  0  0  0  0  0
  -30.4278  -12.4295   19.4593 C   0  0  0  0  0  0
  -29.5046  -12.5075   18.2255 C   0  0  0  0  0  0
  -28.0297  -12.3386   18.6410 C   0  0  0  0  0  0
  -27.6424  -13.2275   19.8535 C   0  0  2  0  0  0
  -28.6893  -13.1420   20.9843 C   0  0  0  0  0  0
  -25.2512  -13.8186   20.5712 C   0  0  0  0  0  0
  -24.1794  -13.0434   20.9208 C   0  0  0  0  0  0
  -24.6384  -11.6907   20.8739 C   0  0  0  0  0  0
  -23.9063  -10.4284   21.0401 C   0  0  0  0  0  0
  -24.3611   -9.4201   21.9184 C   0  0  0  0  0  0
  -23.6286   -8.2237   22.0756 C   0  0  0  0  0  0
  -22.4269   -8.0271   21.3544 C   0  0  0  0  0  0
  -21.9905   -9.0245   20.4652 C   0  0  0  0  0  0
  -22.7233  -10.2126   20.3056 C   0  0  0  0  0  0
  -21.6851   -6.0724   22.5274 C   0  0  0  0  0  0
  -21.4012   -6.5631   23.8205 C   0  0  0  0  0  0
  -21.3662   -5.6789   24.9173 C   0  0  0  0  0  0
  -21.6047   -4.3052   24.7226 C   0  0  0  0  0  0
  -21.8820   -3.8136   23.4347 C   0  0  0  0  0  0
  -21.9192   -4.6950   22.3400 C   0  0  0  0  0  0
  -22.7818  -13.5215   21.1875 C   0  0  0  0  0  0
  -22.1658   -4.2134   21.0981 F   0  0  0  0  0  0
  -21.5635   -3.4536   25.7740 F   0  0  0  0  0  0
  -29.9931  -13.4835   20.4014 N   0  0  0  0  0  0
  -26.2944  -12.9386   20.3311 N   0  0  0  0  0  0
  -25.9315  -11.6531   20.5761 N   0  0  0  0  0  0
  -22.0461  -12.8199   22.0434 N   0  0  0  0  0  0
  -25.4221  -15.1908   20.4135 N   0  0  0  0  0  0
  -31.8293  -14.7838   20.1571 O   0  0  0  0  0  0
  -21.6639   -6.8862   21.4233 O   0  0  0  0  0  0
  -22.3500  -14.5518   20.6727 O   0  0  0  0  0  0
  -24.6267  -31.8571   23.1995 C   0  0  0  0  0  0
  -25.9105  -32.4773   23.8325 C   0  0  1  0  0  0
  -27.2224  -27.2974   20.1319 C   0  0  0  0  0  0
  -25.5912  -33.8567   24.2267 N   0  0  0  0  0  0
  -23.4223  -30.4802   21.5411 C   0  0  2  0  0  0
  -24.8703  -28.9255   20.1138 C   0  0  0  0  0  0
  -22.7489  -29.4612   22.4906 C   0  0  0  0  0  0
  -18.0291  -28.1403   22.8499 C   0  0  0  0  0  0
  -24.1477  -36.7282   23.2643 C   0  0  0  0  0  0
  -25.9636  -30.7846   21.3701 C   0  0  0  0  0  0
  -26.0396  -29.4071   20.7167 C   0  0  0  0  0  0
  -27.2217  -28.6066   20.7101 C   0  0  0  0  0  0
  -26.0342  -26.8676   19.5064 C   0  0  0  0  0  0
  -24.8696  -27.6622   19.4986 C   0  0  0  0  0  0
  -23.6404  -29.8100   20.1580 C   0  0  0  0  0  0
  -25.4108  -36.3085   24.0339 C   0  0  1  0  0  0
  -20.5901  -28.3699   23.1280 C   0  0  2  0  0  0
  -20.6782  -26.9418   22.5413 C   0  0  0  0  0  0
  -19.5755  -26.6393   21.5221 C   0  0  0  0  0  0
  -18.1933  -26.7948   22.1630 C   0  0  0  0  0  0
  -19.1549  -28.8865   23.2890 C   0  0  0  0  0  0
  -18.9473  -30.1469   23.8900 C   0  0  0  0  0  0
  -17.6475  -30.6602   24.0578 C   0  0  0  0  0  0
  -25.9039  -34.9450   23.5110 C   0  0  0  0  0  0
  -16.5368  -29.9110   23.6340 C   0  0  0  0  0  0
  -16.7280  -28.6531   23.0348 C   0  0  0  0  0  0
  -26.4487  -31.6587   25.0696 C   0  0  0  0  0  0
  -25.3710  -31.3744   26.1423 C   0  0  0  0  0  0
  -27.0330  -30.3013   24.6137 C   0  0  0  0  0  0
  -27.6040  -32.4319   25.7476 C   0  0  0  0  0  0
  -27.5575  -37.1799   24.8476 C   0  0  0  0  0  0
  -21.4199  -29.3052   22.3668 N   0  0  0  0  0  0
  -26.4284  -37.3782   23.9420 N   0  0  0  0  0  0
  -24.6898  -31.0570   22.0947 N   0  0  0  0  0  0
  -23.4213  -28.8140   23.2976 O   0  0  0  0  0  0
  -28.3318  -26.4364   20.1458 O   0  0  0  0  0  0
  -26.5611  -34.8932   22.4675 O   0  0  0  0  0  0
  -23.5422  -32.1352   23.7321 O   0  0  0  0  0  0
  -31.7448  -21.9504   21.0540 C   0  0  0  0  0  0
  -30.8970  -22.9891   20.6413 C   0  0  0  0  0  0
  -29.5591  -22.6394   20.3402 C   0  0  0  0  0  0
  -30.1160  -20.3537   20.7737 C   0  0  0  0  0  0
  -29.5189  -18.1555   19.6612 C   0  0  0  0  0  0
  -30.7419  -18.1134   21.7011 C   0  0  0  0  0  0
  -29.1100  -16.6367   19.8942 C   0  0  0  0  0  0
  -30.2685  -16.6544   22.0153 C   0  0  0  0  0  0
  -31.4721  -24.4149   20.5718 C   0  0  0  0  0  0
  -28.5681  -23.7537   19.7933 C   0  0  0  0  0  0
  -28.1536  -25.0454   20.6641 C   0  0  0  0  0  0
  -31.3560  -20.6688   21.1096 N   0  0  0  0  0  0
  -29.1991  -21.2905   20.3934 N   0  0  0  0  0  0
  -29.8307  -18.9405   20.8710 N   0  0  0  0  0  0
  -29.9289  -15.8265   20.8412 N   0  0  0  0  0  0
  -31.8604  -24.8602   19.2183 N   0  3  0  0  0  0
  -31.4702  -12.5429   19.1570 H   0  0  0  0  0  0
  -30.3601  -11.4474   19.9303 H   0  0  0  0  0  0
  -29.7792  -11.7400   17.5004 H   0  0  0  0  0  0
  -29.6405  -13.4656   17.7217 H   0  0  0  0  0  0
  -27.8800  -11.2879   18.8921 H   0  0  0  0  0  0
  -27.3725  -12.5449   17.7949 H   0  0  0  0  0  0
  -27.6394  -14.2518   19.4857 H   0  0  0  0  0  0
  -28.7155  -12.1402   21.4159 H   0  0  0  0  0  0
  -28.4318  -13.8197   21.7995 H   0  0  0  0  0  0
  -25.2750   -9.5676   22.4763 H   0  0  0  0  0  0
  -23.9990   -7.4629   22.7473 H   0  0  0  0  0  0
  -21.0836   -8.8762   19.8955 H   0  0  0  0  0  0
  -22.3687  -10.9661   19.6163 H   0  0  0  0  0  0
  -21.1999   -7.6138   23.9702 H   0  0  0  0  0  0
  -21.1491   -6.0524   25.9077 H   0  0  0  0  0  0
  -22.0596   -2.7596   23.2857 H   0  0  0  0  0  0
  -22.4068  -11.9841   22.4789 H   0  0  0  0  0  0
  -21.1086  -13.1227   22.2656 H   0  0  0  0  0  0
  -24.6604  -15.8503   20.5324 H   0  0  0  0  0  0
  -26.2818  -15.6281   20.1108 H   0  0  0  0  0  0
  -26.7168  -32.5449   23.1065 H   0  0  0  0  0  0
  -25.0084  -33.9698   25.0435 H   0  0  0  0  0  0
  -22.7164  -31.3000   21.3942 H   0  0  0  0  0  0
  -23.3750  -35.9601   23.3310 H   0  0  0  0  0  0
  -24.3560  -36.8877   22.2052 H   0  0  0  0  0  0
  -23.7213  -37.6483   23.6648 H   0  0  0  0  0  0
  -26.0866  -31.5430   20.5956 H   0  0  0  0  0  0
  -26.8478  -30.8413   21.9929 H   0  0  0  0  0  0
  -28.1225  -28.9744   21.1801 H   0  0  0  0  0  0
  -26.0003  -25.8985   19.0283 H   0  0  0  0  0  0
  -23.9732  -27.2889   19.0230 H   0  0  0  0  0  0
  -23.7667  -30.5842   19.4005 H   0  0  0  0  0  0
  -22.7599  -29.2411   19.8538 H   0  0  0  0  0  0
  -25.1283  -36.1932   25.0830 H   0  0  0  0  0  0
  -20.9997  -28.3274   24.1399 H   0  0  0  0  0  0
  -20.5681  -26.2300   23.3613 H   0  0  0  0  0  0
  -21.6645  -26.7444   22.1199 H   0  0  0  0  0  0
  -19.6914  -25.6300   21.1243 H   0  0  0  0  0  0
  -19.6698  -27.3208   20.6758 H   0  0  0  0  0  0
  -17.4205  -26.6699   21.4030 H   0  0  0  0  0  0
  -18.0328  -26.0097   22.9029 H   0  0  0  0  0  0
  -19.7945  -30.7284   24.2260 H   0  0  0  0  0  0
  -17.5039  -31.6279   24.5180 H   0  0  0  0  0  0
  -15.5370  -30.3019   23.7671 H   0  0  0  0  0  0
  -15.8678  -28.0864   22.7052 H   0  0  0  0  0  0
  -24.5907  -30.7063   25.7770 H   0  0  0  0  0  0
  -24.8879  -32.2914   26.4799 H   0  0  0  0  0  0
  -25.8033  -30.8970   27.0225 H   0  0  0  0  0  0
  -26.2906  -29.6773   24.1147 H   0  0  0  0  0  0
  -27.4032  -29.7258   25.4632 H   0  0  0  0  0  0
  -27.8767  -30.4321   23.9360 H   0  0  0  0  0  0
  -27.2654  -33.3634   26.2032 H   0  0  0  0  0  0
  -28.3874  -32.6847   25.0318 H   0  0  0  0  0  0
  -28.0681  -31.8445   26.5408 H   0  0  0  0  0  0
  -28.2609  -38.0084   24.7512 H   0  0  0  0  0  0
  -28.1054  -36.2610   24.6313 H   0  0  0  0  0  0
  -27.2288  -37.1460   25.8880 H   0  0  0  0  0  0
  -20.9365  -29.8784   21.6893 H   0  0  0  0  0  0
  -26.0167  -38.2855   24.1423 H   0  0  0  0  0  0
  -32.7728  -22.1430   21.3220 H   0  0  0  0  0  0
  -28.7278  -18.6645   19.1079 H   0  0  0  0  0  0
  -30.3976  -18.1879   19.0143 H   0  0  0  0  0  0
  -31.7176  -18.0661   21.2120 H   0  0  0  0  0  0
  -30.9088  -18.6228   22.6521 H   0  0  0  0  0  0
  -29.0618  -16.1323   18.9277 H   0  0  0  0  0  0
  -28.0911  -16.6192   20.2824 H   0  0  0  0  0  0
  -29.3917  -16.6910   22.6631 H   0  0  0  0  0  0
  -31.0431  -16.1564   22.6032 H   0  0  0  0  0  0
  -32.3619  -24.4610   21.2018 H   0  0  0  0  0  0
  -30.7935  -25.1431   21.0104 H   0  0  0  0  0  0
  -27.6500  -23.2470   19.4957 H   0  0  0  0  0  0
  -28.9858  -24.1104   18.8534 H   0  0  0  0  0  0
  -28.6987  -25.0080   21.6051 H   0  0  0  0  0  0
  -27.1221  -24.9044   20.9906 H   0  0  0  0  0  0
  -32.5392  -24.2499   18.7996 H   0  0  0  0  0  0
  -32.2862  -25.7693   19.2828 H   0  0  0  0  0  0
  -31.0770  -24.9521   18.5985 H   0  0  0  0  0  0
  1 25  1  0  0  0
  1 30  2  0  0  0
  1 85  1  0  0  0
  2  3  1  0  0  0
  2 25  1  0  0  0
  2 87  1  0  0  0
  2 88  1  0  0  0
  3  4  1  0  0  0
  3 89  1  0  0  0
  3 90  1  0  0  0
  4  5  1  0  0  0
  4 91  1  0  0  0
  4 92  1  0  0  0
  5  6  1  0  0  0
  5 26  1  0  0  0
  5 93  1  0  0  0
  6 25  1  0  0  0
  6 94  1  0  0  0
  6 95  1  0  0  0
  7  8  2  0  0  0
  7 26  1  0  0  0
  7 29  1  0  0  0
  8  9  1  0  0  0
  8 22  1  0  0  0
  9 10  1  0  0  0
  9 27  2  0  0  0
 10 11  2  0  0  0
 10 15  1  0  0  0
 11 12  1  0  0  0
 11 96  1  0  0  0
 12 13  2  0  0  0
 12 97  1  0  0  0
 13 14  1  0  0  0
 13 31  1  0  0  0
 14 15  2  0  0  0
 14 98  1  0  0  0
 15 99  1  0  0  0
 16 17  2  0  0  0
 16 21  1  0  0  0
 16 31  1  0  0  0
 17 18  1  0  0  0
 17100  1  0  0  0
 18 19  2  0  0  0
 18101  1  0  0  0
 19 20  1  0  0  0
 19 24  1  0  0  0
 20 21  2  0  0  0
 20102  1  0  0  0
 21 23  1  0  0  0
 22 28  1  0  0  0
 22 32  2  0  0  0
 26 27  1  0  0  0
 28103  1  0  0  0
 28104  1  0  0  0
 29105  1  0  0  0
 29106  1  0  0  0
 33 34  1  0  0  0
 33 66  1  0  0  0
 33 70  2  0  0  0
 34 36  1  0  0  0
 34 59  1  0  0  0
 34107  1  0  0  0
 35 44  2  0  0  0
 35 45  1  0  0  0
 35 68  1  0  0  0
 36 56  1  0  0  0
 36108  1  0  0  0
 37 39  1  0  0  0
 37 47  1  0  0  0
 37 66  1  0  0  0
 37109  1  0  0  0
 38 43  2  0  0  0
 38 46  1  0  0  0
 38 47  1  0  0  0
 39 64  1  0  0  0
 39 67  2  0  0  0
 40 52  1  0  0  0
 40 53  2  0  0  0
 40 58  1  0  0  0
 41110  1  0  0  0
 41111  1  0  0  0
 41112  1  0  0  0
 41 48  1  0  0  0
 42 43  1  0  0  0
 42 66  1  0  0  0
 42113  1  0  0  0
 42114  1  0  0  0
 43 44  1  0  0  0
 44115  1  0  0  0
 45 46  2  0  0  0
 45116  1  0  0  0
 46117  1  0  0  0
 47118  1  0  0  0
 47119  1  0  0  0
 48 56  1  0  0  0
 48 65  1  0  0  0
 48120  1  0  0  0
 49 50  1  0  0  0
 49 53  1  0  0  0
 49 64  1  0  0  0
 49121  1  0  0  0
 50 51  1  0  0  0
 50122  1  0  0  0
 50123  1  0  0  0
 51 52  1  0  0  0
 51124  1  0  0  0
 51125  1  0  0  0
 52126  1  0  0  0
 52127  1  0  0  0
 53 54  1  0  0  0
 54 55  2  0  0  0
 54128  1  0  0  0
 55 57  1  0  0  0
 55129  1  0  0  0
 56 69  2  0  0  0
 57 58  2  0  0  0
 57130  1  0  0  0
 58131  1  0  0  0
 59 60  1  0  0  0
 59 61  1  0  0  0
 59 62  1  0  0  0
 60132  1  0  0  0
 60133  1  0  0  0
 60134  1  0  0  0
 61135  1  0  0  0
 61136  1  0  0  0
 61137  1  0  0  0
 62138  1  0  0  0
 62139  1  0  0  0
 62140  1  0  0  0
 63 65  1  0  0  0
 63141  1  0  0  0
 63142  1  0  0  0
 63143  1  0  0  0
 64144  1  0  0  0
 65145  1  0  0  0
 68 81  1  0  0  0
 71 72  2  0  0  0
 71 82  1  0  0  0
 71146  1  0  0  0
 72 73  1  0  0  0
 72 79  1  0  0  0
 73 80  1  0  0  0
 73 83  2  0  0  0
 74 82  2  0  0  0
 74 83  1  0  0  0
 74 84  1  0  0  0
 75 77  1  0  0  0
 75 84  1  0  0  0
 75147  1  0  0  0
 75148  1  0  0  0
 76 78  1  0  0  0
 76 84  1  0  0  0
 76149  1  0  0  0
 76150  1  0  0  0
 77 85  1  0  0  0
 77151  1  0  0  0
 77152  1  0  0  0
 78 85  1  0  0  0
 78153  1  0  0  0
 78154  1  0  0  0
 79 86  1  0  0  0
 79155  1  0  0  0
 79156  1  0  0  0
 80 81  1  0  0  0
 80157  1  0  0  0
 80158  1  0  0  0
 81159  1  0  0  0
 81160  1  0  0  0
 86161  1  0  0  0
 86162  1  0  0  0
 86163  1  0  0  0
M  CHG  1  86   1
M  ISO  4   1 100  68 101  81 101  85 100
M  END
> <chiral flag>
0

> <version>
0

> <s_m_source_file>
/data/baiqing/PycharmProjects/Reinvent-master-3.2/result/LINK_invent/BTK/process_docking_weight1_custom_sum_contain_oxygen_bond_distance_aromatic_linkinvent_7_9_3/rearranged_h_0197.sdf

> <i_m_source_file_index>
63

> <r_mmod_Potential_Energy-OPLS-2005>
-346.003479003906

> <r_mmod_Stretch_Energy-OPLS-2005>
102.845161437988

> <r_mmod_Bend_Energy-OPLS-2005>
168.406356811523

> <r_mmod_Torsional_Energy-OPLS-2005>
380.285339355469

> <r_mmod_Improper_Torsional_Energy-OPLS-2005>
8.82368469238281

> <r_mmod_Van_der_Waal_Energy-OPLS-2005>
152.836563110352

> <r_mmod_Electrostatic_Energy-OPLS-2005>
-688.977172851562

> <r_mmod_Solvation_Energy-OPLS-2005>
-533.41552734375

> <b_mmod_Minimization_Converged-OPLS-2005>
0

> <r_mmod_RMS_Derivative-OPLS-2005>
1.67724120616913

$$$$
63
                    3D
 Structure written by MMmdl.
162171  0  0  1  0            999 V2000
  -30.6693  -14.4673   20.5227 C   0  0  0  0  0  0
  -30.4060  -12.2893   19.4059 C   0  0  0  0  0  0
  -29.4837  -12.4660   18.1810 C   0  0  0  0  0  0
  -28.0032  -12.3113   18.5924 C   0  0  0  0  0  0
  -27.6472  -13.1533   19.8463 C   0  0  2  0  0  0
  -28.6912  -12.9538   20.9689 C   0  0  0  0  0  0
  -25.2511  -13.7720   20.5404 C   0  0  0  0  0  0
  -24.1825  -13.0246   20.9205 C   0  0  0  0  0  0
  -24.6325  -11.6710   20.8793 C   0  0  0  0  0  0
  -23.8982  -10.4187   21.0503 C   0  0  0  0  0  0
  -24.3534   -9.4096   21.9272 C   0  0  0  0  0  0
  -23.6244   -8.2122   22.0765 C   0  0  0  0  0  0
  -22.4212   -8.0177   21.3527 C   0  0  0  0  0  0
  -21.9866   -9.0183   20.4641 C   0  0  0  0  0  0
  -22.7190  -10.2070   20.3135 C   0  0  0  0  0  0
  -21.6798   -6.0691   22.5268 C   0  0  0  0  0  0
  -21.3991   -6.5605   23.8207 C   0  0  0  0  0  0
  -21.3654   -5.6773   24.9171 C   0  0  0  0  0  0
  -21.6033   -4.3039   24.7240 C   0  0  0  0  0  0
  -21.8824   -3.8109   23.4372 C   0  0  0  0  0  0
  -21.9179   -4.6918   22.3407 C   0  0  0  0  0  0
  -22.7847  -13.5151   21.1833 C   0  0  0  0  0  0
  -22.1646   -4.2112   21.0995 F   0  0  0  0  0  0
  -21.5636   -3.4528   25.7766 F   0  0  0  0  0  0
  -29.9868  -13.3035   20.3909 N   0  0  0  0  0  0
  -26.2939  -12.8920   20.3169 N   0  0  0  0  0  0
  -25.9223  -11.6129   20.5798 N   0  0  0  0  0  0
  -22.0487  -12.8211   22.0369 N   0  0  0  0  0  0
  -25.4274  -15.1336   20.3282 N   0  0  0  0  0  0
  -31.8498  -14.5669   20.1913 O   0  0  0  0  0  0
  -21.6542   -6.8824   21.4227 O   0  0  0  0  0  0
  -22.3579  -14.5547   20.6738 O   0  0  0  0  0  0
  -24.6182  -31.9016   23.2345 C   0  0  0  0  0  0
  -25.9148  -32.5009   23.8622 C   0  0  1  0  0  0
  -27.1533  -27.4685   20.0167 C   0  0  0  0  0  0
  -25.6045  -33.8776   24.2487 N   0  0  0  0  0  0
  -23.3938  -30.5691   21.5561 C   0  0  2  0  0  0
  -24.8375  -29.0622   20.0952 C   0  0  0  0  0  0
  -22.7345  -29.5491   22.5060 C   0  0  0  0  0  0
  -18.0785  -28.1779   22.8019 C   0  0  0  0  0  0
  -24.1467  -36.7424   23.2571 C   0  0  0  0  0  0
  -25.9284  -30.8319   21.4289 C   0  0  0  0  0  0
  -25.9852  -29.4657   20.7858 C   0  0  0  0  0  0
  -27.1019  -28.5984   20.8784 C   0  0  0  0  0  0
  -26.1615  -27.4061   19.0210 C   0  0  0  0  0  0
  -24.9205  -28.0125   19.1994 C   0  0  0  0  0  0
  -23.5951  -29.9193   20.1715 C   0  0  0  0  0  0
  -25.4083  -36.3190   24.0297 C   0  0  1  0  0  0
  -20.6053  -28.4350   23.1961 C   0  0  2  0  0  0
  -20.7659  -27.0549   22.5157 C   0  0  0  0  0  0
  -19.6951  -26.8012   21.4525 C   0  0  0  0  0  0
  -18.3287  -26.8475   22.0889 C   0  0  0  0  0  0
  -19.1563  -28.9218   23.3287 C   0  0  0  0  0  0
  -18.8884  -30.1319   24.0078 C   0  0  0  0  0  0
  -17.5744  -30.6238   24.1298 C   0  0  0  0  0  0
  -25.9081  -34.9556   23.5174 C   0  0  0  0  0  0
  -16.4935  -29.8821   23.5968 C   0  0  0  0  0  0
  -16.7520  -28.6546   22.9535 C   0  0  0  0  0  0
  -26.4481  -31.6727   25.0942 C   0  0  0  0  0  0
  -25.3756  -31.3950   26.1718 C   0  0  0  0  0  0
  -27.0232  -30.3154   24.6273 C   0  0  0  0  0  0
  -27.6021  -32.4454   25.7719 C   0  0  0  0  0  0
  -27.5591  -37.1873   24.8453 C   0  0  0  0  0  0
  -21.3972  -29.4001   22.4344 N   0  0  0  0  0  0
  -26.4303  -37.3876   23.9395 N   0  0  0  0  0  0
  -24.6653  -31.1188   22.1274 N   0  0  0  0  0  0
  -23.4047  -28.8826   23.2845 O   0  0  0  0  0  0
  -27.7502  -26.2582   20.3349 O   0  0  0  0  0  0
  -26.5487  -34.8937   22.4653 O   0  0  0  0  0  0
  -23.5388  -32.1858   23.7780 O   0  0  0  0  0  0
  -25.3272  -18.9337   20.9844 C   0  0  0  0  0  0
  -27.3826  -19.6026   20.5251 C   0  0  0  0  0  0
  -26.1095  -20.0665   20.6606 C   0  0  0  0  0  0
  -26.3139  -24.0736   21.3653 C   0  0  0  0  0  0
  -26.3996  -24.4116   19.0730 C   0  0  0  0  0  0
  -26.6267  -25.2346   20.3587 C   0  0  2  0  0  0
  -24.9575  -23.5324   20.7329 C   0  0  1  0  0  0
  -24.6536  -22.0484   20.9176 C   0  0  0  0  0  0
  -28.3187  -17.3104   20.1404 C   0  0  0  0  0  0
  -28.7201  -16.1689   21.0883 C   0  0  0  0  0  0
  -26.0725  -17.8496   20.9909 N   0  0  0  0  0  0
  -27.3155  -18.2441   20.6309 N   0  0  0  0  0  0
  -25.8008  -21.3987   20.3810 N   0  0  0  0  0  0
  -30.0128  -15.6346   20.6257 N   0  0  0  0  0  0
  -25.1029  -23.7281   19.2775 N   0  3  0  0  0  0
  -31.4599  -12.3766   19.1161 H   0  0  0  0  0  0
  -30.2934  -11.2795   19.8120 H   0  0  0  0  0  0
  -29.7280  -11.7336   17.4108 H   0  0  0  0  0  0
  -29.6424  -13.4441   17.7300 H   0  0  0  0  0  0
  -27.8097  -11.2553   18.7795 H   0  0  0  0  0  0
  -27.3507  -12.5885   17.7569 H   0  0  0  0  0  0
  -27.6863  -14.1748   19.4818 H   0  0  0  0  0  0
  -28.6922  -11.9089   21.2803 H   0  0  0  0  0  0
  -28.4702  -13.5147   21.8728 H   0  0  0  0  0  0
  -25.2714   -9.5497   22.4827 H   0  0  0  0  0  0
  -23.9904   -7.4487   22.7488 H   0  0  0  0  0  0
  -21.0793   -8.8708   19.8980 H   0  0  0  0  0  0
  -22.3697  -10.9593   19.6211 H   0  0  0  0  0  0
  -21.1967   -7.6113   23.9699 H   0  0  0  0  0  0
  -21.1479   -6.0512   25.9091 H   0  0  0  0  0  0
  -22.0620   -2.7566   23.2882 H   0  0  0  0  0  0
  -22.4039  -11.9889   22.4827 H   0  0  0  0  0  0
  -21.1163  -13.1267   22.2653 H   0  0  0  0  0  0
  -24.7526  -15.8447   20.5880 H   0  0  0  0  0  0
  -26.3007  -15.5538   20.0235 H   0  0  0  0  0  0
  -26.7248  -32.5702   23.1385 H   0  0  0  0  0  0
  -25.0270  -33.9974   25.0684 H   0  0  0  0  0  0
  -22.7081  -31.4076   21.4165 H   0  0  0  0  0  0
  -23.3705  -35.9809   23.3234 H   0  0  0  0  0  0
  -24.3606  -36.9072   22.2013 H   0  0  0  0  0  0
  -23.7286  -37.6641   23.6614 H   0  0  0  0  0  0
  -26.0529  -31.5521   20.6202 H   0  0  0  0  0  0
  -26.8157  -30.8959   22.0455 H   0  0  0  0  0  0
  -27.7699  -28.7179   21.7242 H   0  0  0  0  0  0
  -26.2683  -26.8082   18.1267 H   0  0  0  0  0  0
  -24.0713  -27.7761   18.5756 H   0  0  0  0  0  0
  -23.6786  -30.6687   19.3990 H   0  0  0  0  0  0
  -22.7161  -29.3433   19.9285 H   0  0  0  0  0  0
  -25.1234  -36.2037   25.0802 H   0  0  0  0  0  0
  -21.0290  -28.3856   24.2049 H   0  0  0  0  0  0
  -20.7117  -26.2746   23.2903 H   0  0  0  0  0  0
  -21.7305  -26.9660   22.0240 H   0  0  0  0  0  0
  -19.8687  -25.8401   20.9880 H   0  0  0  0  0  0
  -19.7686  -27.5740   20.6587 H   0  0  0  0  0  0
  -18.2436  -26.0327   22.8196 H   0  0  0  0  0  0
  -17.6120  -26.7083   21.2690 H   0  0  0  0  0  0
  -19.6867  -30.6641   24.4915 H   0  0  0  0  0  0
  -17.3718  -31.5269   24.6730 H   0  0  0  0  0  0
  -15.4847  -30.2426   23.7054 H   0  0  0  0  0  0
  -15.9358  -28.0580   22.5560 H   0  0  0  0  0  0
  -24.5951  -30.7184   25.8236 H   0  0  0  0  0  0
  -24.8889  -32.3153   26.4960 H   0  0  0  0  0  0
  -25.8148  -30.9405   27.0591 H   0  0  0  0  0  0
  -26.2760  -29.7083   24.1149 H   0  0  0  0  0  0
  -27.3801  -29.7243   25.4695 H   0  0  0  0  0  0
  -27.8702  -30.4479   23.9559 H   0  0  0  0  0  0
  -27.2591  -33.3769   26.2195 H   0  0  0  0  0  0
  -28.3877  -32.7004   25.0628 H   0  0  0  0  0  0
  -28.0573  -31.8663   26.5733 H   0  0  0  0  0  0
  -28.2563  -38.0176   24.7466 H   0  0  0  0  0  0
  -28.1077  -36.2723   24.6264 H   0  0  0  0  0  0
  -27.2308  -37.1545   25.8838 H   0  0  0  0  0  0
  -20.8830  -29.9371   21.7436 H   0  0  0  0  0  0
  -26.0157  -38.2936   24.1416 H   0  0  0  0  0  0
  -24.2533  -18.8648   21.1530 H   0  0  0  0  0  0
  -28.2808  -20.1163   20.2398 H   0  0  0  0  0  0
  -26.2074  -24.4185   22.3893 H   0  0  0  0  0  0
  -27.1029  -23.3162   21.3953 H   0  0  0  0  0  0
  -27.2124  -23.6617   19.0422 H   0  0  0  0  0  0
  -26.3817  -24.8982   18.0999 H   0  0  0  0  0  0
  -25.7341  -25.8029   20.6642 H   0  0  0  0  0  0
  -24.0678  -24.0855   21.0231 H   0  0  0  0  0  0
  -23.7401  -21.7610   20.3603 H   0  0  0  0  0  0
  -24.4588  -21.7404   21.9313 H   0  0  0  0  0  0
  -27.9354  -16.8986   19.2128 H   0  0  0  0  0  0
  -29.1905  -17.9112   19.8742 H   0  0  0  0  0  0
  -27.9053  -15.4533   21.1525 H   0  0  0  0  0  0
  -28.8392  -16.5251   22.0993 H   0  0  0  0  0  0
  -26.5800  -22.0430   20.3830 H   0  0  0  0  0  0
  -30.6437  -16.3894   20.4169 H   0  0  0  0  0  0
  -25.1648  -22.7778   18.9146 H   0  0  0  0  0  0
  -24.2853  -24.2186   18.9026 H   0  0  0  0  0  0
  1 25  1  0  0  0
  1 30  2  0  0  0
  1 84  1  0  0  0
  2  3  1  0  0  0
  2 25  1  0  0  0
  2 86  1  0  0  0
  2 87  1  0  0  0
  3  4  1  0  0  0
  3 88  1  0  0  0
  3 89  1  0  0  0
  4  5  1  0  0  0
  4 90  1  0  0  0
  4 91  1  0  0  0
  5  6  1  0  0  0
  5 26  1  0  0  0
  5 92  1  0  0  0
  6 25  1  0  0  0
  6 93  1  0  0  0
  6 94  1  0  0  0
  7  8  2  0  0  0
  7 26  1  0  0  0
  7 29  1  0  0  0
  8  9  1  0  0  0
  8 22  1  0  0  0
  9 10  1  0  0  0
  9 27  2  0  0  0
 10 11  2  0  0  0
 10 15  1  0  0  0
 11 12  1  0  0  0
 11 95  1  0  0  0
 12 13  2  0  0  0
 12 96  1  0  0  0
 13 14  1  0  0  0
 13 31  1  0  0  0
 14 15  2  0  0  0
 14 97  1  0  0  0
 15 98  1  0  0  0
 16 17  2  0  0  0
 16 21  1  0  0  0
 16 31  1  0  0  0
 17 18  1  0  0  0
 17 99  1  0  0  0
 18 19  2  0  0  0
 18100  1  0  0  0
 19 20  1  0  0  0
 19 24  1  0  0  0
 20 21  2  0  0  0
 20101  1  0  0  0
 21 23  1  0  0  0
 22 28  1  0  0  0
 22 32  2  0  0  0
 26 27  1  0  0  0
 28102  1  0  0  0
 28103  1  0  0  0
 29104  1  0  0  0
 29105  1  0  0  0
 33 34  1  0  0  0
 33 66  1  0  0  0
 33 70  2  0  0  0
 34 36  1  0  0  0
 34 59  1  0  0  0
 34106  1  0  0  0
 35 44  2  0  0  0
 35 45  1  0  0  0
 35 68  1  0  0  0
 36 56  1  0  0  0
 36107  1  0  0  0
 37 39  1  0  0  0
 37 47  1  0  0  0
 37 66  1  0  0  0
 37108  1  0  0  0
 38 43  2  0  0  0
 38 46  1  0  0  0
 38 47  1  0  0  0
 39 64  1  0  0  0
 39 67  2  0  0  0
 40 52  1  0  0  0
 40 53  2  0  0  0
 40 58  1  0  0  0
 41109  1  0  0  0
 41110  1  0  0  0
 41111  1  0  0  0
 41 48  1  0  0  0
 42 43  1  0  0  0
 42 66  1  0  0  0
 42112  1  0  0  0
 42113  1  0  0  0
 43 44  1  0  0  0
 44114  1  0  0  0
 45 46  2  0  0  0
 45115  1  0  0  0
 46116  1  0  0  0
 47117  1  0  0  0
 47118  1  0  0  0
 48 56  1  0  0  0
 48 65  1  0  0  0
 48119  1  0  0  0
 49 50  1  0  0  0
 49 53  1  0  0  0
 49 64  1  0  0  0
 49120  1  0  0  0
 50 51  1  0  0  0
 50121  1  0  0  0
 50122  1  0  0  0
 51 52  1  0  0  0
 51123  1  0  0  0
 51124  1  0  0  0
 52125  1  0  0  0
 52126  1  0  0  0
 53 54  1  0  0  0
 54 55  2  0  0  0
 54127  1  0  0  0
 55 57  1  0  0  0
 55128  1  0  0  0
 56 69  2  0  0  0
 57 58  2  0  0  0
 57129  1  0  0  0
 58130  1  0  0  0
 59 60  1  0  0  0
 59 61  1  0  0  0
 59 62  1  0  0  0
 60131  1  0  0  0
 60132  1  0  0  0
 60133  1  0  0  0
 61134  1  0  0  0
 61135  1  0  0  0
 61136  1  0  0  0
 62137  1  0  0  0
 62138  1  0  0  0
 62139  1  0  0  0
 63 65  1  0  0  0
 63140  1  0  0  0
 63141  1  0  0  0
 63142  1  0  0  0
 64143  1  0  0  0
 65144  1  0  0  0
 68 76  1  0  0  0
 71 73  1  0  0  0
 71 81  2  0  0  0
 71145  1  0  0  0
 72 73  2  0  0  0
 72 82  1  0  0  0
 72146  1  0  0  0
 73 83  1  0  0  0
 74 76  1  0  0  0
 74 77  1  0  0  0
 74147  1  0  0  0
 74148  1  0  0  0
 75 76  1  0  0  0
 75 85  1  0  0  0
 75149  1  0  0  0
 75150  1  0  0  0
 76151  1  0  0  0
 77 78  1  0  0  0
 77 85  1  0  0  0
 77152  1  0  0  0
 78 83  1  0  0  0
 78153  1  0  0  0
 78154  1  0  0  0
 79 80  1  0  0  0
 79 82  1  0  0  0
 79155  1  0  0  0
 79156  1  0  0  0
 80 84  1  0  0  0
 80157  1  0  0  0
 80158  1  0  0  0
 81 82  1  0  0  0
 83159  1  0  0  0
 84160  1  0  0  0
 85161  1  0  0  0
 85162  1  0  0  0
M  CHG  1  85   1
M  ISO  4   1 100  68 101  76 101  84 100
M  END
> <chiral flag>
0

> <version>
0

> <s_m_source_file>
/data/baiqing/PycharmProjects/Reinvent-master-3.2/result/LINK_invent/BTK/process_docking_weight1_custom_sum_contain_oxygen_bond_distance_aromatic_linkinvent_7_9_3/rearranged_h_0197.sdf

> <i_m_source_file_index>
64

> <r_mmod_Potential_Energy-OPLS-2005>
457.141357421875

> <r_mmod_Stretch_Energy-OPLS-2005>
59.3894805908203

> <r_mmod_Bend_Energy-OPLS-2005>
282.032653808594

> <r_mmod_Torsional_Energy-OPLS-2005>
448.204467773438

> <r_mmod_Improper_Torsional_Energy-OPLS-2005>
24.8001537322998

> <r_mmod_Van_der_Waal_Energy-OPLS-2005>
202.518661499023

> <r_mmod_Electrostatic_Energy-OPLS-2005>
-279.903625488281

> <r_mmod_Solvation_Energy-OPLS-2005>
-469.845703125

> <b_mmod_Minimization_Converged-OPLS-2005>
0

> <r_mmod_RMS_Derivative-OPLS-2005>
31.9442043304443

$$$$
64
                    3D
 Structure written by MMmdl.
163172  0  0  1  0            999 V2000
  -30.6855  -14.4691   20.5372 C   0  0  0  0  0  0
  -30.4253  -12.2927   19.4204 C   0  0  0  0  0  0
  -29.4981  -12.4959   18.2025 C   0  0  0  0  0  0
  -28.0130  -12.3702   18.6075 C   0  0  0  0  0  0
  -27.6591  -13.1973   19.8729 C   0  0  2  0  0  0
  -28.7039  -12.9644   20.9889 C   0  0  0  0  0  0
  -25.2583  -13.8126   20.5655 C   0  0  0  0  0  0
  -24.1833  -13.0423   20.9190 C   0  0  0  0  0  0
  -24.6376  -11.6885   20.8745 C   0  0  0  0  0  0
  -23.9045  -10.4281   21.0417 C   0  0  0  0  0  0
  -24.3606   -9.4199   21.9192 C   0  0  0  0  0  0
  -23.6295   -8.2227   22.0756 C   0  0  0  0  0  0
  -22.4271   -8.0268   21.3554 C   0  0  0  0  0  0
  -21.9902   -9.0237   20.4650 C   0  0  0  0  0  0
  -22.7222  -10.2121   20.3059 C   0  0  0  0  0  0
  -21.6840   -6.0731   22.5287 C   0  0  0  0  0  0
  -21.3999   -6.5634   23.8223 C   0  0  0  0  0  0
  -21.3663   -5.6788   24.9183 C   0  0  0  0  0  0
  -21.6050   -4.3054   24.7226 C   0  0  0  0  0  0
  -21.8821   -3.8142   23.4347 C   0  0  0  0  0  0
  -21.9186   -4.6958   22.3404 C   0  0  0  0  0  0
  -22.7861  -13.5238   21.1849 C   0  0  0  0  0  0
  -22.1657   -4.2142   21.0980 F   0  0  0  0  0  0
  -21.5646   -3.4543   25.7747 F   0  0  0  0  0  0
  -30.0306  -13.2802   20.4363 N   0  0  0  0  0  0
  -26.3010  -12.9272   20.3347 N   0  0  0  0  0  0
  -25.9299  -11.6451   20.5761 N   0  0  0  0  0  0
  -22.0472  -12.8259   22.0402 N   0  0  0  0  0  0
  -25.4295  -15.1840   20.3979 N   0  0  0  0  0  0
  -31.8557  -14.6125   20.1657 O   0  0  0  0  0  0
  -21.6632   -6.8871   21.4248 O   0  0  0  0  0  0
  -22.3570  -14.5545   20.6690 O   0  0  0  0  0  0
  -24.6132  -31.8689   23.2129 C   0  0  0  0  0  0
  -25.9026  -32.4827   23.8421 C   0  0  1  0  0  0
  -27.2263  -27.4416   20.0993 C   0  0  0  0  0  0
  -25.5895  -33.8631   24.2347 N   0  0  0  0  0  0
  -23.4011  -30.4936   21.5520 C   0  0  2  0  0  0
  -24.8493  -28.9635   20.1147 C   0  0  0  0  0  0
  -22.7411  -29.4656   22.4991 C   0  0  0  0  0  0
  -18.0270  -28.1374   22.8488 C   0  0  0  0  0  0
  -24.1486  -36.7324   23.2637 C   0  0  0  0  0  0
  -25.9304  -30.8352   21.3682 C   0  0  0  0  0  0
  -26.0082  -29.4705   20.7174 C   0  0  0  0  0  0
  -27.2027  -28.7149   20.7131 C   0  0  0  0  0  0
  -26.0612  -26.9608   19.4721 C   0  0  0  0  0  0
  -24.8701  -27.7078   19.4868 C   0  0  0  0  0  0
  -23.6105  -29.8279   20.1658 C   0  0  0  0  0  0
  -25.4101  -36.3127   24.0348 C   0  0  1  0  0  0
  -20.5860  -28.3665   23.1317 C   0  0  2  0  0  0
  -20.6760  -26.9404   22.5415 C   0  0  0  0  0  0
  -19.5742  -26.6382   21.5212 C   0  0  0  0  0  0
  -18.1919  -26.7924   22.1618 C   0  0  0  0  0  0
  -19.1517  -28.8839   23.2894 C   0  0  0  0  0  0
  -18.9442  -30.1443   23.8905 C   0  0  0  0  0  0
  -17.6445  -30.6583   24.0559 C   0  0  0  0  0  0
  -25.9024  -34.9484   23.5138 C   0  0  0  0  0  0
  -16.5339  -29.9083   23.6322 C   0  0  0  0  0  0
  -16.7256  -28.6498   23.0349 C   0  0  0  0  0  0
  -26.4466  -31.6599   25.0738 C   0  0  0  0  0  0
  -25.3742  -31.3696   26.1495 C   0  0  0  0  0  0
  -27.0295  -30.3042   24.6102 C   0  0  0  0  0  0
  -27.6061  -32.4309   25.7485 C   0  0  0  0  0  0
  -27.5588  -37.1811   24.8458 C   0  0  0  0  0  0
  -21.4140  -29.3028   22.3736 N   0  0  0  0  0  0
  -26.4289  -37.3806   23.9419 N   0  0  0  0  0  0
  -24.6658  -31.0801   22.1025 N   0  0  0  0  0  0
  -23.4189  -28.8186   23.3022 O   0  0  0  0  0  0
  -28.3566  -26.6588   20.1171 O   0  0  0  0  0  0
  -26.5576  -34.8927   22.4692 O   0  0  0  0  0  0
  -23.5325  -32.1443   23.7520 O   0  0  0  0  0  0
  -27.3870  -23.5933   19.6693 C   0  0  0  0  0  0
  -28.3569  -24.2035   20.5147 C   0  0  0  0  0  0
  -29.2703  -23.1958   20.7247 C   0  0  0  0  0  0
  -29.1623  -16.0719   21.7037 C   0  0  0  0  0  0
  -29.8796  -16.4480   19.3535 C   0  0  0  0  0  0
  -29.4460  -17.5712   21.9872 C   0  0  0  0  0  0
  -30.3006  -17.8783   19.7266 C   0  0  0  0  0  0
  -30.5057  -23.1652   21.5678 C   0  0  0  0  0  0
  -28.3156  -25.6070   21.0990 C   0  0  0  0  0  0
  -29.4689  -20.7815   19.7889 C   0  0  0  0  0  0
  -29.5200  -19.8759   21.0486 C   0  0  0  0  0  0
  -27.6882  -22.3454   19.3553 N   0  0  0  0  0  0
  -28.8477  -22.0906   19.9967 N   0  0  0  0  0  0
  -29.8659  -15.5490   20.5190 N   0  0  0  0  0  0
  -29.3852  -18.4136   20.7636 N   0  3  0  0  0  0
  -31.4695  -12.3938   19.1191 H   0  0  0  0  0  0
  -30.3282  -11.2786   19.8143 H   0  0  0  0  0  0
  -29.7358  -11.7709   17.4228 H   0  0  0  0  0  0
  -29.6741  -13.4785   17.7631 H   0  0  0  0  0  0
  -27.8056  -11.3151   18.7878 H   0  0  0  0  0  0
  -27.3709  -12.6636   17.7748 H   0  0  0  0  0  0
  -27.6979  -14.2448   19.5807 H   0  0  0  0  0  0
  -28.6838  -11.9233   21.3154 H   0  0  0  0  0  0
  -28.4705  -13.5444   21.8786 H   0  0  0  0  0  0
  -25.2745   -9.5681   22.4771 H   0  0  0  0  0  0
  -24.0010   -7.4610   22.7459 H   0  0  0  0  0  0
  -21.0840   -8.8747   19.8959 H   0  0  0  0  0  0
  -22.3679  -10.9659   19.6170 H   0  0  0  0  0  0
  -21.1979   -7.6141   23.9732 H   0  0  0  0  0  0
  -21.1496   -6.0509   25.9093 H   0  0  0  0  0  0
  -22.0600   -2.7602   23.2842 H   0  0  0  0  0  0
  -22.4060  -11.9918   22.4819 H   0  0  0  0  0  0
  -21.1093  -13.1321   22.2575 H   0  0  0  0  0  0
  -24.6510  -15.8294   20.4726 H   0  0  0  0  0  0
  -26.2591  -15.6059   20.0043 H   0  0  0  0  0  0
  -26.7102  -32.5549   23.1195 H   0  0  0  0  0  0
  -25.0078  -33.9807   25.0517 H   0  0  0  0  0  0
  -22.6889  -31.3092   21.4136 H   0  0  0  0  0  0
  -23.3758  -35.9645   23.3292 H   0  0  0  0  0  0
  -24.3595  -36.8935   22.2053 H   0  0  0  0  0  0
  -23.7218  -37.6524   23.6642 H   0  0  0  0  0  0
  -26.0428  -31.5998   20.5991 H   0  0  0  0  0  0
  -26.8186  -30.8903   21.9854 H   0  0  0  0  0  0
  -28.0947  -29.0933   21.1929 H   0  0  0  0  0  0
  -26.0683  -26.0143   18.9601 H   0  0  0  0  0  0
  -23.9852  -27.3194   19.0022 H   0  0  0  0  0  0
  -23.7179  -30.6014   19.4056 H   0  0  0  0  0  0
  -22.7369  -29.2451   19.8693 H   0  0  0  0  0  0
  -25.1274  -36.2001   25.0843 H   0  0  0  0  0  0
  -20.9945  -28.3219   24.1442 H   0  0  0  0  0  0
  -20.5666  -26.2270   23.3596 H   0  0  0  0  0  0
  -21.6627  -26.7456   22.1199 H   0  0  0  0  0  0
  -19.6904  -25.6296   21.1233 H   0  0  0  0  0  0
  -19.6681  -27.3189   20.6742 H   0  0  0  0  0  0
  -17.4193  -26.6675   21.4014 H   0  0  0  0  0  0
  -18.0320  -26.0055   22.9005 H   0  0  0  0  0  0
  -19.7921  -30.7250   24.2279 H   0  0  0  0  0  0
  -17.5005  -31.6267   24.5151 H   0  0  0  0  0  0
  -15.5337  -30.2988   23.7645 H   0  0  0  0  0  0
  -15.8653  -28.0816   22.7068 H   0  0  0  0  0  0
  -24.5904  -30.7055   25.7828 H   0  0  0  0  0  0
  -24.8945  -32.2847   26.4980 H   0  0  0  0  0  0
  -25.8104  -30.8835   27.0231 H   0  0  0  0  0  0
  -26.2831  -29.6804   24.1167 H   0  0  0  0  0  0
  -27.4083  -29.7276   25.4552 H   0  0  0  0  0  0
  -27.8666  -30.4368   23.9242 H   0  0  0  0  0  0
  -27.2706  -33.3606   26.2093 H   0  0  0  0  0  0
  -28.3852  -32.6867   25.0293 H   0  0  0  0  0  0
  -28.0750  -31.8410   26.5370 H   0  0  0  0  0  0
  -28.2590  -38.0129   24.7557 H   0  0  0  0  0  0
  -28.1107  -36.2670   24.6220 H   0  0  0  0  0  0
  -27.2324  -37.1378   25.8863 H   0  0  0  0  0  0
  -20.9307  -29.8766   21.6972 H   0  0  0  0  0  0
  -26.0192  -38.2884   24.1436 H   0  0  0  0  0  0
  -26.4643  -23.9963   19.2831 H   0  0  0  0  0  0
  -28.0908  -15.9323   21.5516 H   0  0  0  0  0  0
  -29.4244  -15.4963   22.5930 H   0  0  0  0  0  0
  -30.5268  -16.0762   18.5553 H   0  0  0  0  0  0
  -28.8785  -16.4550   18.9203 H   0  0  0  0  0  0
  -30.4350  -17.6742   22.4356 H   0  0  0  0  0  0
  -28.7345  -17.9375   22.7291 H   0  0  0  0  0  0
  -30.2879  -18.4864   18.8239 H   0  0  0  0  0  0
  -31.3294  -17.8928   20.0927 H   0  0  0  0  0  0
  -30.8858  -24.1684   21.7573 H   0  0  0  0  0  0
  -31.3025  -22.6000   21.0856 H   0  0  0  0  0  0
  -30.2985  -22.7012   22.5328 H   0  0  0  0  0  0
  -29.1605  -25.7709   21.7663 H   0  0  0  0  0  0
  -27.4411  -25.7075   21.7466 H   0  0  0  0  0  0
  -28.9150  -20.2823   18.9919 H   0  0  0  0  0  0
  -30.4751  -20.9370   19.3970 H   0  0  0  0  0  0
  -28.7089  -20.1557   21.7220 H   0  0  0  0  0  0
  -30.4468  -20.0597   21.5935 H   0  0  0  0  0  0
  -28.4514  -18.3017   20.3969 H   0  0  0  0  0  0
  1 25  1  0  0  0
  1 30  2  0  0  0
  1 84  1  0  0  0
  2  3  1  0  0  0
  2 25  1  0  0  0
  2 86  1  0  0  0
  2 87  1  0  0  0
  3  4  1  0  0  0
  3 88  1  0  0  0
  3 89  1  0  0  0
  4  5  1  0  0  0
  4 90  1  0  0  0
  4 91  1  0  0  0
  5  6  1  0  0  0
  5 26  1  0  0  0
  5 92  1  0  0  0
  6 25  1  0  0  0
  6 93  1  0  0  0
  6 94  1  0  0  0
  7  8  2  0  0  0
  7 26  1  0  0  0
  7 29  1  0  0  0
  8  9  1  0  0  0
  8 22  1  0  0  0
  9 10  1  0  0  0
  9 27  2  0  0  0
 10 11  2  0  0  0
 10 15  1  0  0  0
 11 12  1  0  0  0
 11 95  1  0  0  0
 12 13  2  0  0  0
 12 96  1  0  0  0
 13 14  1  0  0  0
 13 31  1  0  0  0
 14 15  2  0  0  0
 14 97  1  0  0  0
 15 98  1  0  0  0
 16 17  2  0  0  0
 16 21  1  0  0  0
 16 31  1  0  0  0
 17 18  1  0  0  0
 17 99  1  0  0  0
 18 19  2  0  0  0
 18100  1  0  0  0
 19 20  1  0  0  0
 19 24  1  0  0  0
 20 21  2  0  0  0
 20101  1  0  0  0
 21 23  1  0  0  0
 22 28  1  0  0  0
 22 32  2  0  0  0
 26 27  1  0  0  0
 28102  1  0  0  0
 28103  1  0  0  0
 29104  1  0  0  0
 29105  1  0  0  0
 33 34  1  0  0  0
 33 66  1  0  0  0
 33 70  2  0  0  0
 34 36  1  0  0  0
 34 59  1  0  0  0
 34106  1  0  0  0
 35 44  2  0  0  0
 35 45  1  0  0  0
 35 68  1  0  0  0
 36 56  1  0  0  0
 36107  1  0  0  0
 37 39  1  0  0  0
 37 47  1  0  0  0
 37 66  1  0  0  0
 37108  1  0  0  0
 38 43  2  0  0  0
 38 46  1  0  0  0
 38 47  1  0  0  0
 39 64  1  0  0  0
 39 67  2  0  0  0
 40 52  1  0  0  0
 40 53  2  0  0  0
 40 58  1  0  0  0
 41109  1  0  0  0
 41110  1  0  0  0
 41111  1  0  0  0
 41 48  1  0  0  0
 42 43  1  0  0  0
 42 66  1  0  0  0
 42112  1  0  0  0
 42113  1  0  0  0
 43 44  1  0  0  0
 44114  1  0  0  0
 45 46  2  0  0  0
 45115  1  0  0  0
 46116  1  0  0  0
 47117  1  0  0  0
 47118  1  0  0  0
 48 56  1  0  0  0
 48 65  1  0  0  0
 48119  1  0  0  0
 49 50  1  0  0  0
 49 53  1  0  0  0
 49 64  1  0  0  0
 49120  1  0  0  0
 50 51  1  0  0  0
 50121  1  0  0  0
 50122  1  0  0  0
 51 52  1  0  0  0
 51123  1  0  0  0
 51124  1  0  0  0
 52125  1  0  0  0
 52126  1  0  0  0
 53 54  1  0  0  0
 54 55  2  0  0  0
 54127  1  0  0  0
 55 57  1  0  0  0
 55128  1  0  0  0
 56 69  2  0  0  0
 57 58  2  0  0  0
 57129  1  0  0  0
 58130  1  0  0  0
 59 60  1  0  0  0
 59 61  1  0  0  0
 59 62  1  0  0  0
 60131  1  0  0  0
 60132  1  0  0  0
 60133  1  0  0  0
 61134  1  0  0  0
 61135  1  0  0  0
 61136  1  0  0  0
 62137  1  0  0  0
 62138  1  0  0  0
 62139  1  0  0  0
 63 65  1  0  0  0
 63140  1  0  0  0
 63141  1  0  0  0
 63142  1  0  0  0
 64143  1  0  0  0
 65144  1  0  0  0
 68 79  1  0  0  0
 71 72  1  0  0  0
 71 82  2  0  0  0
 71145  1  0  0  0
 72 73  2  0  0  0
 72 79  1  0  0  0
 73 78  1  0  0  0
 73 83  1  0  0  0
 74 76  1  0  0  0
 74 84  1  0  0  0
 74146  1  0  0  0
 74147  1  0  0  0
 75 77  1  0  0  0
 75 84  1  0  0  0
 75148  1  0  0  0
 75149  1  0  0  0
 76 85  1  0  0  0
 76150  1  0  0  0
 76151  1  0  0  0
 77 85  1  0  0  0
 77152  1  0  0  0
 77153  1  0  0  0
 78154  1  0  0  0
 78155  1  0  0  0
 78156  1  0  0  0
 79157  1  0  0  0
 79158  1  0  0  0
 80 81  1  0  0  0
 80 83  1  0  0  0
 80159  1  0  0  0
 80160  1  0  0  0
 81161  1  0  0  0
 81162  1  0  0  0
 81 85  1  0  0  0
 82 83  1  0  0  0
 85163  1  0  0  0
M  CHG  1  85   1
M  ISO  4   1 100  68 101  79 101  84 100
M  END
> <chiral flag>
0

> <version>
0

> <s_m_source_file>
/data/baiqing/PycharmProjects/Reinvent-master-3.2/result/LINK_invent/BTK/process_docking_weight1_custom_sum_contain_oxygen_bond_distance_aromatic_linkinvent_7_9_3/rearranged_h_0197.sdf

> <i_m_source_file_index>
65

> <r_mmod_Potential_Energy-OPLS-2005>
49.0872383117676

> <r_mmod_Stretch_Energy-OPLS-2005>
37.0575866699219

> <r_mmod_Bend_Energy-OPLS-2005>
94.3920211791992

> <r_mmod_Torsional_Energy-OPLS-2005>
436.389099121094

> <r_mmod_Improper_Torsional_Energy-OPLS-2005>
19.3301029205322

> <r_mmod_Van_der_Waal_Energy-OPLS-2005>
130.144165039062

> <r_mmod_Electrostatic_Energy-OPLS-2005>
-230.456161499023

> <r_mmod_Solvation_Energy-OPLS-2005>
-453.252227783203

> <b_mmod_Minimization_Converged-OPLS-2005>
0

> <r_mmod_RMS_Derivative-OPLS-2005>
2.02942132949829

$$$$
65
                    3D
 Structure written by MMmdl.
158167  0  0  1  0            999 V2000
  -30.6771  -14.5876   20.5360 C   0  0  0  0  0  0
  -30.4189  -12.3716   19.4468 C   0  0  0  0  0  0
  -29.4949  -12.5083   18.2190 C   0  0  0  0  0  0
  -28.0194  -12.3509   18.6328 C   0  0  0  0  0  0
  -27.6501  -13.2177   19.8660 C   0  0  2  0  0  0
  -28.6936  -13.0750   20.9956 C   0  0  0  0  0  0
  -25.2538  -13.8172   20.5702 C   0  0  0  0  0  0
  -24.1809  -13.0432   20.9194 C   0  0  0  0  0  0
  -24.6381  -11.6906   20.8748 C   0  0  0  0  0  0
  -23.9055  -10.4286   21.0405 C   0  0  0  0  0  0
  -24.3610   -9.4202   21.9181 C   0  0  0  0  0  0
  -23.6289   -8.2238   22.0751 C   0  0  0  0  0  0
  -22.4271   -8.0275   21.3541 C   0  0  0  0  0  0
  -21.9905   -9.0247   20.4645 C   0  0  0  0  0  0
  -22.7228  -10.2129   20.3056 C   0  0  0  0  0  0
  -21.6851   -6.0733   22.5278 C   0  0  0  0  0  0
  -21.4010   -6.5639   23.8209 C   0  0  0  0  0  0
  -21.3660   -5.6794   24.9173 C   0  0  0  0  0  0
  -21.6045   -4.3054   24.7226 C   0  0  0  0  0  0
  -21.8820   -3.8146   23.4346 C   0  0  0  0  0  0
  -21.9191   -4.6962   22.3401 C   0  0  0  0  0  0
  -22.7833  -13.5223   21.1858 C   0  0  0  0  0  0
  -22.1661   -4.2149   21.0978 F   0  0  0  0  0  0
  -21.5631   -3.4538   25.7740 F   0  0  0  0  0  0
  -30.0119  -13.3954   20.4304 N   0  0  0  0  0  0
  -26.2968  -12.9359   20.3353 N   0  0  0  0  0  0
  -25.9310  -11.6511   20.5777 N   0  0  0  0  0  0
  -22.0486  -12.8215   22.0420 N   0  0  0  0  0  0
  -25.4248  -15.1891   20.4111 N   0  0  0  0  0  0
  -31.8207  -14.7208   20.0919 O   0  0  0  0  0  0
  -21.6636   -6.8871   21.4238 O   0  0  0  0  0  0
  -22.3520  -14.5535   20.6714 O   0  0  0  0  0  0
  -24.6238  -31.8624   23.2055 C   0  0  0  0  0  0
  -25.9099  -32.4792   23.8375 C   0  0  1  0  0  0
  -27.2151  -27.3342   20.1071 C   0  0  0  0  0  0
  -25.5925  -33.8593   24.2291 N   0  0  0  0  0  0
  -23.4151  -30.4871   21.5490 C   0  0  2  0  0  0
  -24.8599  -28.9516   20.1068 C   0  0  0  0  0  0
  -22.7466  -29.4627   22.4960 C   0  0  0  0  0  0
  -18.0279  -28.1378   22.8483 C   0  0  0  0  0  0
  -24.1481  -36.7294   23.2637 C   0  0  0  0  0  0
  -25.9561  -30.7957   21.3772 C   0  0  0  0  0  0
  -26.0280  -29.4262   20.7165 C   0  0  0  0  0  0
  -27.2076  -28.6266   20.7128 C   0  0  0  0  0  0
  -26.0278  -26.9234   19.4528 C   0  0  0  0  0  0
  -24.8609  -27.7050   19.4673 C   0  0  0  0  0  0
  -23.6269  -29.8277   20.1617 C   0  0  0  0  0  0
  -25.4110  -36.3088   24.0325 C   0  0  1  0  0  0
  -20.5877  -28.3679   23.1295 C   0  0  2  0  0  0
  -20.6768  -26.9407   22.5415 C   0  0  0  0  0  0
  -19.5745  -26.6376   21.5216 C   0  0  0  0  0  0
  -18.1921  -26.7919   22.1626 C   0  0  0  0  0  0
  -19.1530  -28.8847   23.2878 C   0  0  0  0  0  0
  -18.9460  -30.1450   23.8894 C   0  0  0  0  0  0
  -17.6461  -30.6585   24.0559 C   0  0  0  0  0  0
  -25.9054  -34.9456   23.5105 C   0  0  0  0  0  0
  -16.5351  -29.9086   23.6329 C   0  0  0  0  0  0
  -16.7269  -28.6503   23.0350 C   0  0  0  0  0  0
  -26.4487  -31.6605   25.0739 C   0  0  0  0  0  0
  -25.3721  -31.3736   26.1468 C   0  0  0  0  0  0
  -27.0334  -30.3033   24.6191 C   0  0  0  0  0  0
  -27.6047  -32.4345   25.7510 C   0  0  0  0  0  0
  -27.5577  -37.1794   24.8466 C   0  0  0  0  0  0
  -21.4181  -29.3040   22.3708 N   0  0  0  0  0  0
  -26.4287  -37.3784   23.9411 N   0  0  0  0  0  0
  -24.6835  -31.0643   22.1007 N   0  0  0  0  0  0
  -23.4206  -28.8151   23.3013 O   0  0  0  0  0  0
  -28.3291  -26.4844   20.1798 O   0  0  0  0  0  0
  -26.5627  -34.8918   22.4673 O   0  0  0  0  0  0
  -23.5411  -32.1429   23.7389 O   0  0  0  0  0  0
  -30.0663  -20.5903   19.3160 C   0  0  0  0  0  0
  -30.7369  -16.8082   21.7213 C   0  0  0  0  0  0
  -29.0891  -16.5907   20.4751 C   0  0  0  0  0  0
  -29.5788  -22.0291   18.9913 C   0  0  0  0  0  0
  -28.9441  -21.4470   21.1991 C   0  0  0  0  0  0
  -29.1566  -20.0934   20.4407 C   0  0  2  0  0  0
  -30.1013  -17.7382   20.6727 C   0  0  0  0  0  0
  -29.0726  -23.9720   20.5794 C   0  0  0  0  0  0
  -28.1302  -25.0457   19.8999 C   0  0  0  0  0  0
  -30.0365  -15.6461   21.1255 N   0  0  0  0  0  0
  -28.8100  -22.5281   20.1638 N   0  3  1  0  0  0
  -29.6828  -19.0077   21.2650 O   0  0  0  0  0  0
  -31.4629  -12.4718   19.1446 H   0  0  0  0  0  0
  -30.3319  -11.3752   19.8838 H   0  0  0  0  0  0
  -29.7525  -11.7626   17.4657 H   0  0  0  0  0  0
  -29.6423  -13.4822   17.7499 H   0  0  0  0  0  0
  -27.8487  -11.2970   18.8563 H   0  0  0  0  0  0
  -27.3644  -12.5921   17.7947 H   0  0  0  0  0  0
  -27.6682  -14.2529   19.5283 H   0  0  0  0  0  0
  -28.6956  -12.0581   21.3920 H   0  0  0  0  0  0
  -28.4447  -13.7250   21.8356 H   0  0  0  0  0  0
  -25.2754   -9.5683   22.4757 H   0  0  0  0  0  0
  -24.0001   -7.4629   22.7469 H   0  0  0  0  0  0
  -21.0838   -8.8761   19.8951 H   0  0  0  0  0  0
  -22.3679  -10.9669   19.6171 H   0  0  0  0  0  0
  -21.2000   -7.6147   23.9714 H   0  0  0  0  0  0
  -21.1483   -6.0522   25.9077 H   0  0  0  0  0  0
  -22.0600   -2.7609   23.2848 H   0  0  0  0  0  0
  -22.4108  -11.9872   22.4793 H   0  0  0  0  0  0
  -21.1111  -13.1243   22.2653 H   0  0  0  0  0  0
  -24.6590  -15.8450   20.5202 H   0  0  0  0  0  0
  -26.2802  -15.6262   20.0947 H   0  0  0  0  0  0
  -26.7164  -32.5459   23.1127 H   0  0  0  0  0  0
  -25.0057  -33.9753   25.0421 H   0  0  0  0  0  0
  -22.7070  -31.3067   21.4102 H   0  0  0  0  0  0
  -23.3750  -35.9619   23.3300 H   0  0  0  0  0  0
  -24.3572  -36.8928   22.2055 H   0  0  0  0  0  0
  -23.7231  -37.6485   23.6674 H   0  0  0  0  0  0
  -26.0876  -31.5616   20.6115 H   0  0  0  0  0  0
  -26.8368  -30.8410   22.0065 H   0  0  0  0  0  0
  -28.1006  -28.9821   21.2077 H   0  0  0  0  0  0
  -25.9608  -25.9845   18.9234 H   0  0  0  0  0  0
  -23.9680  -27.3424   18.9756 H   0  0  0  0  0  0
  -23.7379  -30.6072   19.4069 H   0  0  0  0  0  0
  -22.7476  -29.2545   19.8629 H   0  0  0  0  0  0
  -25.1283  -36.1943   25.0818 H   0  0  0  0  0  0
  -20.9952  -28.3255   24.1424 H   0  0  0  0  0  0
  -20.5678  -26.2292   23.3614 H   0  0  0  0  0  0
  -21.6633  -26.7442   22.1204 H   0  0  0  0  0  0
  -19.6908  -25.6285   21.1258 H   0  0  0  0  0  0
  -19.6685  -27.3176   20.6737 H   0  0  0  0  0  0
  -17.4190  -26.6662   21.4033 H   0  0  0  0  0  0
  -18.0316  -26.0065   22.9027 H   0  0  0  0  0  0
  -19.7937  -30.7254   24.2278 H   0  0  0  0  0  0
  -17.5019  -31.6269   24.5154 H   0  0  0  0  0  0
  -15.5353  -30.2986   23.7656 H   0  0  0  0  0  0
  -15.8666  -28.0825   22.7069 H   0  0  0  0  0  0
  -24.5889  -30.7097   25.7794 H   0  0  0  0  0  0
  -24.8910  -32.2895   26.4910 H   0  0  0  0  0  0
  -25.8034  -30.8901   27.0242 H   0  0  0  0  0  0
  -26.2908  -29.6790   24.1206 H   0  0  0  0  0  0
  -27.4029  -29.7289   25.4696 H   0  0  0  0  0  0
  -27.8780  -30.4327   23.9417 H   0  0  0  0  0  0
  -27.2663  -33.3658   26.2071 H   0  0  0  0  0  0
  -28.3864  -32.6899   25.0341 H   0  0  0  0  0  0
  -28.0707  -31.8484   26.5447 H   0  0  0  0  0  0
  -28.2582  -38.0101   24.7525 H   0  0  0  0  0  0
  -28.1080  -36.2633   24.6273 H   0  0  0  0  0  0
  -27.2289  -37.1418   25.8865 H   0  0  0  0  0  0
  -20.9363  -29.8807   21.6957 H   0  0  0  0  0  0
  -26.0170  -38.2853   24.1433 H   0  0  0  0  0  0
  -31.0948  -20.6310   19.6750 H   0  0  0  0  0  0
  -30.0485  -19.9385   18.4430 H   0  0  0  0  0  0
  -30.4127  -17.0219   22.7412 H   0  0  0  0  0  0
  -31.8267  -16.7832   21.6690 H   0  0  0  0  0  0
  -28.8800  -16.3829   19.4244 H   0  0  0  0  0  0
  -28.1639  -16.7272   21.0373 H   0  0  0  0  0  0
  -28.9191  -22.0244   18.1227 H   0  0  0  0  0  0
  -30.4259  -22.6694   18.7449 H   0  0  0  0  0  0
  -29.8202  -21.6567   21.8148 H   0  0  0  0  0  0
  -28.0793  -21.4164   21.8620 H   0  0  0  0  0  0
  -28.2075  -19.7692   20.0102 H   0  0  0  0  0  0
  -30.7630  -17.8616   19.8127 H   0  0  0  0  0  0
  -28.9234  -24.0479   21.6568 H   0  0  0  0  0  0
  -30.1182  -24.2277   20.4082 H   0  0  0  0  0  0
  -27.1290  -24.7505   20.2136 H   0  0  0  0  0  0
  -28.1698  -24.9180   18.8173 H   0  0  0  0  0  0
  -27.8396  -22.4877   19.8807 H   0  0  0  0  0  0
  1 25  1  0  0  0
  1 30  2  0  0  0
  1 80  1  0  0  0
  2  3  1  0  0  0
  2 25  1  0  0  0
  2 83  1  0  0  0
  2 84  1  0  0  0
  3  4  1  0  0  0
  3 85  1  0  0  0
  3 86  1  0  0  0
  4  5  1  0  0  0
  4 87  1  0  0  0
  4 88  1  0  0  0
  5  6  1  0  0  0
  5 26  1  0  0  0
  5 89  1  0  0  0
  6 25  1  0  0  0
  6 90  1  0  0  0
  6 91  1  0  0  0
  7  8  2  0  0  0
  7 26  1  0  0  0
  7 29  1  0  0  0
  8  9  1  0  0  0
  8 22  1  0  0  0
  9 10  1  0  0  0
  9 27  2  0  0  0
 10 11  2  0  0  0
 10 15  1  0  0  0
 11 12  1  0  0  0
 11 92  1  0  0  0
 12 13  2  0  0  0
 12 93  1  0  0  0
 13 14  1  0  0  0
 13 31  1  0  0  0
 14 15  2  0  0  0
 14 94  1  0  0  0
 15 95  1  0  0  0
 16 17  2  0  0  0
 16 21  1  0  0  0
 16 31  1  0  0  0
 17 18  1  0  0  0
 17 96  1  0  0  0
 18 19  2  0  0  0
 18 97  1  0  0  0
 19 20  1  0  0  0
 19 24  1  0  0  0
 20 21  2  0  0  0
 20 98  1  0  0  0
 21 23  1  0  0  0
 22 28  1  0  0  0
 22 32  2  0  0  0
 26 27  1  0  0  0
 28 99  1  0  0  0
 28100  1  0  0  0
 29101  1  0  0  0
 29102  1  0  0  0
 33 34  1  0  0  0
 33 66  1  0  0  0
 33 70  2  0  0  0
 34 36  1  0  0  0
 34 59  1  0  0  0
 34103  1  0  0  0
 35 44  2  0  0  0
 35 45  1  0  0  0
 35 68  1  0  0  0
 36 56  1  0  0  0
 36104  1  0  0  0
 37 39  1  0  0  0
 37 47  1  0  0  0
 37 66  1  0  0  0
 37105  1  0  0  0
 38 43  2  0  0  0
 38 46  1  0  0  0
 38 47  1  0  0  0
 39 64  1  0  0  0
 39 67  2  0  0  0
 40 52  1  0  0  0
 40 53  2  0  0  0
 40 58  1  0  0  0
 41106  1  0  0  0
 41107  1  0  0  0
 41108  1  0  0  0
 41 48  1  0  0  0
 42 43  1  0  0  0
 42 66  1  0  0  0
 42109  1  0  0  0
 42110  1  0  0  0
 43 44  1  0  0  0
 44111  1  0  0  0
 45 46  2  0  0  0
 45112  1  0  0  0
 46113  1  0  0  0
 47114  1  0  0  0
 47115  1  0  0  0
 48 56  1  0  0  0
 48 65  1  0  0  0
 48116  1  0  0  0
 49 50  1  0  0  0
 49 53  1  0  0  0
 49 64  1  0  0  0
 49117  1  0  0  0
 50 51  1  0  0  0
 50118  1  0  0  0
 50119  1  0  0  0
 51 52  1  0  0  0
 51120  1  0  0  0
 51121  1  0  0  0
 52122  1  0  0  0
 52123  1  0  0  0
 53 54  1  0  0  0
 54 55  2  0  0  0
 54124  1  0  0  0
 55 57  1  0  0  0
 55125  1  0  0  0
 56 69  2  0  0  0
 57 58  2  0  0  0
 57126  1  0  0  0
 58127  1  0  0  0
 59 60  1  0  0  0
 59 61  1  0  0  0
 59 62  1  0  0  0
 60128  1  0  0  0
 60129  1  0  0  0
 60130  1  0  0  0
 61131  1  0  0  0
 61132  1  0  0  0
 61133  1  0  0  0
 62134  1  0  0  0
 62135  1  0  0  0
 62136  1  0  0  0
 63 65  1  0  0  0
 63137  1  0  0  0
 63138  1  0  0  0
 63139  1  0  0  0
 64140  1  0  0  0
 65141  1  0  0  0
 68 79  1  0  0  0
 71 74  1  0  0  0
 71 76  1  0  0  0
 71142  1  0  0  0
 71143  1  0  0  0
 72 77  1  0  0  0
 72 80  1  0  0  0
 72144  1  0  0  0
 72145  1  0  0  0
 73 77  1  0  0  0
 73 80  1  0  0  0
 73146  1  0  0  0
 73147  1  0  0  0
 74 81  1  0  0  0
 74148  1  0  0  0
 74149  1  0  0  0
 75 76  1  0  0  0
 75 81  1  0  0  0
 75150  1  0  0  0
 75151  1  0  0  0
 76 82  1  0  0  0
 76152  1  0  0  0
 77 82  1  0  0  0
 77153  1  0  0  0
 78 79  1  0  0  0
 78154  1  0  0  0
 78155  1  0  0  0
 78 81  1  0  0  0
 79156  1  0  0  0
 79157  1  0  0  0
 81158  1  0  0  0
M  CHG  1  81   1
M  ISO  4   1 100  68 101  79 101  80 100
M  END
> <chiral flag>
0

> <version>
0

> <s_m_source_file>
/data/baiqing/PycharmProjects/Reinvent-master-3.2/result/LINK_invent/BTK/process_docking_weight1_custom_sum_contain_oxygen_bond_distance_aromatic_linkinvent_7_9_3/rearranged_h_0197.sdf

> <i_m_source_file_index>
66

> <r_mmod_Potential_Energy-OPLS-2005>
86.8483657836914

> <r_mmod_Stretch_Energy-OPLS-2005>
67.8949432373047

> <r_mmod_Bend_Energy-OPLS-2005>
170.801376342773

> <r_mmod_Torsional_Energy-OPLS-2005>
322.287017822266

> <r_mmod_Improper_Torsional_Energy-OPLS-2005>
8.3076639175415

> <r_mmod_Van_der_Waal_Energy-OPLS-2005>
125.64697265625

> <r_mmod_Electrostatic_Energy-OPLS-2005>
-211.478744506836

> <r_mmod_Solvation_Energy-OPLS-2005>
-436.049957275391

> <b_mmod_Minimization_Converged-OPLS-2005>
0

> <r_mmod_RMS_Derivative-OPLS-2005>
1.0547217130661

$$$$
66
                    3D
 Structure written by MMmdl.
166175  0  0  1  0            999 V2000
  -30.7496  -14.4319   20.6352 C   0  0  0  0  0  0
  -30.4164  -12.3078   19.4124 C   0  0  0  0  0  0
  -29.4846  -12.5115   18.2029 C   0  0  0  0  0  0
  -28.0088  -12.3571   18.6169 C   0  0  0  0  0  0
  -27.6586  -13.1890   19.8752 C   0  0  2  0  0  0
  -28.7039  -12.9835   20.9969 C   0  0  0  0  0  0
  -25.2624  -13.8109   20.5714 C   0  0  0  0  0  0
  -24.1868  -13.0415   20.9218 C   0  0  0  0  0  0
  -24.6391  -11.6868   20.8773 C   0  0  0  0  0  0
  -23.9049  -10.4269   21.0429 C   0  0  0  0  0  0
  -24.3606   -9.4188   21.9199 C   0  0  0  0  0  0
  -23.6295   -8.2220   22.0757 C   0  0  0  0  0  0
  -22.4280   -8.0258   21.3556 C   0  0  0  0  0  0
  -21.9911   -9.0233   20.4666 C   0  0  0  0  0  0
  -22.7234  -10.2111   20.3072 C   0  0  0  0  0  0
  -21.6854   -6.0738   22.5297 C   0  0  0  0  0  0
  -21.4006   -6.5647   23.8228 C   0  0  0  0  0  0
  -21.3661   -5.6799   24.9193 C   0  0  0  0  0  0
  -21.6041   -4.3062   24.7254 C   0  0  0  0  0  0
  -21.8823   -3.8156   23.4382 C   0  0  0  0  0  0
  -21.9195   -4.6967   22.3434 C   0  0  0  0  0  0
  -22.7890  -13.5223   21.1888 C   0  0  0  0  0  0
  -22.1672   -4.2153   21.1009 F   0  0  0  0  0  0
  -21.5634   -3.4541   25.7770 F   0  0  0  0  0  0
  -30.0410  -13.2808   20.4527 N   0  0  0  0  0  0
  -26.3019  -12.9224   20.3395 N   0  0  0  0  0  0
  -25.9305  -11.6410   20.5811 N   0  0  0  0  0  0
  -22.0542  -12.8181   22.0417 N   0  0  0  0  0  0
  -25.4380  -15.1831   20.4115 N   0  0  0  0  0  0
  -31.8289  -14.6413   20.0735 O   0  0  0  0  0  0
  -21.6645   -6.8856   21.4244 O   0  0  0  0  0  0
  -22.3562  -14.5533   20.6743 O   0  0  0  0  0  0
  -24.6084  -31.8711   23.2134 C   0  0  0  0  0  0
  -25.8996  -32.4846   23.8421 C   0  0  1  0  0  0
  -27.2427  -27.4851   20.0845 C   0  0  0  0  0  0
  -25.5867  -33.8639   24.2353 N   0  0  0  0  0  0
  -23.3939  -30.4938   21.5526 C   0  0  2  0  0  0
  -24.8424  -28.9563   20.1249 C   0  0  0  0  0  0
  -22.7367  -29.4687   22.5022 C   0  0  0  0  0  0
  -18.0257  -28.1394   22.8491 C   0  0  0  0  0  0
  -24.1482  -36.7334   23.2637 C   0  0  0  0  0  0
  -25.9159  -30.8504   21.3587 C   0  0  0  0  0  0
  -25.9958  -29.4825   20.7190 C   0  0  0  0  0  0
  -27.1989  -28.7492   20.7080 C   0  0  0  0  0  0
  -26.0748  -26.9494   19.5086 C   0  0  0  0  0  0
  -24.8711  -27.6820   19.5262 C   0  0  0  0  0  0
  -23.6011  -29.8181   20.1695 C   0  0  0  0  0  0
  -25.4096  -36.3129   24.0345 C   0  0  1  0  0  0
  -20.5848  -28.3674   23.1333 C   0  0  2  0  0  0
  -20.6756  -26.9415   22.5426 C   0  0  0  0  0  0
  -19.5740  -26.6399   21.5216 C   0  0  0  0  0  0
  -18.1916  -26.7939   22.1620 C   0  0  0  0  0  0
  -19.1509  -28.8843   23.2911 C   0  0  0  0  0  0
  -18.9441  -30.1451   23.8920 C   0  0  0  0  0  0
  -17.6451  -30.6591   24.0577 C   0  0  0  0  0  0
  -25.9014  -34.9486   23.5148 C   0  0  0  0  0  0
  -16.5335  -29.9105   23.6326 C   0  0  0  0  0  0
  -16.7252  -28.6529   23.0335 C   0  0  0  0  0  0
  -26.4447  -31.6609   25.0726 C   0  0  0  0  0  0
  -25.3759  -31.3693   26.1516 C   0  0  0  0  0  0
  -27.0251  -30.3053   24.6058 C   0  0  0  0  0  0
  -27.6028  -32.4325   25.7474 C   0  0  0  0  0  0
  -27.5580  -37.1812   24.8458 C   0  0  0  0  0  0
  -21.4101  -29.3040   22.3740 N   0  0  0  0  0  0
  -26.4288  -37.3805   23.9409 N   0  0  0  0  0  0
  -24.6581  -31.0862   22.1007 N   0  0  0  0  0  0
  -23.4146  -28.8241   23.3065 O   0  0  0  0  0  0
  -28.4142  -26.7787   20.0151 O   0  0  0  0  0  0
  -26.5581  -34.8925   22.4713 O   0  0  0  0  0  0
  -23.5290  -32.1434   23.7557 O   0  0  0  0  0  0
  -30.3405  -19.8610   21.5978 C   0  0  0  0  0  0
  -28.3223  -20.4781   21.0577 C   0  0  0  0  0  0
  -29.6088  -18.7600   21.2053 C   0  0  0  0  0  0
  -30.9374  -16.5636   21.9571 C   0  0  0  0  0  0
  -29.0743  -16.1881   21.2085 C   0  0  0  0  0  0
  -30.0496  -17.3387   20.9821 C   0  0  0  0  0  0
  -31.6268  -27.2547   18.0849 C   0  0  0  0  0  0
  -29.8227  -22.3747   21.6467 C   0  0  0  0  0  0
  -29.9886  -23.0818   20.2850 C   0  0  0  0  0  0
  -30.7127  -25.1535   19.1504 C   0  0  0  0  0  0
  -29.3023  -27.2975   19.0299 C   0  0  0  0  0  0
  -30.7125  -26.6983   19.1900 C   0  0  2  0  0  0
  -28.3169  -19.1649   20.8634 N   0  0  0  0  0  0
  -29.5038  -20.9682   21.4538 N   0  0  0  0  0  0
  -30.2411  -15.3400   21.5018 N   0  0  0  0  0  0
  -30.1915  -24.5438   20.3944 N   0  3  0  0  0  0
  -31.4583  -12.4005   19.1028 H   0  0  0  0  0  0
  -30.3093  -11.2927   19.7999 H   0  0  0  0  0  0
  -29.7270  -11.7972   17.4152 H   0  0  0  0  0  0
  -29.6490  -13.5032   17.7766 H   0  0  0  0  0  0
  -27.8116  -11.2989   18.7973 H   0  0  0  0  0  0
  -27.3572  -12.6490   17.7930 H   0  0  0  0  0  0
  -27.6827  -14.2243   19.5540 H   0  0  0  0  0  0
  -28.6804  -11.9536   21.3522 H   0  0  0  0  0  0
  -28.4558  -13.5836   21.8725 H   0  0  0  0  0  0
  -25.2761   -9.5665   22.4766 H   0  0  0  0  0  0
  -24.0045   -7.4584   22.7428 H   0  0  0  0  0  0
  -21.0871   -8.8733   19.8955 H   0  0  0  0  0  0
  -22.3703  -10.9643   19.6178 H   0  0  0  0  0  0
  -21.1969   -7.6153   23.9736 H   0  0  0  0  0  0
  -21.1493   -6.0537   25.9090 H   0  0  0  0  0  0
  -22.0599   -2.7621   23.2904 H   0  0  0  0  0  0
  -22.4181  -11.9847   22.4788 H   0  0  0  0  0  0
  -21.1155  -13.1205   22.2626 H   0  0  0  0  0  0
  -24.6775  -15.8437   20.5304 H   0  0  0  0  0  0
  -26.2954  -15.6218   20.1011 H   0  0  0  0  0  0
  -26.7068  -32.5568   23.1193 H   0  0  0  0  0  0
  -25.0027  -33.9815   25.0508 H   0  0  0  0  0  0
  -22.6815  -31.3088   21.4114 H   0  0  0  0  0  0
  -23.3728  -35.9684   23.3324 H   0  0  0  0  0  0
  -24.3572  -36.8920   22.2043 H   0  0  0  0  0  0
  -23.7248  -37.6556   23.6633 H   0  0  0  0  0  0
  -26.0155  -31.6125   20.5842 H   0  0  0  0  0  0
  -26.8084  -30.9131   21.9702 H   0  0  0  0  0  0
  -28.0927  -29.1552   21.1594 H   0  0  0  0  0  0
  -26.1034  -25.9792   19.0341 H   0  0  0  0  0  0
  -23.9816  -27.2651   19.0748 H   0  0  0  0  0  0
  -23.7027  -30.5894   19.4048 H   0  0  0  0  0  0
  -22.7269  -29.2332   19.8782 H   0  0  0  0  0  0
  -25.1274  -36.2005   25.0841 H   0  0  0  0  0  0
  -20.9929  -28.3250   24.1459 H   0  0  0  0  0  0
  -20.5669  -26.2285   23.3613 H   0  0  0  0  0  0
  -21.6632  -26.7474   22.1217 H   0  0  0  0  0  0
  -19.6909  -25.6315   21.1242 H   0  0  0  0  0  0
  -19.6697  -27.3220   20.6756 H   0  0  0  0  0  0
  -17.4193  -26.6689   21.4017 H   0  0  0  0  0  0
  -18.0313  -26.0078   22.9014 H   0  0  0  0  0  0
  -19.7922  -30.7262   24.2300 H   0  0  0  0  0  0
  -17.5008  -31.6272   24.5188 H   0  0  0  0  0  0
  -15.5344  -30.3020   23.7642 H   0  0  0  0  0  0
  -15.8646  -28.0863   22.7025 H   0  0  0  0  0  0
  -24.5927  -30.7023   25.7897 H   0  0  0  0  0  0
  -24.8956  -32.2835   26.5010 H   0  0  0  0  0  0
  -25.8172  -30.8862   27.0245 H   0  0  0  0  0  0
  -26.2757  -29.6836   24.1139 H   0  0  0  0  0  0
  -27.4051  -29.7266   25.4489 H   0  0  0  0  0  0
  -27.8589  -30.4373   23.9157 H   0  0  0  0  0  0
  -27.2640  -33.3607   26.2092 H   0  0  0  0  0  0
  -28.3810  -32.6919   25.0286 H   0  0  0  0  0  0
  -28.0729  -31.8434   26.5360 H   0  0  0  0  0  0
  -28.2607  -38.0100   24.7503 H   0  0  0  0  0  0
  -28.1069  -36.2633   24.6290 H   0  0  0  0  0  0
  -27.2302  -37.1473   25.8862 H   0  0  0  0  0  0
  -20.9261  -29.8734   21.6943 H   0  0  0  0  0  0
  -26.0191  -38.2891   24.1407 H   0  0  0  0  0  0
  -31.3763  -19.9457   21.9017 H   0  0  0  0  0  0
  -27.4667  -21.1102   20.8604 H   0  0  0  0  0  0
  -30.7535  -16.8122   23.0037 H   0  0  0  0  0  0
  -31.9998  -16.6384   21.7213 H   0  0  0  0  0  0
  -28.3992  -16.3280   22.0558 H   0  0  0  0  0  0
  -28.5239  -15.9692   20.2993 H   0  0  0  0  0  0
  -30.4774  -17.2668   19.9801 H   0  0  0  0  0  0
  -32.6512  -26.8947   18.1892 H   0  0  0  0  0  0
  -31.6602  -28.3447   18.1131 H   0  0  0  0  0  0
  -31.2709  -26.9611   17.0960 H   0  0  0  0  0  0
  -29.0187  -22.8279   22.2277 H   0  0  0  0  0  0
  -30.7346  -22.4552   22.2399 H   0  0  0  0  0  0
  -29.1083  -22.9134   19.6612 H   0  0  0  0  0  0
  -30.8367  -22.6343   19.7644 H   0  0  0  0  0  0
  -31.7304  -24.7889   18.9980 H   0  0  0  0  0  0
  -30.1337  -24.8076   18.2922 H   0  0  0  0  0  0
  -28.8993  -27.0714   18.0405 H   0  0  0  0  0  0
  -29.3667  -28.3854   19.1036 H   0  0  0  0  0  0
  -31.1217  -27.0311   20.1449 H   0  0  0  0  0  0
  -30.8283  -24.7424   21.1482 H   0  0  0  0  0  0
  -29.3103  -24.9878   20.6075 H   0  0  0  0  0  0
  1 25  1  0  0  0
  1 30  2  0  0  0
  1 85  1  0  0  0
  2  3  1  0  0  0
  2 25  1  0  0  0
  2 87  1  0  0  0
  2 88  1  0  0  0
  3  4  1  0  0  0
  3 89  1  0  0  0
  3 90  1  0  0  0
  4  5  1  0  0  0
  4 91  1  0  0  0
  4 92  1  0  0  0
  5  6  1  0  0  0
  5 26  1  0  0  0
  5 93  1  0  0  0
  6 25  1  0  0  0
  6 94  1  0  0  0
  6 95  1  0  0  0
  7  8  2  0  0  0
  7 26  1  0  0  0
  7 29  1  0  0  0
  8  9  1  0  0  0
  8 22  1  0  0  0
  9 10  1  0  0  0
  9 27  2  0  0  0
 10 11  2  0  0  0
 10 15  1  0  0  0
 11 12  1  0  0  0
 11 96  1  0  0  0
 12 13  2  0  0  0
 12 97  1  0  0  0
 13 14  1  0  0  0
 13 31  1  0  0  0
 14 15  2  0  0  0
 14 98  1  0  0  0
 15 99  1  0  0  0
 16 17  2  0  0  0
 16 21  1  0  0  0
 16 31  1  0  0  0
 17 18  1  0  0  0
 17100  1  0  0  0
 18 19  2  0  0  0
 18101  1  0  0  0
 19 20  1  0  0  0
 19 24  1  0  0  0
 20 21  2  0  0  0
 20102  1  0  0  0
 21 23  1  0  0  0
 22 28  1  0  0  0
 22 32  2  0  0  0
 26 27  1  0  0  0
 28103  1  0  0  0
 28104  1  0  0  0
 29105  1  0  0  0
 29106  1  0  0  0
 33 34  1  0  0  0
 33 66  1  0  0  0
 33 70  2  0  0  0
 34 36  1  0  0  0
 34 59  1  0  0  0
 34107  1  0  0  0
 35 44  2  0  0  0
 35 45  1  0  0  0
 35 68  1  0  0  0
 36 56  1  0  0  0
 36108  1  0  0  0
 37 39  1  0  0  0
 37 47  1  0  0  0
 37 66  1  0  0  0
 37109  1  0  0  0
 38 43  2  0  0  0
 38 46  1  0  0  0
 38 47  1  0  0  0
 39 64  1  0  0  0
 39 67  2  0  0  0
 40 52  1  0  0  0
 40 53  2  0  0  0
 40 58  1  0  0  0
 41110  1  0  0  0
 41111  1  0  0  0
 41112  1  0  0  0
 41 48  1  0  0  0
 42 43  1  0  0  0
 42 66  1  0  0  0
 42113  1  0  0  0
 42114  1  0  0  0
 43 44  1  0  0  0
 44115  1  0  0  0
 45 46  2  0  0  0
 45116  1  0  0  0
 46117  1  0  0  0
 47118  1  0  0  0
 47119  1  0  0  0
 48 56  1  0  0  0
 48 65  1  0  0  0
 48120  1  0  0  0
 49 50  1  0  0  0
 49 53  1  0  0  0
 49 64  1  0  0  0
 49121  1  0  0  0
 50 51  1  0  0  0
 50122  1  0  0  0
 50123  1  0  0  0
 51 52  1  0  0  0
 51124  1  0  0  0
 51125  1  0  0  0
 52126  1  0  0  0
 52127  1  0  0  0
 53 54  1  0  0  0
 54 55  2  0  0  0
 54128  1  0  0  0
 55 57  1  0  0  0
 55129  1  0  0  0
 56 69  2  0  0  0
 57 58  2  0  0  0
 57130  1  0  0  0
 58131  1  0  0  0
 59 60  1  0  0  0
 59 61  1  0  0  0
 59 62  1  0  0  0
 60132  1  0  0  0
 60133  1  0  0  0
 60134  1  0  0  0
 61135  1  0  0  0
 61136  1  0  0  0
 61137  1  0  0  0
 62138  1  0  0  0
 62139  1  0  0  0
 62140  1  0  0  0
 63 65  1  0  0  0
 63141  1  0  0  0
 63142  1  0  0  0
 63143  1  0  0  0
 64144  1  0  0  0
 65145  1  0  0  0
 68 81  1  0  0  0
 71 73  2  0  0  0
 71 84  1  0  0  0
 71146  1  0  0  0
 72 83  2  0  0  0
 72 84  1  0  0  0
 72147  1  0  0  0
 73 83  1  0  0  0
 73 76  1  0  0  0
 74 76  1  0  0  0
 74 85  1  0  0  0
 74148  1  0  0  0
 74149  1  0  0  0
 75 76  1  0  0  0
 75 85  1  0  0  0
 75150  1  0  0  0
 75151  1  0  0  0
 76152  1  0  0  0
 77153  1  0  0  0
 77154  1  0  0  0
 77155  1  0  0  0
 77 82  1  0  0  0
 78 79  1  0  0  0
 78 84  1  0  0  0
 78156  1  0  0  0
 78157  1  0  0  0
 79 86  1  0  0  0
 79158  1  0  0  0
 79159  1  0  0  0
 80 82  1  0  0  0
 80 86  1  0  0  0
 80160  1  0  0  0
 80161  1  0  0  0
 81 82  1  0  0  0
 81162  1  0  0  0
 81163  1  0  0  0
 82164  1  0  0  0
 86165  1  0  0  0
 86166  1  0  0  0
M  CHG  1  86   1
M  ISO  4   1 100  68 101  81 101  85 100
M  END
> <chiral flag>
0

> <version>
0

> <s_m_source_file>
/data/baiqing/PycharmProjects/Reinvent-master-3.2/result/LINK_invent/BTK/process_docking_weight1_custom_sum_contain_oxygen_bond_distance_aromatic_linkinvent_7_9_3/rearranged_h_0197.sdf

> <i_m_source_file_index>
67

> <r_mmod_Potential_Energy-OPLS-2005>
-158.258651733398

> <r_mmod_Stretch_Energy-OPLS-2005>
33.6324768066406

> <r_mmod_Bend_Energy-OPLS-2005>
107.230285644531

> <r_mmod_Torsional_Energy-OPLS-2005>
298.607757568359

> <r_mmod_Improper_Torsional_Energy-OPLS-2005>
9.47520065307617

> <r_mmod_Van_der_Waal_Energy-OPLS-2005>
132.70036315918

> <r_mmod_Electrostatic_Energy-OPLS-2005>
-275.791687011719

> <r_mmod_Solvation_Energy-OPLS-2005>
-472.130035400391

> <b_mmod_Minimization_Converged-OPLS-2005>
0

> <r_mmod_RMS_Derivative-OPLS-2005>
3.07264113426208

$$$$
67
                    3D
 Structure written by MMmdl.
173182  0  0  1  0            999 V2000
  -28.9200  -18.0054   20.2940 C   0  0  0  0  0  0
  -29.8499  -14.9997   19.4574 C   0  0  0  0  0  0
  -29.4854  -13.7455   18.3517 C   0  0  0  0  0  0
  -28.3784  -12.8614   18.9702 C   0  0  0  0  0  0
  -27.4787  -13.7604   19.8731 C   0  0  2  0  0  0
  -28.1705  -14.8696   20.8791 C   0  0  0  0  0  0
  -25.1937  -13.8699   20.7182 C   0  0  0  0  0  0
  -24.1938  -13.0192   20.9651 C   0  0  0  0  0  0
  -24.7213  -11.6943   20.8695 C   0  0  0  0  0  0
  -23.9865  -10.4169   21.0118 C   0  0  0  0  0  0
  -24.4102   -9.4128   21.9057 C   0  0  0  0  0  0
  -23.6464   -8.2387   22.0882 C   0  0  0  0  0  0
  -22.4421   -8.0461   21.3716 C   0  0  0  0  0  0
  -22.0216   -9.0432   20.4786 C   0  0  0  0  0  0
  -22.7904  -10.2056   20.2933 C   0  0  0  0  0  0
  -21.6948   -6.0899   22.5263 C   0  0  0  0  0  0
  -21.4238   -6.5839   23.8199 C   0  0  0  0  0  0
  -21.3626   -5.6946   24.9104 C   0  0  0  0  0  0
  -21.5959   -4.3191   24.7117 C   0  0  0  0  0  0
  -21.8859   -3.8327   23.4241 C   0  0  0  0  0  0
  -21.9252   -4.7149   22.3322 C   0  0  0  0  0  0
  -22.7982  -13.4869   21.1393 C   0  0  0  0  0  0
  -22.1771   -4.2403   21.0880 F   0  0  0  0  0  0
  -21.5346   -3.4603   25.7562 F   0  0  0  0  0  0
  -28.8081  -16.2258   20.1628 N   0  0  0  0  0  0
  -26.3029  -13.1093   20.4484 N   0  0  0  0  0  0
  -26.0377  -11.7567   20.5689 N   0  0  0  0  0  0
  -22.1003  -12.7807   21.9880 N   0  0  0  0  0  0
  -25.1476  -15.2532   20.5925 N   0  0  0  0  0  0
  -30.1725  -17.6522   20.2181 O   0  0  0  0  0  0
  -21.6793   -6.9053   21.4269 O   0  0  0  0  0  0
  -22.3714  -14.5111   20.5981 O   0  0  0  0  0  0
  -24.8290  -31.5171   23.0116 C   0  0  0  0  0  0
  -26.0052  -32.3279   23.6966 C   0  0  1  0  0  0
  -27.1310  -26.7326   20.7239 C   0  0  0  0  0  0
  -25.5678  -33.7137   24.0396 N   0  0  0  0  0  0
  -23.6814  -29.9667   21.4416 C   0  0  2  0  0  0
  -24.7443  -28.0041   20.6159 C   0  0  0  0  0  0
  -22.7446  -29.3357   22.4907 C   0  0  0  0  0  0
  -17.9849  -28.0983   22.8250 C   0  0  0  0  0  0
  -24.1465  -36.6690   23.2772 C   0  0  0  0  0  0
  -26.1642  -29.6296   21.6866 C   0  0  0  0  0  0
  -25.8679  -28.4156   21.3494 C   0  0  0  0  0  0
  -27.0662  -27.7845   21.3146 C   0  0  0  0  0  0
  -25.7194  -26.1433   20.0078 C   0  0  0  0  0  0
  -24.5615  -26.9903   19.8283 C   0  0  0  0  0  0
  -23.9158  -28.9382   20.3188 C   0  0  0  0  0  0
  -25.4178  -36.2167   24.0156 C   0  0  1  0  0  0
  -20.5522  -28.3758   23.1171 C   0  0  2  0  0  0
  -20.6586  -26.9348   22.5908 C   0  0  0  0  0  0
  -19.5926  -26.6055   21.5309 C   0  0  0  0  0  0
  -18.1764  -26.7363   22.1285 C   0  0  0  0  0  0
  -19.1181  -28.8543   23.2428 C   0  0  0  0  0  0
  -18.9585  -30.1032   23.8535 C   0  0  0  0  0  0
  -17.6905  -30.6618   24.0216 C   0  0  0  0  0  0
  -25.9297  -34.8632   23.4398 C   0  0  0  0  0  0
  -16.5524  -29.9324   23.6322 C   0  0  0  0  0  0
  -16.6902  -28.6432   23.0567 C   0  0  0  0  0  0
  -26.4826  -31.6771   25.0390 C   0  0  0  0  0  0
  -25.2934  -31.3102   26.0039 C   0  0  0  0  0  0
  -27.0731  -30.3234   24.6856 C   0  0  0  0  0  0
  -27.6744  -32.4950   25.6862 C   0  0  0  0  0  0
  -27.5458  -37.1375   24.8416 C   0  0  0  0  0  0
  -21.4074  -29.2749   22.3185 N   0  0  0  0  0  0
  -26.4179  -37.3104   23.9326 N   0  0  0  0  0  0
  -24.9579  -30.4205   22.1200 N   0  0  0  0  0  0
  -23.2892  -28.8279   23.4699 O   0  0  0  0  0  0
  -28.5437  -26.4010   20.9953 O   0  0  0  0  0  0
  -26.6593  -34.8713   22.4464 O   0  0  0  0  0  0
  -23.7151  -31.9568   23.3701 O   0  0  0  0  0  0
  -30.4270  -23.4604   18.8894 C   0  0  0  0  0  0
  -29.6369  -24.7106   18.9343 C   0  0  0  0  0  0
  -30.3360  -26.1308   18.6799 C   0  0  0  0  0  0
  -32.1448  -24.9354   18.6594 C   0  0  0  0  0  0
  -26.7106  -21.0497   20.4740 C   0  0  0  0  0  0
  -26.2221  -22.5047   21.3075 C   0  0  0  0  0  0
  -27.3151  -24.3115   19.6085 C   0  0  0  0  0  0
  -28.3370  -22.0289   20.2597 C   0  0  2  0  0  0
  -30.1345  -27.8019   18.5140 C   0  0  0  0  0  0
  -28.4422  -23.0753   23.3280 C   0  0  0  0  0  0
  -28.0634  -23.6635   19.0717 C   0  0  0  0  0  0
  -32.3381  -25.5146   21.1191 C   0  0  0  0  0  0
  -30.4111  -25.5505   21.4300 C   0  0  0  0  0  0
  -29.0505  -22.4494   21.7809 C   0  0  1  0  0  0
  -31.7044  -23.7240   18.6224 N   0  0  0  0  0  0
  -31.5891  -26.0584   18.3717 N   0  0  0  0  0  0
  -28.1299  -19.9420   20.3366 N   0  0  0  0  0  0
  -32.7033  -24.8779   19.8868 N   0  0  0  0  0  0
  -26.7080  -23.8417   20.7059 N   0  3  2  0  0  0
  -29.4080  -21.2975   22.2657 O   0  0  0  0  0  0
  -30.6576  -15.6659   19.0683 H   0  0  0  0  0  0
  -30.3151  -14.3083   20.1699 H   0  0  0  0  0  0
  -30.4317  -13.1963   18.4013 H   0  0  0  0  0  0
  -29.3707  -13.8343   17.2297 H   0  0  0  0  0  0
  -29.0522  -12.3097   19.6217 H   0  0  0  0  0  0
  -27.7582  -12.2181   18.3175 H   0  0  0  0  0  0
  -26.9351  -14.3715   19.1406 H   0  0  0  0  0  0
  -28.8486  -14.2846   21.5123 H   0  0  0  0  0  0
  -27.4604  -15.1248   21.6958 H   0  0  0  0  0  0
  -25.3341   -9.5414   22.4497 H   0  0  0  0  0  0
  -24.0093   -7.4849   22.7684 H   0  0  0  0  0  0
  -21.1129   -8.9084   19.9121 H   0  0  0  0  0  0
  -22.4635  -10.9487   19.5855 H   0  0  0  0  0  0
  -21.2653   -7.6430   23.9714 H   0  0  0  0  0  0
  -21.1272   -6.0724   25.8948 H   0  0  0  0  0  0
  -22.0652   -2.7819   23.2650 H   0  0  0  0  0  0
  -22.5675  -12.0006   22.4222 H   0  0  0  0  0  0
  -21.1598  -13.0482   22.2070 H   0  0  0  0  0  0
  -24.2112  -15.6679   20.5412 H   0  0  0  0  0  0
  -25.8862  -15.7771   20.1566 H   0  0  0  0  0  0
  -26.8600  -32.3592   23.0164 H   0  0  0  0  0  0
  -24.8246  -33.7420   24.7192 H   0  0  0  0  0  0
  -23.2685  -30.8165   20.9150 H   0  0  0  0  0  0
  -23.3732  -35.9015   23.3303 H   0  0  0  0  0  0
  -24.3473  -36.8685   22.2224 H   0  0  0  0  0  0
  -23.7266  -37.5729   23.7207 H   0  0  0  0  0  0
  -26.3286  -29.4798   20.5965 H   0  0  0  0  0  0
  -27.1785  -29.5827   22.1687 H   0  0  0  0  0  0
  -28.0535  -28.0918   21.7018 H   0  0  0  0  0  0
  -25.2594  -25.4757   19.3253 H   0  0  0  0  0  0
  -24.2045  -26.7809   18.8430 H   0  0  0  0  0  0
  -24.5379  -29.3323   19.5452 H   0  0  0  0  0  0
  -23.1133  -28.4284   19.8045 H   0  0  0  0  0  0
  -25.1580  -36.0648   25.0684 H   0  0  0  0  0  0
  -20.8765  -28.4136   24.1640 H   0  0  0  0  0  0
  -20.5405  -26.2675   23.4531 H   0  0  0  0  0  0
  -21.6511  -26.7533   22.1787 H   0  0  0  0  0  0
  -19.7926  -25.6026   21.1458 H   0  0  0  0  0  0
  -19.6844  -27.2775   20.6722 H   0  0  0  0  0  0
  -17.4267  -26.5794   21.3462 H   0  0  0  0  0  0
  -18.0257  -25.9064   22.8238 H   0  0  0  0  0  0
  -19.8442  -30.6126   24.2047 H   0  0  0  0  0  0
  -17.6323  -31.6327   24.4922 H   0  0  0  0  0  0
  -15.5862  -30.3787   23.8310 H   0  0  0  0  0  0
  -15.7865  -28.0878   22.8206 H   0  0  0  0  0  0
  -24.6337  -30.6295   25.4475 H   0  0  0  0  0  0
  -24.6744  -32.1453   26.3345 H   0  0  0  0  0  0
  -25.5742  -30.7528   26.9015 H   0  0  0  0  0  0
  -26.3243  -29.6390   24.2966 H   0  0  0  0  0  0
  -27.3733  -29.9432   25.6510 H   0  0  0  0  0  0
  -27.9157  -30.3398   23.9904 H   0  0  0  0  0  0
  -27.4713  -33.4977   26.0821 H   0  0  0  0  0  0
  -28.4616  -32.6352   24.9356 H   0  0  0  0  0  0
  -28.1752  -31.9516   26.4886 H   0  0  0  0  0  0
  -28.2407  -37.9717   24.7352 H   0  0  0  0  0  0
  -28.1042  -36.2218   24.6408 H   0  0  0  0  0  0
  -27.2054  -37.1014   25.8773 H   0  0  0  0  0  0
  -20.9741  -29.7225   21.5197 H   0  0  0  0  0  0
  -25.9955  -38.2183   24.1077 H   0  0  0  0  0  0
  -29.7862  -22.6550   18.3104 H   0  0  0  0  0  0
  -26.5006  -20.5088   21.2539 H   0  0  0  0  0  0
  -25.8518  -21.2083   19.7534 H   0  0  0  0  0  0
  -26.6856  -22.0475   22.2099 H   0  0  0  0  0  0
  -25.2149  -22.9430   22.0463 H   0  0  0  0  0  0
  -27.6456  -25.5747   18.9352 H   0  0  0  0  0  0
  -26.8621  -25.1219   18.1550 H   0  0  0  0  0  0
  -28.8012  -21.5321   19.3965 H   0  0  0  0  0  0
  -29.2307  -28.3641   18.0860 H   0  0  0  0  0  0
  -31.0292  -28.6040   18.5157 H   0  0  0  0  0  0
  -30.0740  -28.0859   19.5349 H   0  0  0  0  0  0
  -29.4677  -23.0932   23.8944 H   0  0  0  0  0  0
  -27.5504  -22.5771   23.8738 H   0  0  0  0  0  0
  -28.4337  -24.1638   23.3012 H   0  0  0  0  0  0
  -26.9301  -23.2103   18.1285 H   0  0  0  0  0  0
  -28.6878  -24.1454   18.0910 H   0  0  0  0  0  0
  -32.8099  -26.5345   21.1110 H   0  0  0  0  0  0
  -33.1688  -24.7021   21.1293 H   0  0  0  0  0  0
  -30.0668  -24.5271   21.3225 H   0  0  0  0  0  0
  -30.7762  -25.3850   22.4583 H   0  0  0  0  0  0
  -30.0917  -22.1886   21.4880 H   0  0  0  0  0  0
  -32.6002  -23.9262   20.2208 H   0  0  0  0  0  0
  -26.2256  -24.2382   21.1943 H   0  0  0  0  0  0
  -28.6368  -20.7817   22.2120 H   0  0  0  0  0  0
  1 25  1  0  0  0
  1 30  2  0  0  0
  1 87  1  0  0  0
  2  3  1  0  0  0
  2 25  1  0  0  0
  2 91  1  0  0  0
  2 92  1  0  0  0
  3  4  1  0  0  0
  3 93  1  0  0  0
  3 94  1  0  0  0
  4  5  1  0  0  0
  4 95  1  0  0  0
  4 96  1  0  0  0
  5  6  1  0  0  0
  5 26  1  0  0  0
  5 97  1  0  0  0
  6 25  1  0  0  0
  6 98  1  0  0  0
  6 99  1  0  0  0
  7  8  2  0  0  0
  7 26  1  0  0  0
  7 29  1  0  0  0
  8  9  1  0  0  0
  8 22  1  0  0  0
  9 10  1  0  0  0
  9 27  2  0  0  0
 10 11  2  0  0  0
 10 15  1  0  0  0
 11 12  1  0  0  0
 11100  1  0  0  0
 12 13  2  0  0  0
 12101  1  0  0  0
 13 14  1  0  0  0
 13 31  1  0  0  0
 14 15  2  0  0  0
 14102  1  0  0  0
 15103  1  0  0  0
 16 17  2  0  0  0
 16 21  1  0  0  0
 16 31  1  0  0  0
 17 18  1  0  0  0
 17104  1  0  0  0
 18 19  2  0  0  0
 18105  1  0  0  0
 19 20  1  0  0  0
 19 24  1  0  0  0
 20 21  2  0  0  0
 20106  1  0  0  0
 21 23  1  0  0  0
 22 28  1  0  0  0
 22 32  2  0  0  0
 26 27  1  0  0  0
 28107  1  0  0  0
 28108  1  0  0  0
 29109  1  0  0  0
 29110  1  0  0  0
 33 34  1  0  0  0
 33 66  1  0  0  0
 33 70  2  0  0  0
 34 36  1  0  0  0
 34 59  1  0  0  0
 34111  1  0  0  0
 35 44  2  0  0  0
 35 45  1  0  0  0
 35 68  1  0  0  0
 36 56  1  0  0  0
 36112  1  0  0  0
 37 39  1  0  0  0
 37 47  1  0  0  0
 37 66  1  0  0  0
 37113  1  0  0  0
 38 43  2  0  0  0
 38 46  1  0  0  0
 38 47  1  0  0  0
 39 64  1  0  0  0
 39 67  2  0  0  0
 40 52  1  0  0  0
 40 53  2  0  0  0
 40 58  1  0  0  0
 41114  1  0  0  0
 41115  1  0  0  0
 41116  1  0  0  0
 41 48  1  0  0  0
 42 43  1  0  0  0
 42 66  1  0  0  0
 42117  1  0  0  0
 42118  1  0  0  0
 43 44  1  0  0  0
 44119  1  0  0  0
 45 46  2  0  0  0
 45120  1  0  0  0
 46121  1  0  0  0
 47122  1  0  0  0
 47123  1  0  0  0
 48 56  1  0  0  0
 48 65  1  0  0  0
 48124  1  0  0  0
 49 50  1  0  0  0
 49 53  1  0  0  0
 49 64  1  0  0  0
 49125  1  0  0  0
 50 51  1  0  0  0
 50126  1  0  0  0
 50127  1  0  0  0
 51 52  1  0  0  0
 51128  1  0  0  0
 51129  1  0  0  0
 52130  1  0  0  0
 52131  1  0  0  0
 53 54  1  0  0  0
 54 55  2  0  0  0
 54132  1  0  0  0
 55 57  1  0  0  0
 55133  1  0  0  0
 56 69  2  0  0  0
 57 58  2  0  0  0
 57134  1  0  0  0
 58135  1  0  0  0
 59 60  1  0  0  0
 59 61  1  0  0  0
 59 62  1  0  0  0
 60136  1  0  0  0
 60137  1  0  0  0
 60138  1  0  0  0
 61139  1  0  0  0
 61140  1  0  0  0
 61141  1  0  0  0
 62142  1  0  0  0
 62143  1  0  0  0
 62144  1  0  0  0
 63 65  1  0  0  0
 63145  1  0  0  0
 63146  1  0  0  0
 63147  1  0  0  0
 64148  1  0  0  0
 65149  1  0  0  0
 68 83  1  0  0  0
 71 72  2  0  0  0
 71 85  1  0  0  0
 71150  1  0  0  0
 72 73  1  0  0  0
 72 81  1  0  0  0
 73 79  1  0  0  0
 73 86  2  0  0  0
 74 85  2  0  0  0
 74 86  1  0  0  0
 74 88  1  0  0  0
 75 76  1  0  0  0
 75 87  1  0  0  0
 75151  1  0  0  0
 75152  1  0  0  0
 76 89  1  0  0  0
 76153  1  0  0  0
 76154  1  0  0  0
 77 89  1  0  0  0
 77155  1  0  0  0
 77156  1  0  0  0
 77 78  1  0  0  0
 78 84  1  0  0  0
 78 87  1  0  0  0
 78157  1  0  0  0
 79158  1  0  0  0
 79159  1  0  0  0
 79160  1  0  0  0
 80161  1  0  0  0
 80162  1  0  0  0
 80163  1  0  0  0
 80 84  1  0  0  0
 81164  1  0  0  0
 81165  1  0  0  0
 81 89  1  0  0  0
 82 83  1  0  0  0
 82 88  1  0  0  0
 82166  1  0  0  0
 82167  1  0  0  0
 83168  1  0  0  0
 83169  1  0  0  0
 84 90  1  0  0  0
 84170  1  0  0  0
 88171  1  0  0  0
 89172  1  0  0  0
 90173  1  0  0  0
M  CHG  1  89   1
M  ISO  4   1 100  68 101  83 101  87 100
M  END
> <chiral flag>
0

> <version>
0

> <s_m_source_file>
/data/baiqing/PycharmProjects/Reinvent-master-3.2/result/LINK_invent/BTK/process_docking_weight1_custom_sum_contain_oxygen_bond_distance_aromatic_linkinvent_7_9_3/rearranged_h_0197.sdf

> <i_m_source_file_index>
68

> <r_mmod_Potential_Energy-OPLS-2005>
20328.443359375

> <r_mmod_Stretch_Energy-OPLS-2005>
7804.9150390625

> <r_mmod_Bend_Energy-OPLS-2005>
5008.8291015625

> <r_mmod_Torsional_Energy-OPLS-2005>
685.475952148438

> <r_mmod_Improper_Torsional_Energy-OPLS-2005>
52.8121566772461

> <r_mmod_Van_der_Waal_Energy-OPLS-2005>
1489.59338378906

> <r_mmod_Electrostatic_Energy-OPLS-2005>
-776.703979492188

> <r_mmod_Solvation_Energy-OPLS-2005>
-508.972839355469

> <b_mmod_Minimization_Converged-OPLS-2005>
0

> <r_mmod_RMS_Derivative-OPLS-2005>
99.9990005493164

$$$$
68
                    3D
 Structure written by MMmdl.
173183  0  0  1  0            999 V2000
  -30.5638  -14.8291   20.4152 C   0  0  0  0  0  0
  -30.4429  -12.5130   19.4412 C   0  0  0  0  0  0
  -29.4960  -12.5032   18.2146 C   0  0  0  0  0  0
  -28.0353  -12.2833   18.6507 C   0  0  0  0  0  0
  -27.6484  -13.1736   19.8519 C   0  0  2  0  0  0
  -28.7081  -13.1228   20.9798 C   0  0  0  0  0  0
  -25.2391  -13.7493   20.4891 C   0  0  0  0  0  0
  -24.1776  -13.0091   20.9156 C   0  0  0  0  0  0
  -24.6423  -11.6582   20.9092 C   0  0  0  0  0  0
  -23.9102  -10.4067   21.0678 C   0  0  0  0  0  0
  -24.3644   -9.3902   21.9359 C   0  0  0  0  0  0
  -23.6226   -8.1989   22.0794 C   0  0  0  0  0  0
  -22.4253   -8.0158   21.3547 C   0  0  0  0  0  0
  -21.9954   -9.0159   20.4678 C   0  0  0  0  0  0
  -22.7336  -10.1988   20.3178 C   0  0  0  0  0  0
  -21.6787   -6.0706   22.5290 C   0  0  0  0  0  0
  -21.3942   -6.5597   23.8243 C   0  0  0  0  0  0
  -21.3658   -5.6743   24.9213 C   0  0  0  0  0  0
  -21.6057   -4.3025   24.7251 C   0  0  0  0  0  0
  -21.8810   -3.8121   23.4376 C   0  0  0  0  0  0
  -21.9140   -4.6936   22.3424 C   0  0  0  0  0  0
  -22.7871  -13.5144   21.1807 C   0  0  0  0  0  0
  -22.1641   -4.2119   21.1012 F   0  0  0  0  0  0
  -21.5663   -3.4511   25.7776 F   0  0  0  0  0  0
  -29.9675  -13.5739   20.3716 N   0  0  0  0  0  0
  -26.3058  -12.8823   20.3421 N   0  0  0  0  0  0
  -25.9442  -11.6111   20.6357 N   0  0  0  0  0  0
  -22.0461  -12.8245   22.0454 N   0  0  0  0  0  0
  -25.3665  -15.0675   20.1118 N   0  0  0  0  0  0
  -31.7712  -14.8881   20.1492 O   0  0  0  0  0  0
  -21.6557   -6.8815   21.4251 O   0  0  0  0  0  0
  -22.3704  -14.5484   20.6568 O   0  0  0  0  0  0
  -24.6379  -31.8530   23.2083 C   0  0  0  0  0  0
  -25.9175  -32.4702   23.8437 C   0  0  1  0  0  0
  -27.2408  -27.2928   20.0378 C   0  0  0  0  0  0
  -25.6049  -33.8500   24.2318 N   0  0  0  0  0  0
  -23.4359  -30.4780   21.5485 C   0  0  2  0  0  0
  -24.8909  -28.9440   20.1234 C   0  0  0  0  0  0
  -22.7527  -29.4592   22.4939 C   0  0  0  0  0  0
  -18.0291  -28.1378   22.8604 C   0  0  0  0  0  0
  -24.1515  -36.7239   23.2634 C   0  0  0  0  0  0
  -25.9942  -30.7512   21.4245 C   0  0  0  0  0  0
  -26.0685  -29.3915   20.7386 C   0  0  0  0  0  0
  -27.2431  -28.5713   20.7025 C   0  0  0  0  0  0
  -26.0348  -26.9477   19.3871 C   0  0  0  0  0  0
  -24.8844  -27.7340   19.4358 C   0  0  0  0  0  0
  -23.6638  -29.8190   20.1672 C   0  0  0  0  0  0
  -25.4157  -36.3010   24.0298 C   0  0  1  0  0  0
  -20.5964  -28.3644   23.1324 C   0  0  2  0  0  0
  -20.6734  -26.9377   22.5541 C   0  0  0  0  0  0
  -19.5698  -26.6443   21.5275 C   0  0  0  0  0  0
  -18.1738  -26.7903   22.1771 C   0  0  0  0  0  0
  -19.1633  -28.8806   23.2900 C   0  0  0  0  0  0
  -18.9694  -30.1477   23.8828 C   0  0  0  0  0  0
  -17.6762  -30.6745   24.0660 C   0  0  0  0  0  0
  -25.9123  -34.9408   23.5067 C   0  0  0  0  0  0
  -16.5585  -29.9303   23.6597 C   0  0  0  0  0  0
  -16.7339  -28.6759   23.0570 C   0  0  0  0  0  0
  -26.4542  -31.6535   25.0811 C   0  0  0  0  0  0
  -25.3694  -31.3727   26.1475 C   0  0  0  0  0  0
  -27.0417  -30.2875   24.6471 C   0  0  0  0  0  0
  -27.6066  -32.4374   25.7560 C   0  0  0  0  0  0
  -27.5590  -37.1774   24.8453 C   0  0  0  0  0  0
  -21.4240  -29.3130   22.3863 N   0  0  0  0  0  0
  -26.4321  -37.3720   23.9385 N   0  0  0  0  0  0
  -24.7014  -31.0447   22.1153 N   0  0  0  0  0  0
  -23.4270  -28.8118   23.3018 O   0  0  0  0  0  0
  -28.3398  -26.3873   19.9949 O   0  0  0  0  0  0
  -26.5610  -34.8842   22.4593 O   0  0  0  0  0  0
  -23.5453  -32.1530   23.7268 O   0  0  0  0  0  0
  -28.3863  -20.0483   21.8360 C   0  0  0  0  0  0
  -30.2109  -17.3766   19.8519 C   0  0  0  0  0  0
  -28.5694  -16.4165   21.0949 C   0  0  0  0  0  0
  -27.6886  -20.2369   19.4640 C   0  0  0  0  0  0
  -27.4756  -19.3964   20.7819 C   0  0  1  0  0  0
  -29.3437  -18.3983   20.6926 C   0  0  1  0  0  0
  -29.4984  -20.0380   20.8319 C   0  0  1  0  0  0
  -27.8176  -17.8138   20.6346 C   0  0  2  0  0  0
  -28.2721  -25.5968   17.6924 C   0  0  0  0  0  0
  -24.1290  -17.7097   21.9093 C   0  0  0  0  0  0
  -26.6479  -17.5349   21.7221 C   0  0  0  0  0  0
  -29.0961  -23.7547   19.2409 C   0  0  0  0  0  0
  -28.7361  -22.5417   20.2350 C   0  0  0  0  0  0
  -28.2035  -25.1165   19.1741 C   0  0  2  0  0  0
  -29.7974  -16.0266   20.3498 N   0  0  0  0  0  0
  -28.8492  -21.0218   19.8901 N   0  3  2  0  0  0
  -25.3209  -17.5174   21.0551 N   0  3  0  0  0  0
  -31.4795  -12.6790   19.1209 H   0  0  0  0  0  0
  -30.4412  -11.5358   19.9294 H   0  0  0  0  0  0
  -29.7898  -11.7148   17.5167 H   0  0  0  0  0  0
  -29.5873  -13.4534   17.6794 H   0  0  0  0  0  0
  -27.9215  -11.2300   18.9212 H   0  0  0  0  0  0
  -27.3503  -12.4776   17.8235 H   0  0  0  0  0  0
  -27.6477  -14.1818   19.4377 H   0  0  0  0  0  0
  -28.8289  -12.1043   21.3502 H   0  0  0  0  0  0
  -28.4415  -13.7208   21.8512 H   0  0  0  0  0  0
  -25.2748   -9.5269   22.5057 H   0  0  0  0  0  0
  -23.9873   -7.4339   22.7446 H   0  0  0  0  0  0
  -21.0935   -8.8739   19.8936 H   0  0  0  0  0  0
  -22.3896  -10.9625   19.6347 H   0  0  0  0  0  0
  -21.1906   -7.6093   23.9768 H   0  0  0  0  0  0
  -21.1523   -6.0471   25.9130 H   0  0  0  0  0  0
  -22.0590   -2.7592   23.2882 H   0  0  0  0  0  0
  -22.3985  -11.9863   22.4881 H   0  0  0  0  0  0
  -21.1085  -13.1227   22.2687 H   0  0  0  0  0  0
  -24.4806  -15.3061   19.6671 H   0  0  0  0  0  0
  -26.0706  -15.0256   19.3827 H   0  0  0  0  0  0
  -26.7253  -32.5294   23.1205 H   0  0  0  0  0  0
  -25.0191  -33.9623   25.0456 H   0  0  0  0  0  0
  -22.7249  -31.2874   21.3764 H   0  0  0  0  0  0
  -23.3796  -35.9544   23.3274 H   0  0  0  0  0  0
  -24.3619  -36.8881   22.2052 H   0  0  0  0  0  0
  -23.7261  -37.6423   23.6679 H   0  0  0  0  0  0
  -26.1926  -31.5301   20.6885 H   0  0  0  0  0  0
  -26.8479  -30.7483   22.0967 H   0  0  0  0  0  0
  -28.1429  -28.9265   21.1905 H   0  0  0  0  0  0
  -25.9240  -26.0752   18.7698 H   0  0  0  0  0  0
  -24.0045  -27.4422   18.8753 H   0  0  0  0  0  0
  -23.7830  -30.5956   19.4191 H   0  0  0  0  0  0
  -22.7975  -29.2236   19.8573 H   0  0  0  0  0  0
  -25.1349  -36.1853   25.0786 H   0  0  0  0  0  0
  -20.9867  -28.3053   24.1575 H   0  0  0  0  0  0
  -20.5201  -26.2512   23.3913 H   0  0  0  0  0  0
  -21.6698  -26.7111   22.1672 H   0  0  0  0  0  0
  -19.7143  -25.6552   21.0988 H   0  0  0  0  0  0
  -19.6491  -27.3531   20.6985 H   0  0  0  0  0  0
  -17.3860  -26.6811   21.4228 H   0  0  0  0  0  0
  -18.0119  -26.0086   22.9298 H   0  0  0  0  0  0
  -19.8315  -30.7252   24.2047 H   0  0  0  0  0  0
  -17.5523  -31.6499   24.5209 H   0  0  0  0  0  0
  -15.5617  -30.3262   23.8251 H   0  0  0  0  0  0
  -15.8637  -28.1210   22.7383 H   0  0  0  0  0  0
  -24.5912  -30.7043   25.7784 H   0  0  0  0  0  0
  -24.8871  -32.2891   26.4842 H   0  0  0  0  0  0
  -25.7966  -30.8940   27.0314 H   0  0  0  0  0  0
  -26.3075  -29.6578   24.1435 H   0  0  0  0  0  0
  -27.3898  -29.7162   25.5124 H   0  0  0  0  0  0
  -27.9077  -30.4011   23.9957 H   0  0  0  0  0  0
  -27.2634  -33.3727   26.2039 H   0  0  0  0  0  0
  -28.3918  -32.6901   25.0392 H   0  0  0  0  0  0
  -28.0760  -31.8629   26.5572 H   0  0  0  0  0  0
  -28.2575  -38.0101   24.7533 H   0  0  0  0  0  0
  -28.1109  -36.2625   24.6265 H   0  0  0  0  0  0
  -27.2283  -37.1408   25.8843 H   0  0  0  0  0  0
  -20.9218  -29.9362   21.7727 H   0  0  0  0  0  0
  -26.0185  -38.2782   24.1360 H   0  0  0  0  0  0
  -28.5439  -19.4367   22.7203 H   0  0  0  0  0  0
  -28.0493  -21.0385   22.1983 H   0  0  0  0  0  0
  -31.2840  -17.5753   19.8934 H   0  0  0  0  0  0
  -29.9359  -17.4203   18.7962 H   0  0  0  0  0  0
  -27.8786  -15.6144   20.9040 H   0  0  0  0  0  0
  -28.8071  -16.3551   22.1625 H   0  0  0  0  0  0
  -26.8269  -20.8294   19.1621 H   0  0  0  0  0  0
  -27.9459  -19.5825   18.6252 H   0  0  0  0  0  0
  -26.4404  -19.6711   21.0099 H   0  0  0  0  0  0
  -29.8169  -18.1815   21.6621 H   0  0  0  0  0  0
  -30.4515  -20.3954   21.2227 H   0  0  0  0  0  0
  -27.6499  -24.9548   17.0686 H   0  0  0  0  0  0
  -29.2913  -25.5481   17.3116 H   0  0  0  0  0  0
  -27.9411  -26.6245   17.5224 H   0  0  0  0  0  0
  -23.2439  -17.8750   21.2876 H   0  0  0  0  0  0
  -24.2921  -18.5918   22.5326 H   0  0  0  0  0  0
  -23.9309  -16.8415   22.5330 H   0  0  0  0  0  0
  -26.5989  -18.2282   22.5674 H   0  0  0  0  0  0
  -26.6578  -16.5818   22.2424 H   0  0  0  0  0  0
  -29.0651  -23.3223   18.2428 H   0  0  0  0  0  0
  -30.1452  -24.0311   19.3393 H   0  0  0  0  0  0
  -29.3781  -22.6918   21.1067 H   0  0  0  0  0  0
  -27.7113  -22.7171   20.5617 H   0  0  0  0  0  0
  -27.2246  -24.6957   19.3757 H   0  0  0  0  0  0
  -28.2708  -21.1160   20.7102 H   0  0  0  0  0  0
  -25.2961  -18.1861   20.3089 H   0  0  0  0  0  0
  -25.2756  -16.5749   20.6450 H   0  0  0  0  0  0
  1 25  1  0  0  0
  1 30  2  0  0  0
  1 85  1  0  0  0
  2  3  1  0  0  0
  2 25  1  0  0  0
  2 88  1  0  0  0
  2 89  1  0  0  0
  3  4  1  0  0  0
  3 90  1  0  0  0
  3 91  1  0  0  0
  4  5  1  0  0  0
  4 92  1  0  0  0
  4 93  1  0  0  0
  5  6  1  0  0  0
  5 26  1  0  0  0
  5 94  1  0  0  0
  6 25  1  0  0  0
  6 95  1  0  0  0
  6 96  1  0  0  0
  7  8  2  0  0  0
  7 26  1  0  0  0
  7 29  1  0  0  0
  8  9  1  0  0  0
  8 22  1  0  0  0
  9 10  1  0  0  0
  9 27  2  0  0  0
 10 11  2  0  0  0
 10 15  1  0  0  0
 11 12  1  0  0  0
 11 97  1  0  0  0
 12 13  2  0  0  0
 12 98  1  0  0  0
 13 14  1  0  0  0
 13 31  1  0  0  0
 14 15  2  0  0  0
 14 99  1  0  0  0
 15100  1  0  0  0
 16 17  2  0  0  0
 16 21  1  0  0  0
 16 31  1  0  0  0
 17 18  1  0  0  0
 17101  1  0  0  0
 18 19  2  0  0  0
 18102  1  0  0  0
 19 20  1  0  0  0
 19 24  1  0  0  0
 20 21  2  0  0  0
 20103  1  0  0  0
 21 23  1  0  0  0
 22 28  1  0  0  0
 22 32  2  0  0  0
 26 27  1  0  0  0
 28104  1  0  0  0
 28105  1  0  0  0
 29106  1  0  0  0
 29107  1  0  0  0
 33 34  1  0  0  0
 33 66  1  0  0  0
 33 70  2  0  0  0
 34 36  1  0  0  0
 34 59  1  0  0  0
 34108  1  0  0  0
 35 44  2  0  0  0
 35 45  1  0  0  0
 35 68  1  0  0  0
 36 56  1  0  0  0
 36109  1  0  0  0
 37 39  1  0  0  0
 37 47  1  0  0  0
 37 66  1  0  0  0
 37110  1  0  0  0
 38 43  2  0  0  0
 38 46  1  0  0  0
 38 47  1  0  0  0
 39 64  1  0  0  0
 39 67  2  0  0  0
 40 52  1  0  0  0
 40 53  2  0  0  0
 40 58  1  0  0  0
 41111  1  0  0  0
 41112  1  0  0  0
 41113  1  0  0  0
 41 48  1  0  0  0
 42 43  1  0  0  0
 42 66  1  0  0  0
 42114  1  0  0  0
 42115  1  0  0  0
 43 44  1  0  0  0
 44116  1  0  0  0
 45 46  2  0  0  0
 45117  1  0  0  0
 46118  1  0  0  0
 47119  1  0  0  0
 47120  1  0  0  0
 48 56  1  0  0  0
 48 65  1  0  0  0
 48121  1  0  0  0
 49 50  1  0  0  0
 49 53  1  0  0  0
 49 64  1  0  0  0
 49122  1  0  0  0
 50 51  1  0  0  0
 50123  1  0  0  0
 50124  1  0  0  0
 51 52  1  0  0  0
 51125  1  0  0  0
 51126  1  0  0  0
 52127  1  0  0  0
 52128  1  0  0  0
 53 54  1  0  0  0
 54 55  2  0  0  0
 54129  1  0  0  0
 55 57  1  0  0  0
 55130  1  0  0  0
 56 69  2  0  0  0
 57 58  2  0  0  0
 57131  1  0  0  0
 58132  1  0  0  0
 59 60  1  0  0  0
 59 61  1  0  0  0
 59 62  1  0  0  0
 60133  1  0  0  0
 60134  1  0  0  0
 60135  1  0  0  0
 61136  1  0  0  0
 61137  1  0  0  0
 61138  1  0  0  0
 62139  1  0  0  0
 62140  1  0  0  0
 62141  1  0  0  0
 63 65  1  0  0  0
 63142  1  0  0  0
 63143  1  0  0  0
 63144  1  0  0  0
 64145  1  0  0  0
 65146  1  0  0  0
 68 84  1  0  0  0
 71 75  1  0  0  0
 71147  1  0  0  0
 71148  1  0  0  0
 71 77  1  0  0  0
 72 85  1  0  0  0
 72149  1  0  0  0
 72150  1  0  0  0
 72 76  1  0  0  0
 73 78  1  0  0  0
 73 85  1  0  0  0
 73151  1  0  0  0
 73152  1  0  0  0
 74 86  1  0  0  0
 74153  1  0  0  0
 74154  1  0  0  0
 74 75  1  0  0  0
 75 78  1  0  0  0
 75155  1  0  0  0
 76 77  1  0  0  0
 76 78  1  0  0  0
 76156  1  0  0  0
 77 86  1  0  0  0
 77157  1  0  0  0
 78 81  1  0  0  0
 79158  1  0  0  0
 79159  1  0  0  0
 79160  1  0  0  0
 79 84  1  0  0  0
 80 87  1  0  0  0
 80161  1  0  0  0
 80162  1  0  0  0
 80163  1  0  0  0
 81 87  1  0  0  0
 81164  1  0  0  0
 81165  1  0  0  0
 82 83  1  0  0  0
 82 84  1  0  0  0
 82166  1  0  0  0
 82167  1  0  0  0
 83168  1  0  0  0
 83169  1  0  0  0
 83 86  1  0  0  0
 84170  1  0  0  0
 86171  1  0  0  0
 87172  1  0  0  0
 87173  1  0  0  0
M  CHG  2  86   1  87   1
M  ISO  4   1 100  68 101  84 101  85 100
M  END
> <chiral flag>
0

> <version>
0

> <s_m_source_file>
/data/baiqing/PycharmProjects/Reinvent-master-3.2/result/LINK_invent/BTK/process_docking_weight1_custom_sum_contain_oxygen_bond_distance_aromatic_linkinvent_7_9_3/rearranged_h_0197.sdf

> <i_m_source_file_index>
69

> <r_mmod_Potential_Energy-OPLS-2005>
1224.4296875

> <r_mmod_Stretch_Energy-OPLS-2005>
197.369979858398

> <r_mmod_Bend_Energy-OPLS-2005>
1016.80444335938

> <r_mmod_Torsional_Energy-OPLS-2005>
481.010589599609

> <r_mmod_Improper_Torsional_Energy-OPLS-2005>
20.3930416107178

> <r_mmod_Van_der_Waal_Energy-OPLS-2005>
234.604568481445

> <r_mmod_Electrostatic_Energy-OPLS-2005>
98.0786514282227

> <r_mmod_Solvation_Energy-OPLS-2005>
-939.749389648438

> <b_mmod_Minimization_Converged-OPLS-2005>
0

> <r_mmod_RMS_Derivative-OPLS-2005>
18.8953075408936

$$$$
69
                    3D
 Structure written by MMmdl.
166176  0  0  1  0            999 V2000
  -30.7330  -14.4447   20.6111 C   0  0  0  0  0  0
  -30.4140  -12.3090   19.4187 C   0  0  0  0  0  0
  -29.4870  -12.5175   18.2062 C   0  0  0  0  0  0
  -28.0116  -12.3609   18.6204 C   0  0  0  0  0  0
  -27.6581  -13.2003   19.8758 C   0  0  2  0  0  0
  -28.7006  -12.9917   20.9986 C   0  0  0  0  0  0
  -25.2599  -13.8156   20.5690 C   0  0  0  0  0  0
  -24.1839  -13.0434   20.9172 C   0  0  0  0  0  0
  -24.6388  -11.6910   20.8721 C   0  0  0  0  0  0
  -23.9053  -10.4293   21.0394 C   0  0  0  0  0  0
  -24.3601   -9.4218   21.9182 C   0  0  0  0  0  0
  -23.6288   -8.2244   22.0746 C   0  0  0  0  0  0
  -22.4275   -8.0269   21.3534 C   0  0  0  0  0  0
  -21.9901   -9.0243   20.4636 C   0  0  0  0  0  0
  -22.7221  -10.2132   20.3056 C   0  0  0  0  0  0
  -21.6864   -6.0729   22.5276 C   0  0  0  0  0  0
  -21.4004   -6.5635   23.8202 C   0  0  0  0  0  0
  -21.3664   -5.6796   24.9160 C   0  0  0  0  0  0
  -21.6059   -4.3058   24.7222 C   0  0  0  0  0  0
  -21.8821   -3.8145   23.4343 C   0  0  0  0  0  0
  -21.9191   -4.6960   22.3398 C   0  0  0  0  0  0
  -22.7868  -13.5235   21.1832 C   0  0  0  0  0  0
  -22.1667   -4.2155   21.0981 F   0  0  0  0  0  0
  -21.5631   -3.4545   25.7736 F   0  0  0  0  0  0
  -30.0354  -13.2859   20.4514 N   0  0  0  0  0  0
  -26.3012  -12.9296   20.3382 N   0  0  0  0  0  0
  -25.9315  -11.6459   20.5784 N   0  0  0  0  0  0
  -22.0516  -12.8213   22.0384 N   0  0  0  0  0  0
  -25.4335  -15.1874   20.4097 N   0  0  0  0  0  0
  -31.8251  -14.6413   20.0668 O   0  0  0  0  0  0
  -21.6642   -6.8872   21.4240 O   0  0  0  0  0  0
  -22.3569  -14.5556   20.6704 O   0  0  0  0  0  0
  -24.6116  -31.8689   23.2103 C   0  0  0  0  0  0
  -25.9009  -32.4831   23.8401 C   0  0  1  0  0  0
  -27.2420  -27.4568   20.0699 C   0  0  0  0  0  0
  -25.5857  -33.8631   24.2331 N   0  0  0  0  0  0
  -23.4000  -30.4921   21.5506 C   0  0  2  0  0  0
  -24.8493  -28.9586   20.1144 C   0  0  0  0  0  0
  -22.7395  -29.4663   22.4994 C   0  0  0  0  0  0
  -18.0276  -28.1379   22.8495 C   0  0  0  0  0  0
  -24.1476  -36.7330   23.2632 C   0  0  0  0  0  0
  -25.9266  -30.8360   21.3656 C   0  0  0  0  0  0
  -26.0072  -29.4700   20.7145 C   0  0  0  0  0  0
  -27.2029  -28.7180   20.7046 C   0  0  0  0  0  0
  -26.0641  -26.9479   19.4826 C   0  0  0  0  0  0
  -24.8702  -27.6922   19.5041 C   0  0  0  0  0  0
  -23.6089  -29.8219   20.1655 C   0  0  0  0  0  0
  -25.4102  -36.3140   24.0335 C   0  0  1  0  0  0
  -20.5861  -28.3668   23.1333 C   0  0  2  0  0  0
  -20.6754  -26.9408   22.5438 C   0  0  0  0  0  0
  -19.5733  -26.6389   21.5229 C   0  0  0  0  0  0
  -18.1912  -26.7926   22.1624 C   0  0  0  0  0  0
  -19.1521  -28.8847   23.2908 C   0  0  0  0  0  0
  -18.9446  -30.1445   23.8947 C   0  0  0  0  0  0
  -17.6447  -30.6590   24.0598 C   0  0  0  0  0  0
  -25.9025  -34.9492   23.5146 C   0  0  0  0  0  0
  -16.5340  -29.9103   23.6330 C   0  0  0  0  0  0
  -16.7262  -28.6506   23.0364 C   0  0  0  0  0  0
  -26.4439  -31.6602   25.0716 C   0  0  0  0  0  0
  -25.3707  -31.3703   26.1457 C   0  0  0  0  0  0
  -27.0233  -30.3040   24.6077 C   0  0  0  0  0  0
  -27.6042  -32.4280   25.7476 C   0  0  0  0  0  0
  -27.5593  -37.1810   24.8455 C   0  0  0  0  0  0
  -21.4119  -29.3041   22.3741 N   0  0  0  0  0  0
  -26.4304  -37.3813   23.9414 N   0  0  0  0  0  0
  -24.6645  -31.0795   22.1012 N   0  0  0  0  0  0
  -23.4172  -28.8220   23.3041 O   0  0  0  0  0  0
  -28.4010  -26.7161   20.0750 O   0  0  0  0  0  0
  -26.5622  -34.8939   22.4727 O   0  0  0  0  0  0
  -23.5315  -32.1425   23.7514 O   0  0  0  0  0  0
  -29.8007  -20.7773   20.0446 C   0  0  0  0  0  0
  -29.0579  -21.4821   19.0834 C   0  0  0  0  0  0
  -29.3113  -19.5224   20.4236 C   0  0  0  0  0  0
  -27.4907  -19.8154   19.0791 C   0  0  0  0  0  0
  -24.9005  -19.9616   18.6402 C   0  0  0  0  0  0
  -25.1498  -18.7010   19.4249 C   0  0  0  0  0  0
  -30.9438  -16.5362   21.9498 C   0  0  0  0  0  0
  -29.1664  -16.3530   20.9263 C   0  0  0  0  0  0
  -26.2287  -19.2430   18.5092 C   0  0  0  0  0  0
  -30.2779  -17.4000   20.8809 C   0  0  0  0  0  0
  -29.5409  -22.7857   18.4621 C   0  0  0  0  0  0
  -28.6790  -25.1185   18.1645 C   0  0  0  0  0  0
  -29.0215  -26.4809   18.8079 C   0  0  0  0  0  0
  -27.8771  -21.0088   18.6364 N   0  0  0  0  0  0
  -28.1618  -19.0419   19.9245 N   0  0  0  0  0  0
  -30.1802  -15.3917   21.4069 N   0  0  0  0  0  0
  -28.8688  -23.9517   19.0701 N   0  3  0  0  0  0
  -29.9878  -18.7293   21.3218 O   0  0  0  0  0  0
  -31.4573  -12.4040   19.1167 H   0  0  0  0  0  0
  -30.3109  -11.2962   19.8096 H   0  0  0  0  0  0
  -29.7292  -11.8089   17.4131 H   0  0  0  0  0  0
  -29.6478  -13.5112   17.7844 H   0  0  0  0  0  0
  -27.8322  -11.3037   18.8188 H   0  0  0  0  0  0
  -27.3565  -12.6292   17.7895 H   0  0  0  0  0  0
  -27.6924  -14.2424   19.5661 H   0  0  0  0  0  0
  -28.6751  -11.9602   21.3521 H   0  0  0  0  0  0
  -28.4594  -13.6054   21.8672 H   0  0  0  0  0  0
  -25.2745   -9.5707   22.4756 H   0  0  0  0  0  0
  -24.0009   -7.4643   22.7472 H   0  0  0  0  0  0
  -21.0831   -8.8740   19.8951 H   0  0  0  0  0  0
  -22.3659  -10.9656   19.6164 H   0  0  0  0  0  0
  -21.1986   -7.6139   23.9703 H   0  0  0  0  0  0
  -21.1494   -6.0522   25.9066 H   0  0  0  0  0  0
  -22.0600   -2.7607   23.2845 H   0  0  0  0  0  0
  -22.4123  -11.9859   22.4749 H   0  0  0  0  0  0
  -21.1141  -13.1240   22.2604 H   0  0  0  0  0  0
  -24.6674  -15.8417   20.5202 H   0  0  0  0  0  0
  -26.2874  -15.6290   20.0952 H   0  0  0  0  0  0
  -26.7094  -32.5563   23.1185 H   0  0  0  0  0  0
  -24.9947  -33.9801   25.0433 H   0  0  0  0  0  0
  -22.6883  -31.3085   21.4099 H   0  0  0  0  0  0
  -23.3766  -35.9631   23.3269 H   0  0  0  0  0  0
  -24.3583  -36.8976   22.2059 H   0  0  0  0  0  0
  -23.7191  -37.6500   23.6663 H   0  0  0  0  0  0
  -26.0326  -31.6004   20.5953 H   0  0  0  0  0  0
  -26.8165  -30.8965   21.9794 H   0  0  0  0  0  0
  -28.0953  -29.1055   21.1752 H   0  0  0  0  0  0
  -26.0535  -25.9719   19.0223 H   0  0  0  0  0  0
  -23.9780  -27.2863   19.0501 H   0  0  0  0  0  0
  -23.7108  -30.5947   19.4032 H   0  0  0  0  0  0
  -22.7340  -29.2373   19.8744 H   0  0  0  0  0  0
  -25.1279  -36.2027   25.0833 H   0  0  0  0  0  0
  -20.9940  -28.3248   24.1448 H   0  0  0  0  0  0
  -20.5654  -26.2296   23.3632 H   0  0  0  0  0  0
  -21.6635  -26.7445   22.1247 H   0  0  0  0  0  0
  -19.6903  -25.6302   21.1247 H   0  0  0  0  0  0
  -19.6688  -27.3240   20.6796 H   0  0  0  0  0  0
  -17.4187  -26.6721   21.4014 H   0  0  0  0  0  0
  -18.0292  -26.0053   22.9006 H   0  0  0  0  0  0
  -19.7922  -30.7250   24.2350 H   0  0  0  0  0  0
  -17.5004  -31.6279   24.5177 H   0  0  0  0  0  0
  -15.5348  -30.3043   23.7590 H   0  0  0  0  0  0
  -15.8648  -28.0841   22.7070 H   0  0  0  0  0  0
  -24.5907  -30.7014   25.7785 H   0  0  0  0  0  0
  -24.8873  -32.2853   26.4896 H   0  0  0  0  0  0
  -25.8057  -30.8874   27.0223 H   0  0  0  0  0  0
  -26.2760  -29.6847   24.1092 H   0  0  0  0  0  0
  -27.3936  -29.7226   25.4530 H   0  0  0  0  0  0
  -27.8643  -30.4320   23.9257 H   0  0  0  0  0  0
  -27.2696  -33.3573   26.2105 H   0  0  0  0  0  0
  -28.3855  -32.6834   25.0300 H   0  0  0  0  0  0
  -28.0707  -31.8352   26.5356 H   0  0  0  0  0  0
  -28.2593  -38.0122   24.7557 H   0  0  0  0  0  0
  -28.1104  -36.2672   24.6209 H   0  0  0  0  0  0
  -27.2319  -37.1390   25.8851 H   0  0  0  0  0  0
  -20.9265  -29.8779   21.6990 H   0  0  0  0  0  0
  -26.0202  -38.2881   24.1450 H   0  0  0  0  0  0
  -30.7399  -21.1514   20.4301 H   0  0  0  0  0  0
  -24.8883  -20.9023   19.1856 H   0  0  0  0  0  0
  -24.2173  -19.9046   17.7952 H   0  0  0  0  0  0
  -24.6451  -17.7905   19.1094 H   0  0  0  0  0  0
  -25.3112  -18.7966   20.4971 H   0  0  0  0  0  0
  -30.6610  -16.8019   22.9703 H   0  0  0  0  0  0
  -32.0295  -16.4845   21.8516 H   0  0  0  0  0  0
  -28.7495  -16.1556   19.9391 H   0  0  0  0  0  0
  -28.3803  -16.5700   21.6526 H   0  0  0  0  0  0
  -26.4275  -18.7074   17.5837 H   0  0  0  0  0  0
  -30.8247  -17.3898   19.9348 H   0  0  0  0  0  0
  -29.3299  -22.7317   17.3926 H   0  0  0  0  0  0
  -30.6231  -22.8811   18.5563 H   0  0  0  0  0  0
  -29.3149  -25.0154   17.2834 H   0  0  0  0  0  0
  -27.6594  -25.1084   17.7831 H   0  0  0  0  0  0
  -28.7855  -27.2884   18.1117 H   0  0  0  0  0  0
  -30.0997  -26.5415   18.9578 H   0  0  0  0  0  0
  -29.3801  -24.2127   19.8978 H   0  0  0  0  0  0
  -27.9680  -23.6097   19.3660 H   0  0  0  0  0  0
  1 25  1  0  0  0
  1 30  2  0  0  0
  1 86  1  0  0  0
  2  3  1  0  0  0
  2 25  1  0  0  0
  2 89  1  0  0  0
  2 90  1  0  0  0
  3  4  1  0  0  0
  3 91  1  0  0  0
  3 92  1  0  0  0
  4  5  1  0  0  0
  4 93  1  0  0  0
  4 94  1  0  0  0
  5  6  1  0  0  0
  5 26  1  0  0  0
  5 95  1  0  0  0
  6 25  1  0  0  0
  6 96  1  0  0  0
  6 97  1  0  0  0
  7  8  2  0  0  0
  7 26  1  0  0  0
  7 29  1  0  0  0
  8  9  1  0  0  0
  8 22  1  0  0  0
  9 10  1  0  0  0
  9 27  2  0  0  0
 10 11  2  0  0  0
 10 15  1  0  0  0
 11 12  1  0  0  0
 11 98  1  0  0  0
 12 13  2  0  0  0
 12 99  1  0  0  0
 13 14  1  0  0  0
 13 31  1  0  0  0
 14 15  2  0  0  0
 14100  1  0  0  0
 15101  1  0  0  0
 16 17  2  0  0  0
 16 21  1  0  0  0
 16 31  1  0  0  0
 17 18  1  0  0  0
 17102  1  0  0  0
 18 19  2  0  0  0
 18103  1  0  0  0
 19 20  1  0  0  0
 19 24  1  0  0  0
 20 21  2  0  0  0
 20104  1  0  0  0
 21 23  1  0  0  0
 22 28  1  0  0  0
 22 32  2  0  0  0
 26 27  1  0  0  0
 28105  1  0  0  0
 28106  1  0  0  0
 29107  1  0  0  0
 29108  1  0  0  0
 33 34  1  0  0  0
 33 66  1  0  0  0
 33 70  2  0  0  0
 34 36  1  0  0  0
 34 59  1  0  0  0
 34109  1  0  0  0
 35 44  2  0  0  0
 35 45  1  0  0  0
 35 68  1  0  0  0
 36 56  1  0  0  0
 36110  1  0  0  0
 37 39  1  0  0  0
 37 47  1  0  0  0
 37 66  1  0  0  0
 37111  1  0  0  0
 38 43  2  0  0  0
 38 46  1  0  0  0
 38 47  1  0  0  0
 39 64  1  0  0  0
 39 67  2  0  0  0
 40 52  1  0  0  0
 40 53  2  0  0  0
 40 58  1  0  0  0
 41112  1  0  0  0
 41113  1  0  0  0
 41114  1  0  0  0
 41 48  1  0  0  0
 42 43  1  0  0  0
 42 66  1  0  0  0
 42115  1  0  0  0
 42116  1  0  0  0
 43 44  1  0  0  0
 44117  1  0  0  0
 45 46  2  0  0  0
 45118  1  0  0  0
 46119  1  0  0  0
 47120  1  0  0  0
 47121  1  0  0  0
 48 56  1  0  0  0
 48 65  1  0  0  0
 48122  1  0  0  0
 49 50  1  0  0  0
 49 53  1  0  0  0
 49 64  1  0  0  0
 49123  1  0  0  0
 50 51  1  0  0  0
 50124  1  0  0  0
 50125  1  0  0  0
 51 52  1  0  0  0
 51126  1  0  0  0
 51127  1  0  0  0
 52128  1  0  0  0
 52129  1  0  0  0
 53 54  1  0  0  0
 54 55  2  0  0  0
 54130  1  0  0  0
 55 57  1  0  0  0
 55131  1  0  0  0
 56 69  2  0  0  0
 57 58  2  0  0  0
 57132  1  0  0  0
 58133  1  0  0  0
 59 60  1  0  0  0
 59 61  1  0  0  0
 59 62  1  0  0  0
 60134  1  0  0  0
 60135  1  0  0  0
 60136  1  0  0  0
 61137  1  0  0  0
 61138  1  0  0  0
 61139  1  0  0  0
 62140  1  0  0  0
 62141  1  0  0  0
 62142  1  0  0  0
 63 65  1  0  0  0
 63143  1  0  0  0
 63144  1  0  0  0
 63145  1  0  0  0
 64146  1  0  0  0
 65147  1  0  0  0
 68 83  1  0  0  0
 71 72  2  0  0  0
 71 73  1  0  0  0
 71148  1  0  0  0
 72 81  1  0  0  0
 72 84  1  0  0  0
 73 85  2  0  0  0
 73 88  1  0  0  0
 74 84  2  0  0  0
 74 85  1  0  0  0
 74 79  1  0  0  0
 75 76  1  0  0  0
 75 79  1  0  0  0
 75149  1  0  0  0
 75150  1  0  0  0
 76 79  1  0  0  0
 76151  1  0  0  0
 76152  1  0  0  0
 77 80  1  0  0  0
 77 86  1  0  0  0
 77153  1  0  0  0
 77154  1  0  0  0
 78 80  1  0  0  0
 78 86  1  0  0  0
 78155  1  0  0  0
 78156  1  0  0  0
 79157  1  0  0  0
 80 88  1  0  0  0
 80158  1  0  0  0
 81 87  1  0  0  0
 81159  1  0  0  0
 81160  1  0  0  0
 82 83  1  0  0  0
 82 87  1  0  0  0
 82161  1  0  0  0
 82162  1  0  0  0
 83163  1  0  0  0
 83164  1  0  0  0
 87165  1  0  0  0
 87166  1  0  0  0
M  CHG  1  87   1
M  ISO  4   1 100  68 101  83 101  86 100
M  END
> <chiral flag>
0

> <version>
0

> <s_m_source_file>
/data/baiqing/PycharmProjects/Reinvent-master-3.2/result/LINK_invent/BTK/process_docking_weight1_custom_sum_contain_oxygen_bond_distance_aromatic_linkinvent_7_9_3/rearranged_h_0197.sdf

> <i_m_source_file_index>
70

> <r_mmod_Potential_Energy-OPLS-2005>
-700.598083496094

> <r_mmod_Stretch_Energy-OPLS-2005>
34.8696594238281

> <r_mmod_Bend_Energy-OPLS-2005>
112.467926025391

> <r_mmod_Torsional_Energy-OPLS-2005>
307.181884765625

> <r_mmod_Improper_Torsional_Energy-OPLS-2005>
9.23329925537109

> <r_mmod_Van_der_Waal_Energy-OPLS-2005>
157.592803955078

> <r_mmod_Electrostatic_Energy-OPLS-2005>
-875.605529785156

> <r_mmod_Solvation_Energy-OPLS-2005>
-456.124481201172

> <b_mmod_Minimization_Converged-OPLS-2005>
0

> <r_mmod_RMS_Derivative-OPLS-2005>
2.39208674430847

$$$$
70
                    3D
 Structure written by MMmdl.
160169  0  0  1  0            999 V2000
  -30.6045  -14.6971   20.5238 C   0  0  0  0  0  0
  -30.4463  -12.4364   19.4570 C   0  0  0  0  0  0
  -29.5047  -12.5013   18.2309 C   0  0  0  0  0  0
  -28.0324  -12.3222   18.6532 C   0  0  0  0  0  0
  -27.6475  -13.2155   19.8617 C   0  0  2  0  0  0
  -28.6969  -13.0980   20.9902 C   0  0  0  0  0  0
  -25.2532  -13.8161   20.5693 C   0  0  0  0  0  0
  -24.1811  -13.0424   20.9221 C   0  0  0  0  0  0
  -24.6399  -11.6895   20.8786 C   0  0  0  0  0  0
  -23.9078  -10.4269   21.0425 C   0  0  0  0  0  0
  -24.3625   -9.4174   21.9194 C   0  0  0  0  0  0
  -23.6294   -8.2208   22.0752 C   0  0  0  0  0  0
  -22.4277   -8.0266   21.3533 C   0  0  0  0  0  0
  -21.9931   -9.0234   20.4629 C   0  0  0  0  0  0
  -22.7264  -10.2115   20.3045 C   0  0  0  0  0  0
  -21.6848   -6.0726   22.5269 C   0  0  0  0  0  0
  -21.3996   -6.5627   23.8195 C   0  0  0  0  0  0
  -21.3661   -5.6787   24.9162 C   0  0  0  0  0  0
  -21.6048   -4.3052   24.7225 C   0  0  0  0  0  0
  -21.8817   -3.8143   23.4350 C   0  0  0  0  0  0
  -21.9183   -4.6954   22.3401 C   0  0  0  0  0  0
  -22.7825  -13.5204   21.1889 C   0  0  0  0  0  0
  -22.1653   -4.2145   21.0981 F   0  0  0  0  0  0
  -21.5651   -3.4541   25.7742 F   0  0  0  0  0  0
  -29.9993  -13.4672   20.4173 N   0  0  0  0  0  0
  -26.2974  -12.9339   20.3335 N   0  0  0  0  0  0
  -25.9319  -11.6508   20.5808 N   0  0  0  0  0  0
  -22.0492  -12.8136   22.0424 N   0  0  0  0  0  0
  -25.4223  -15.1874   20.3995 N   0  0  0  0  0  0
  -31.7830  -14.8574   20.1938 O   0  0  0  0  0  0
  -21.6633   -6.8874   21.4237 O   0  0  0  0  0  0
  -22.3471  -14.5515   20.6759 O   0  0  0  0  0  0
  -24.6322  -31.8570   23.1969 C   0  0  0  0  0  0
  -25.9151  -32.4753   23.8310 C   0  0  1  0  0  0
  -27.2011  -27.2653   20.1243 C   0  0  0  0  0  0
  -25.5952  -33.8546   24.2242 N   0  0  0  0  0  0
  -23.4235  -30.4869   21.5412 C   0  0  2  0  0  0
  -24.8659  -28.9393   20.1096 C   0  0  0  0  0  0
  -22.7504  -29.4614   22.4874 C   0  0  0  0  0  0
  -18.0274  -28.1403   22.8467 C   0  0  0  0  0  0
  -24.1492  -36.7268   23.2635 C   0  0  0  0  0  0
  -25.9727  -30.7736   21.3733 C   0  0  0  0  0  0
  -26.0417  -29.3978   20.7172 C   0  0  0  0  0  0
  -27.2141  -28.5748   20.7113 C   0  0  0  0  0  0
  -25.9979  -26.8802   19.4862 C   0  0  0  0  0  0
  -24.8499  -27.6896   19.4836 C   0  0  0  0  0  0
  -23.6385  -29.8265   20.1556 C   0  0  0  0  0  0
  -25.4100  -36.3047   24.0330 C   0  0  1  0  0  0
  -20.5888  -28.3706   23.1255 C   0  0  2  0  0  0
  -20.6763  -26.9420   22.5383 C   0  0  0  0  0  0
  -19.5735  -26.6389   21.5195 C   0  0  0  0  0  0
  -18.1906  -26.7932   22.1598 C   0  0  0  0  0  0
  -19.1539  -28.8862   23.2849 C   0  0  0  0  0  0
  -18.9473  -30.1464   23.8881 C   0  0  0  0  0  0
  -17.6479  -30.6597   24.0584 C   0  0  0  0  0  0
  -25.9060  -34.9431   23.5078 C   0  0  0  0  0  0
  -16.5362  -29.9097   23.6359 C   0  0  0  0  0  0
  -16.7266  -28.6514   23.0351 C   0  0  0  0  0  0
  -26.4520  -31.6579   25.0708 C   0  0  0  0  0  0
  -25.3720  -31.3728   26.1402 C   0  0  0  0  0  0
  -27.0390  -30.3003   24.6164 C   0  0  0  0  0  0
  -27.6022  -32.4363   25.7502 C   0  0  0  0  0  0
  -27.5570  -37.1774   24.8455 C   0  0  0  0  0  0
  -21.4194  -29.3075   22.3656 N   0  0  0  0  0  0
  -26.4262  -37.3762   23.9437 N   0  0  0  0  0  0
  -24.6956  -31.0553   22.0941 N   0  0  0  0  0  0
  -23.4213  -28.8114   23.2928 O   0  0  0  0  0  0
  -28.2868  -26.3594   20.1724 O   0  0  0  0  0  0
  -26.5627  -34.8916   22.4643 O   0  0  0  0  0  0
  -23.5464  -32.1396   23.7268 O   0  0  0  0  0  0
  -31.0297  -23.0505   21.5819 C   0  0  0  0  0  0
  -30.4349  -20.4692   21.6069 C   0  0  0  0  0  0
  -28.7258  -20.9332   20.0797 C   0  0  0  0  0  0
  -29.9913  -21.9495   21.8579 C   0  0  2  0  0  0
  -28.8102  -22.2804   20.9244 C   0  0  1  0  0  0
  -29.1146  -23.7601   20.3339 C   0  0  1  0  0  0
  -27.9672  -24.8912   20.2924 C   0  0  0  0  0  0
  -30.0339  -17.2103   21.2390 C   0  0  0  0  0  0
  -29.5224  -18.4161   20.2959 C   0  0  0  0  0  0
  -29.7856  -15.7566   20.8515 N   0  0  0  0  0  0
  -30.2532  -24.2317   21.1534 N   0  3  0  0  0  0
  -29.3002  -19.8076   20.9222 N   0  3  1  0  0  0
  -31.4820  -12.5881   19.1470 H   0  0  0  0  0  0
  -30.4170  -11.4495   19.9204 H   0  0  0  0  0  0
  -29.7792  -11.7327   17.5076 H   0  0  0  0  0  0
  -29.6242  -13.4597   17.7243 H   0  0  0  0  0  0
  -27.8940  -11.2720   18.9155 H   0  0  0  0  0  0
  -27.3672  -12.5141   17.8105 H   0  0  0  0  0  0
  -27.6553  -14.2438   19.4982 H   0  0  0  0  0  0
  -28.7315  -12.0773   21.3746 H   0  0  0  0  0  0
  -28.4359  -13.7291   21.8418 H   0  0  0  0  0  0
  -25.2770   -9.5645   22.4767 H   0  0  0  0  0  0
  -24.0005   -7.4592   22.7446 H   0  0  0  0  0  0
  -21.0881   -8.8733   19.8908 H   0  0  0  0  0  0
  -22.3732  -10.9646   19.6135 H   0  0  0  0  0  0
  -21.1960   -7.6130   23.9705 H   0  0  0  0  0  0
  -21.1498   -6.0517   25.9070 H   0  0  0  0  0  0
  -22.0603   -2.7608   23.2846 H   0  0  0  0  0  0
  -22.4113  -11.9760   22.4766 H   0  0  0  0  0  0
  -21.1085  -13.1069   22.2660 H   0  0  0  0  0  0
  -24.6503  -15.8405   20.4803 H   0  0  0  0  0  0
  -26.2523  -15.6120   20.0086 H   0  0  0  0  0  0
  -26.7204  -32.5418   23.1035 H   0  0  0  0  0  0
  -25.0184  -33.9714   25.0449 H   0  0  0  0  0  0
  -22.7188  -31.3103   21.3987 H   0  0  0  0  0  0
  -23.3775  -35.9573   23.3243 H   0  0  0  0  0  0
  -24.3600  -36.8938   22.2057 H   0  0  0  0  0  0
  -23.7217  -37.6436   23.6708 H   0  0  0  0  0  0
  -26.1089  -31.5296   20.5986 H   0  0  0  0  0  0
  -26.8529  -30.8238   22.0013 H   0  0  0  0  0  0
  -28.1127  -28.9200   21.2004 H   0  0  0  0  0  0
  -25.8906  -25.9366   18.9781 H   0  0  0  0  0  0
  -23.9538  -27.3332   18.9956 H   0  0  0  0  0  0
  -23.7571  -30.6086   19.4049 H   0  0  0  0  0  0
  -22.7559  -29.2626   19.8456 H   0  0  0  0  0  0
  -25.1262  -36.1856   25.0812 H   0  0  0  0  0  0
  -20.9988  -28.3278   24.1376 H   0  0  0  0  0  0
  -20.5661  -26.2311   23.3586 H   0  0  0  0  0  0
  -21.6627  -26.7432   22.1172 H   0  0  0  0  0  0
  -19.6910  -25.6302   21.1217 H   0  0  0  0  0  0
  -19.6688  -27.3205   20.6731 H   0  0  0  0  0  0
  -17.4176  -26.6705   21.3996 H   0  0  0  0  0  0
  -18.0314  -26.0064   22.8988 H   0  0  0  0  0  0
  -19.7955  -30.7278   24.2231 H   0  0  0  0  0  0
  -17.5034  -31.6278   24.5187 H   0  0  0  0  0  0
  -15.5364  -30.3001   23.7702 H   0  0  0  0  0  0
  -15.8645  -28.0849   22.7069 H   0  0  0  0  0  0
  -24.5933  -30.7025   25.7736 H   0  0  0  0  0  0
  -24.8890  -32.2917   26.4748 H   0  0  0  0  0  0
  -25.8029  -30.8978   27.0230 H   0  0  0  0  0  0
  -26.2985  -29.6725   24.1188 H   0  0  0  0  0  0
  -27.4121  -29.7245   25.4653 H   0  0  0  0  0  0
  -27.8824  -30.4304   23.9368 H   0  0  0  0  0  0
  -27.2577  -33.3698   26.1953 H   0  0  0  0  0  0
  -28.3903  -32.6863   25.0395 H   0  0  0  0  0  0
  -28.0598  -31.8581   26.5541 H   0  0  0  0  0  0
  -28.2490  -38.0168   24.7591 H   0  0  0  0  0  0
  -28.1168  -36.2695   24.6150 H   0  0  0  0  0  0
  -27.2319  -37.1214   25.8865 H   0  0  0  0  0  0
  -20.9344  -29.8890   21.6957 H   0  0  0  0  0  0
  -26.0119  -38.2808   24.1512 H   0  0  0  0  0  0
  -31.6916  -22.7667   20.7620 H   0  0  0  0  0  0
  -31.6519  -23.2735   22.4491 H   0  0  0  0  0  0
  -30.6914  -19.9613   22.5374 H   0  0  0  0  0  0
  -31.3133  -20.4320   20.9616 H   0  0  0  0  0  0
  -29.3054  -21.0251   19.1606 H   0  0  0  0  0  0
  -27.6979  -20.7088   19.7922 H   0  0  0  0  0  0
  -29.6483  -22.0461   22.8895 H   0  0  0  0  0  0
  -27.9085  -22.3362   21.5393 H   0  0  0  0  0  0
  -29.5048  -23.6436   19.3217 H   0  0  0  0  0  0
  -27.3412  -24.7768   21.1787 H   0  0  0  0  0  0
  -27.3418  -24.5878   19.4557 H   0  0  0  0  0  0
  -29.5322  -17.3237   22.2006 H   0  0  0  0  0  0
  -31.0950  -17.3472   21.4559 H   0  0  0  0  0  0
  -28.5769  -18.1162   19.8458 H   0  0  0  0  0  0
  -30.2206  -18.5209   19.4642 H   0  0  0  0  0  0
  -28.8394  -15.4515   21.0242 H   0  0  0  0  0  0
  -30.8281  -24.8928   20.6537 H   0  0  0  0  0  0
  -29.8993  -24.7014   21.9735 H   0  0  0  0  0  0
  -28.6093  -19.6515   21.6423 H   0  0  0  0  0  0
  1 25  1  0  0  0
  1 30  2  0  0  0
  1 80  1  0  0  0
  2  3  1  0  0  0
  2 25  1  0  0  0
  2 83  1  0  0  0
  2 84  1  0  0  0
  3  4  1  0  0  0
  3 85  1  0  0  0
  3 86  1  0  0  0
  4  5  1  0  0  0
  4 87  1  0  0  0
  4 88  1  0  0  0
  5  6  1  0  0  0
  5 26  1  0  0  0
  5 89  1  0  0  0
  6 25  1  0  0  0
  6 90  1  0  0  0
  6 91  1  0  0  0
  7  8  2  0  0  0
  7 26  1  0  0  0
  7 29  1  0  0  0
  8  9  1  0  0  0
  8 22  1  0  0  0
  9 10  1  0  0  0
  9 27  2  0  0  0
 10 11  2  0  0  0
 10 15  1  0  0  0
 11 12  1  0  0  0
 11 92  1  0  0  0
 12 13  2  0  0  0
 12 93  1  0  0  0
 13 14  1  0  0  0
 13 31  1  0  0  0
 14 15  2  0  0  0
 14 94  1  0  0  0
 15 95  1  0  0  0
 16 17  2  0  0  0
 16 21  1  0  0  0
 16 31  1  0  0  0
 17 18  1  0  0  0
 17 96  1  0  0  0
 18 19  2  0  0  0
 18 97  1  0  0  0
 19 20  1  0  0  0
 19 24  1  0  0  0
 20 21  2  0  0  0
 20 98  1  0  0  0
 21 23  1  0  0  0
 22 28  1  0  0  0
 22 32  2  0  0  0
 26 27  1  0  0  0
 28 99  1  0  0  0
 28100  1  0  0  0
 29101  1  0  0  0
 29102  1  0  0  0
 33 34  1  0  0  0
 33 66  1  0  0  0
 33 70  2  0  0  0
 34 36  1  0  0  0
 34 59  1  0  0  0
 34103  1  0  0  0
 35 44  2  0  0  0
 35 45  1  0  0  0
 35 68  1  0  0  0
 36 56  1  0  0  0
 36104  1  0  0  0
 37 39  1  0  0  0
 37 47  1  0  0  0
 37 66  1  0  0  0
 37105  1  0  0  0
 38 43  2  0  0  0
 38 46  1  0  0  0
 38 47  1  0  0  0
 39 64  1  0  0  0
 39 67  2  0  0  0
 40 52  1  0  0  0
 40 53  2  0  0  0
 40 58  1  0  0  0
 41106  1  0  0  0
 41107  1  0  0  0
 41108  1  0  0  0
 41 48  1  0  0  0
 42 43  1  0  0  0
 42 66  1  0  0  0
 42109  1  0  0  0
 42110  1  0  0  0
 43 44  1  0  0  0
 44111  1  0  0  0
 45 46  2  0  0  0
 45112  1  0  0  0
 46113  1  0  0  0
 47114  1  0  0  0
 47115  1  0  0  0
 48 56  1  0  0  0
 48 65  1  0  0  0
 48116  1  0  0  0
 49 50  1  0  0  0
 49 53  1  0  0  0
 49 64  1  0  0  0
 49117  1  0  0  0
 50 51  1  0  0  0
 50118  1  0  0  0
 50119  1  0  0  0
 51 52  1  0  0  0
 51120  1  0  0  0
 51121  1  0  0  0
 52122  1  0  0  0
 52123  1  0  0  0
 53 54  1  0  0  0
 54 55  2  0  0  0
 54124  1  0  0  0
 55 57  1  0  0  0
 55125  1  0  0  0
 56 69  2  0  0  0
 57 58  2  0  0  0
 57126  1  0  0  0
 58127  1  0  0  0
 59 60  1  0  0  0
 59 61  1  0  0  0
 59 62  1  0  0  0
 60128  1  0  0  0
 60129  1  0  0  0
 60130  1  0  0  0
 61131  1  0  0  0
 61132  1  0  0  0
 61133  1  0  0  0
 62134  1  0  0  0
 62135  1  0  0  0
 62136  1  0  0  0
 63 65  1  0  0  0
 63137  1  0  0  0
 63138  1  0  0  0
 63139  1  0  0  0
 64140  1  0  0  0
 65141  1  0  0  0
 68 77  1  0  0  0
 71 81  1  0  0  0
 71142  1  0  0  0
 71143  1  0  0  0
 71 74  1  0  0  0
 72 74  1  0  0  0
 72 82  1  0  0  0
 72144  1  0  0  0
 72145  1  0  0  0
 73 82  1  0  0  0
 73146  1  0  0  0
 73147  1  0  0  0
 73 75  1  0  0  0
 74 75  1  0  0  0
 74148  1  0  0  0
 75 76  1  0  0  0
 75149  1  0  0  0
 76 77  1  0  0  0
 76 81  1  0  0  0
 76150  1  0  0  0
 77151  1  0  0  0
 77152  1  0  0  0
 78 79  1  0  0  0
 78 80  1  0  0  0
 78153  1  0  0  0
 78154  1  0  0  0
 79155  1  0  0  0
 79156  1  0  0  0
 79 82  1  0  0  0
 80157  1  0  0  0
 81158  1  0  0  0
 81159  1  0  0  0
 82160  1  0  0  0
M  CHG  2  81   1  82   1
M  ISO  4   1 100  68 101  77 101  80 100
M  END
> <chiral flag>
0

> <version>
0

> <s_m_source_file>
/data/baiqing/PycharmProjects/Reinvent-master-3.2/result/LINK_invent/BTK/process_docking_weight1_custom_sum_contain_oxygen_bond_distance_aromatic_linkinvent_7_9_3/rearranged_h_0197.sdf

> <i_m_source_file_index>
71

> <r_mmod_Potential_Energy-OPLS-2005>
-25.0055179595947

> <r_mmod_Stretch_Energy-OPLS-2005>
110.189117431641

> <r_mmod_Bend_Energy-OPLS-2005>
215.058685302734

> <r_mmod_Torsional_Energy-OPLS-2005>
355.605194091797

> <r_mmod_Improper_Torsional_Energy-OPLS-2005>
4.09915113449097

> <r_mmod_Van_der_Waal_Energy-OPLS-2005>
116.013130187988

> <r_mmod_Electrostatic_Energy-OPLS-2005>
85.1671295166016

> <r_mmod_Solvation_Energy-OPLS-2005>
-986.453002929688

> <b_mmod_Minimization_Converged-OPLS-2005>
0

> <r_mmod_RMS_Derivative-OPLS-2005>
3.37671160697937

$$$$
71
                    3D
 Structure written by MMmdl.
155164  0  0  1  0            999 V2000
  -30.6158  -14.6796   20.4894 C   0  0  0  0  0  0
  -30.4368  -12.4197   19.4517 C   0  0  0  0  0  0
  -29.5057  -12.5028   18.2219 C   0  0  0  0  0  0
  -28.0303  -12.3351   18.6381 C   0  0  0  0  0  0
  -27.6465  -13.2201   19.8541 C   0  0  2  0  0  0
  -28.6929  -13.1086   20.9839 C   0  0  0  0  0  0
  -25.2536  -13.8173   20.5684 C   0  0  0  0  0  0
  -24.1816  -13.0435   20.9203 C   0  0  0  0  0  0
  -24.6391  -11.6907   20.8747 C   0  0  0  0  0  0
  -23.9061  -10.4289   21.0408 C   0  0  0  0  0  0
  -24.3613   -9.4206   21.9185 C   0  0  0  0  0  0
  -23.6289   -8.2239   22.0754 C   0  0  0  0  0  0
  -22.4273   -8.0278   21.3544 C   0  0  0  0  0  0
  -21.9906   -9.0251   20.4647 C   0  0  0  0  0  0
  -22.7233  -10.2130   20.3057 C   0  0  0  0  0  0
  -21.6852   -6.0730   22.5276 C   0  0  0  0  0  0
  -21.4011   -6.5637   23.8211 C   0  0  0  0  0  0
  -21.3659   -5.6791   24.9173 C   0  0  0  0  0  0
  -21.6045   -4.3053   24.7224 C   0  0  0  0  0  0
  -21.8820   -3.8145   23.4348 C   0  0  0  0  0  0
  -21.9194   -4.6960   22.3402 C   0  0  0  0  0  0
  -22.7838  -13.5225   21.1861 C   0  0  0  0  0  0
  -22.1662   -4.2144   21.0980 F   0  0  0  0  0  0
  -21.5629   -3.4539   25.7739 F   0  0  0  0  0  0
  -29.9981  -13.4574   20.4069 N   0  0  0  0  0  0
  -26.2956  -12.9360   20.3288 N   0  0  0  0  0  0
  -25.9317  -11.6512   20.5750 N   0  0  0  0  0  0
  -22.0483  -12.8220   22.0419 N   0  0  0  0  0  0
  -25.4237  -15.1895   20.4076 N   0  0  0  0  0  0
  -31.7986  -14.8166   20.1656 O   0  0  0  0  0  0
  -21.6640   -6.8874   21.4239 O   0  0  0  0  0  0
  -22.3526  -14.5533   20.6711 O   0  0  0  0  0  0
  -24.6266  -31.8577   23.1997 C   0  0  0  0  0  0
  -25.9107  -32.4769   23.8336 C   0  0  1  0  0  0
  -27.2306  -27.3097   20.1329 C   0  0  0  0  0  0
  -25.5915  -33.8568   24.2264 N   0  0  0  0  0  0
  -23.4214  -30.4774   21.5426 C   0  0  2  0  0  0
  -24.8690  -28.9193   20.1196 C   0  0  0  0  0  0
  -22.7475  -29.4610   22.4948 C   0  0  0  0  0  0
  -18.0284  -28.1385   22.8490 C   0  0  0  0  0  0
  -24.1487  -36.7288   23.2643 C   0  0  0  0  0  0
  -25.9605  -30.7870   21.3684 C   0  0  0  0  0  0
  -26.0370  -29.4094   20.7182 C   0  0  0  0  0  0
  -27.2236  -28.6181   20.7081 C   0  0  0  0  0  0
  -26.0414  -26.8594   19.5263 C   0  0  0  0  0  0
  -24.8728  -27.6501   19.5149 C   0  0  0  0  0  0
  -23.6373  -29.8026   20.1613 C   0  0  0  0  0  0
  -25.4114  -36.3076   24.0329 C   0  0  1  0  0  0
  -20.5884  -28.3686   23.1292 C   0  0  2  0  0  0
  -20.6775  -26.9411   22.5418 C   0  0  0  0  0  0
  -19.5751  -26.6384   21.5220 C   0  0  0  0  0  0
  -18.1928  -26.7929   22.1626 C   0  0  0  0  0  0
  -19.1535  -28.8853   23.2886 C   0  0  0  0  0  0
  -18.9460  -30.1458   23.8900 C   0  0  0  0  0  0
  -17.6461  -30.6591   24.0564 C   0  0  0  0  0  0
  -25.9050  -34.9447   23.5102 C   0  0  0  0  0  0
  -16.5352  -29.9087   23.6335 C   0  0  0  0  0  0
  -16.7271  -28.6505   23.0356 C   0  0  0  0  0  0
  -26.4493  -31.6584   25.0711 C   0  0  0  0  0  0
  -25.3727  -31.3720   26.1441 C   0  0  0  0  0  0
  -27.0337  -30.3010   24.6163 C   0  0  0  0  0  0
  -27.6056  -32.4317   25.7475 C   0  0  0  0  0  0
  -27.5578  -37.1796   24.8465 C   0  0  0  0  0  0
  -21.4190  -29.3035   22.3687 N   0  0  0  0  0  0
  -26.4287  -37.3775   23.9413 N   0  0  0  0  0  0
  -24.6884  -31.0581   22.0944 N   0  0  0  0  0  0
  -23.4192  -28.8164   23.3044 O   0  0  0  0  0  0
  -28.3669  -26.4928   20.0995 O   0  0  0  0  0  0
  -26.5626  -34.8918   22.4673 O   0  0  0  0  0  0
  -23.5429  -32.1369   23.7326 O   0  0  0  0  0  0
  -29.7723  -21.5629   19.6940 C   0  0  0  0  0  0
  -29.2771  -20.5921   20.4874 C   0  0  0  0  0  0
  -29.0722  -18.1598   21.5286 C   0  0  0  0  0  0
  -30.2053  -18.2054   19.7313 C   0  0  0  0  0  0
  -30.1911  -17.2226   20.9539 C   0  0  0  0  0  0
  -28.2963  -21.7307   22.4925 C   0  0  0  0  0  0
  -28.4283  -23.8058   19.8157 C   0  0  0  0  0  0
  -28.3342  -25.1366   20.7049 C   0  0  0  0  0  0
  -29.1569  -22.6123   20.3894 N   0  0  0  0  0  0
  -28.4345  -21.5593   21.0542 N   0  0  0  0  0  0
  -29.6103  -19.1954   20.6432 N   0  0  0  0  0  0
  -29.8205  -15.7670   20.7595 N   0  0  0  0  0  0
  -31.4765  -12.5529   19.1466 H   0  0  0  0  0  0
  -30.3830  -11.4322   19.9124 H   0  0  0  0  0  0
  -29.7763  -11.7388   17.4917 H   0  0  0  0  0  0
  -29.6388  -13.4639   17.7225 H   0  0  0  0  0  0
  -27.8767  -11.2840   18.8850 H   0  0  0  0  0  0
  -27.3726  -12.5472   17.7942 H   0  0  0  0  0  0
  -27.6536  -14.2492   19.4946 H   0  0  0  0  0  0
  -28.7174  -12.0963   21.3899 H   0  0  0  0  0  0
  -28.4374  -13.7622   21.8195 H   0  0  0  0  0  0
  -25.2757   -9.5683   22.4758 H   0  0  0  0  0  0
  -24.0001   -7.4631   22.7472 H   0  0  0  0  0  0
  -21.0838   -8.8766   19.8953 H   0  0  0  0  0  0
  -22.3690  -10.9668   19.6166 H   0  0  0  0  0  0
  -21.2002   -7.6143   23.9711 H   0  0  0  0  0  0
  -21.1479   -6.0522   25.9076 H   0  0  0  0  0  0
  -22.0600   -2.7606   23.2849 H   0  0  0  0  0  0
  -22.4101  -11.9881   22.4808 H   0  0  0  0  0  0
  -21.1097  -13.1241   22.2621 H   0  0  0  0  0  0
  -24.6511  -15.8391   20.5066 H   0  0  0  0  0  0
  -26.2590  -15.6253   20.0390 H   0  0  0  0  0  0
  -26.7175  -32.5439   23.1083 H   0  0  0  0  0  0
  -25.0054  -33.9704   25.0404 H   0  0  0  0  0  0
  -22.7159  -31.2974   21.3944 H   0  0  0  0  0  0
  -23.3745  -35.9624   23.3311 H   0  0  0  0  0  0
  -24.3574  -36.8905   22.2055 H   0  0  0  0  0  0
  -23.7243  -37.6494   23.6663 H   0  0  0  0  0  0
  -26.0879  -31.5458   20.5950 H   0  0  0  0  0  0
  -26.8422  -30.8417   21.9958 H   0  0  0  0  0  0
  -28.1265  -28.9963   21.1661 H   0  0  0  0  0  0
  -26.0175  -25.8856   19.0576 H   0  0  0  0  0  0
  -23.9770  -27.2678   19.0455 H   0  0  0  0  0  0
  -23.7584  -30.5737   19.3999 H   0  0  0  0  0  0
  -22.7575  -29.2310   19.8619 H   0  0  0  0  0  0
  -25.1294  -36.1925   25.0820 H   0  0  0  0  0  0
  -20.9973  -28.3259   24.1415 H   0  0  0  0  0  0
  -20.5684  -26.2295   23.3617 H   0  0  0  0  0  0
  -21.6642  -26.7444   22.1207 H   0  0  0  0  0  0
  -19.6917  -25.6298   21.1244 H   0  0  0  0  0  0
  -19.6693  -27.3201   20.6757 H   0  0  0  0  0  0
  -17.4203  -26.6688   21.4021 H   0  0  0  0  0  0
  -18.0319  -26.0066   22.9016 H   0  0  0  0  0  0
  -19.7937  -30.7274   24.2269 H   0  0  0  0  0  0
  -17.5014  -31.6270   24.5163 H   0  0  0  0  0  0
  -15.5353  -30.2987   23.7661 H   0  0  0  0  0  0
  -15.8671  -28.0824   22.7070 H   0  0  0  0  0  0
  -24.5905  -30.7062   25.7772 H   0  0  0  0  0  0
  -24.8911  -32.2882   26.4866 H   0  0  0  0  0  0
  -25.8051  -30.8901   27.0218 H   0  0  0  0  0  0
  -26.2907  -29.6753   24.1205 H   0  0  0  0  0  0
  -27.4057  -29.7276   25.4662 H   0  0  0  0  0  0
  -27.8762  -30.4301   23.9366 H   0  0  0  0  0  0
  -27.2677  -33.3626   26.2043 H   0  0  0  0  0  0
  -28.3868  -32.6865   25.0298 H   0  0  0  0  0  0
  -28.0724  -31.8446   26.5395 H   0  0  0  0  0  0
  -28.2597  -38.0092   24.7509 H   0  0  0  0  0  0
  -28.1069  -36.2620   24.6289 H   0  0  0  0  0  0
  -27.2295  -37.1445   25.8868 H   0  0  0  0  0  0
  -20.9377  -29.8737   21.6873 H   0  0  0  0  0  0
  -26.0166  -38.2850   24.1412 H   0  0  0  0  0  0
  -30.5081  -21.7732   18.9208 H   0  0  0  0  0  0
  -29.1795  -18.3830   22.5911 H   0  0  0  0  0  0
  -28.0521  -17.8780   21.2630 H   0  0  0  0  0  0
  -29.5313  -17.9331   18.9177 H   0  0  0  0  0  0
  -31.2039  -18.4657   19.3777 H   0  0  0  0  0  0
  -31.1103  -17.3292   21.5349 H   0  0  0  0  0  0
  -27.7924  -20.8679   22.9287 H   0  0  0  0  0  0
  -27.7086  -22.6198   22.7235 H   0  0  0  0  0  0
  -29.2725  -21.8294   22.9689 H   0  0  0  0  0  0
  -28.9566  -24.0694   18.8989 H   0  0  0  0  0  0
  -27.4285  -23.5100   19.4970 H   0  0  0  0  0  0
  -29.1964  -25.1257   21.3719 H   0  0  0  0  0  0
  -27.4752  -25.0521   21.3722 H   0  0  0  0  0  0
  -28.8536  -15.5428   20.9353 H   0  0  0  0  0  0
  1 25  1  0  0  0
  1 30  2  0  0  0
  1 82  1  0  0  0
  2  3  1  0  0  0
  2 25  1  0  0  0
  2 83  1  0  0  0
  2 84  1  0  0  0
  3  4  1  0  0  0
  3 85  1  0  0  0
  3 86  1  0  0  0
  4  5  1  0  0  0
  4 87  1  0  0  0
  4 88  1  0  0  0
  5  6  1  0  0  0
  5 26  1  0  0  0
  5 89  1  0  0  0
  6 25  1  0  0  0
  6 90  1  0  0  0
  6 91  1  0  0  0
  7  8  2  0  0  0
  7 26  1  0  0  0
  7 29  1  0  0  0
  8  9  1  0  0  0
  8 22  1  0  0  0
  9 10  1  0  0  0
  9 27  2  0  0  0
 10 11  2  0  0  0
 10 15  1  0  0  0
 11 12  1  0  0  0
 11 92  1  0  0  0
 12 13  2  0  0  0
 12 93  1  0  0  0
 13 14  1  0  0  0
 13 31  1  0  0  0
 14 15  2  0  0  0
 14 94  1  0  0  0
 15 95  1  0  0  0
 16 17  2  0  0  0
 16 21  1  0  0  0
 16 31  1  0  0  0
 17 18  1  0  0  0
 17 96  1  0  0  0
 18 19  2  0  0  0
 18 97  1  0  0  0
 19 20  1  0  0  0
 19 24  1  0  0  0
 20 21  2  0  0  0
 20 98  1  0  0  0
 21 23  1  0  0  0
 22 28  1  0  0  0
 22 32  2  0  0  0
 26 27  1  0  0  0
 28 99  1  0  0  0
 28100  1  0  0  0
 29101  1  0  0  0
 29102  1  0  0  0
 33 34  1  0  0  0
 33 66  1  0  0  0
 33 70  2  0  0  0
 34 36  1  0  0  0
 34 59  1  0  0  0
 34103  1  0  0  0
 35 44  2  0  0  0
 35 45  1  0  0  0
 35 68  1  0  0  0
 36 56  1  0  0  0
 36104  1  0  0  0
 37 39  1  0  0  0
 37 47  1  0  0  0
 37 66  1  0  0  0
 37105  1  0  0  0
 38 43  2  0  0  0
 38 46  1  0  0  0
 38 47  1  0  0  0
 39 64  1  0  0  0
 39 67  2  0  0  0
 40 52  1  0  0  0
 40 53  2  0  0  0
 40 58  1  0  0  0
 41106  1  0  0  0
 41107  1  0  0  0
 41108  1  0  0  0
 41 48  1  0  0  0
 42 43  1  0  0  0
 42 66  1  0  0  0
 42109  1  0  0  0
 42110  1  0  0  0
 43 44  1  0  0  0
 44111  1  0  0  0
 45 46  2  0  0  0
 45112  1  0  0  0
 46113  1  0  0  0
 47114  1  0  0  0
 47115  1  0  0  0
 48 56  1  0  0  0
 48 65  1  0  0  0
 48116  1  0  0  0
 49 50  1  0  0  0
 49 53  1  0  0  0
 49 64  1  0  0  0
 49117  1  0  0  0
 50 51  1  0  0  0
 50118  1  0  0  0
 50119  1  0  0  0
 51 52  1  0  0  0
 51120  1  0  0  0
 51121  1  0  0  0
 52122  1  0  0  0
 52123  1  0  0  0
 53 54  1  0  0  0
 54 55  2  0  0  0
 54124  1  0  0  0
 55 57  1  0  0  0
 55125  1  0  0  0
 56 69  2  0  0  0
 57 58  2  0  0  0
 57126  1  0  0  0
 58127  1  0  0  0
 59 60  1  0  0  0
 59 61  1  0  0  0
 59 62  1  0  0  0
 60128  1  0  0  0
 60129  1  0  0  0
 60130  1  0  0  0
 61131  1  0  0  0
 61132  1  0  0  0
 61133  1  0  0  0
 62134  1  0  0  0
 62135  1  0  0  0
 62136  1  0  0  0
 63 65  1  0  0  0
 63137  1  0  0  0
 63138  1  0  0  0
 63139  1  0  0  0
 64140  1  0  0  0
 65141  1  0  0  0
 68 78  1  0  0  0
 71 72  2  0  0  0
 71 79  1  0  0  0
 71142  1  0  0  0
 72 80  1  0  0  0
 72 81  1  0  0  0
 73 75  1  0  0  0
 73 81  1  0  0  0
 73143  1  0  0  0
 73144  1  0  0  0
 74 75  1  0  0  0
 74 81  1  0  0  0
 74145  1  0  0  0
 74146  1  0  0  0
 75 82  1  0  0  0
 75147  1  0  0  0
 76 80  1  0  0  0
 76148  1  0  0  0
 76149  1  0  0  0
 76150  1  0  0  0
 77 78  1  0  0  0
 77 79  1  0  0  0
 77151  1  0  0  0
 77152  1  0  0  0
 78153  1  0  0  0
 78154  1  0  0  0
 79 80  1  0  0  0
 82155  1  0  0  0
M  ISO  4   1 100  68 101  78 101  82 100
M  END
> <chiral flag>
0

> <version>
0

> <s_m_source_file>
/data/baiqing/PycharmProjects/Reinvent-master-3.2/result/LINK_invent/BTK/process_docking_weight1_custom_sum_contain_oxygen_bond_distance_aromatic_linkinvent_7_9_3/rearranged_h_0197.sdf

> <i_m_source_file_index>
72

> <r_mmod_Potential_Energy-OPLS-2005>
113.233337402344

> <r_mmod_Stretch_Energy-OPLS-2005>
81.3978424072266

> <r_mmod_Bend_Energy-OPLS-2005>
222.302947998047

> <r_mmod_Torsional_Energy-OPLS-2005>
263.597900390625

> <r_mmod_Improper_Torsional_Energy-OPLS-2005>
18.3492908477783

> <r_mmod_Van_der_Waal_Energy-OPLS-2005>
109.900726318359

> <r_mmod_Electrostatic_Energy-OPLS-2005>
-393.621459960938

> <r_mmod_Solvation_Energy-OPLS-2005>
-244.265258789062

> <b_mmod_Minimization_Converged-OPLS-2005>
0

> <r_mmod_RMS_Derivative-OPLS-2005>
0.644711673259735

$$$$
72
                    3D
 Structure written by MMmdl.
174183  0  0  1  0            999 V2000
  -30.7153  -14.4386   20.6202 C   0  0  0  0  0  0
  -30.4267  -12.3053   19.4052 C   0  0  0  0  0  0
  -29.4922  -12.5200   18.1965 C   0  0  0  0  0  0
  -28.0122  -12.3785   18.6082 C   0  0  0  0  0  0
  -27.6650  -13.2042   19.8763 C   0  0  2  0  0  0
  -28.7076  -12.9538   20.9889 C   0  0  0  0  0  0
  -25.2607  -13.8149   20.5668 C   0  0  0  0  0  0
  -24.1855  -13.0439   20.9186 C   0  0  0  0  0  0
  -24.6390  -11.6907   20.8725 C   0  0  0  0  0  0
  -23.9052  -10.4305   21.0394 C   0  0  0  0  0  0
  -24.3610   -9.4218   21.9177 C   0  0  0  0  0  0
  -23.6293   -8.2254   22.0759 C   0  0  0  0  0  0
  -22.4278   -8.0290   21.3553 C   0  0  0  0  0  0
  -21.9902   -9.0251   20.4648 C   0  0  0  0  0  0
  -22.7221  -10.2135   20.3044 C   0  0  0  0  0  0
  -21.6846   -6.0734   22.5286 C   0  0  0  0  0  0
  -21.4003   -6.5639   23.8217 C   0  0  0  0  0  0
  -21.3662   -5.6788   24.9176 C   0  0  0  0  0  0
  -21.6044   -4.3049   24.7221 C   0  0  0  0  0  0
  -21.8825   -3.8145   23.4335 C   0  0  0  0  0  0
  -21.9192   -4.6964   22.3391 C   0  0  0  0  0  0
  -22.7878  -13.5250   21.1837 C   0  0  0  0  0  0
  -22.1663   -4.2154   21.0964 F   0  0  0  0  0  0
  -21.5629   -3.4526   25.7727 F   0  0  0  0  0  0
  -30.0418  -13.2700   20.4468 N   0  0  0  0  0  0
  -26.3044  -12.9314   20.3353 N   0  0  0  0  0  0
  -25.9324  -11.6485   20.5755 N   0  0  0  0  0  0
  -22.0492  -12.8259   22.0373 N   0  0  0  0  0  0
  -25.4322  -15.1853   20.4067 N   0  0  0  0  0  0
  -31.8071  -14.6759   20.0981 O   0  0  0  0  0  0
  -21.6639   -6.8882   21.4253 O   0  0  0  0  0  0
  -22.3584  -14.5558   20.6678 O   0  0  0  0  0  0
  -24.6155  -31.8666   23.2072 C   0  0  0  0  0  0
  -25.9033  -32.4825   23.8380 C   0  0  1  0  0  0
  -27.2142  -27.4101   20.1076 C   0  0  0  0  0  0
  -25.5873  -33.8614   24.2310 N   0  0  0  0  0  0
  -23.4048  -30.4939   21.5473 C   0  0  2  0  0  0
  -24.8486  -28.9601   20.1097 C   0  0  0  0  0  0
  -22.7422  -29.4673   22.4953 C   0  0  0  0  0  0
  -18.0284  -28.1422   22.8529 C   0  0  0  0  0  0
  -24.1467  -36.7296   23.2643 C   0  0  0  0  0  0
  -25.9358  -30.8305   21.3594 C   0  0  0  0  0  0
  -26.0124  -29.4626   20.7063 C   0  0  0  0  0  0
  -27.2041  -28.6980   20.7000 C   0  0  0  0  0  0
  -26.0384  -26.9368   19.4867 C   0  0  0  0  0  0
  -24.8566  -27.6985   19.4930 C   0  0  0  0  0  0
  -23.6138  -29.8308   20.1599 C   0  0  0  0  0  0
  -25.4088  -36.3097   24.0354 C   0  0  1  0  0  0
  -20.5886  -28.3689   23.1332 C   0  0  2  0  0  0
  -20.6779  -26.9425   22.5445 C   0  0  0  0  0  0
  -19.5738  -26.6410   21.5261 C   0  0  0  0  0  0
  -18.1921  -26.7968   22.1664 C   0  0  0  0  0  0
  -19.1546  -28.8865   23.2935 C   0  0  0  0  0  0
  -18.9479  -30.1477   23.8932 C   0  0  0  0  0  0
  -17.6482  -30.6639   24.0592 C   0  0  0  0  0  0
  -25.9029  -34.9478   23.5128 C   0  0  0  0  0  0
  -16.5361  -29.9163   23.6343 C   0  0  0  0  0  0
  -16.7276  -28.6575   23.0371 C   0  0  0  0  0  0
  -26.4442  -31.6623   25.0722 C   0  0  0  0  0  0
  -25.3690  -31.3793   26.1475 C   0  0  0  0  0  0
  -27.0264  -30.3062   24.6095 C   0  0  0  0  0  0
  -27.5998  -32.4360   25.7497 C   0  0  0  0  0  0
  -27.5578  -37.1788   24.8464 C   0  0  0  0  0  0
  -21.4149  -29.3055   22.3726 N   0  0  0  0  0  0
  -26.4255  -37.3801   23.9450 N   0  0  0  0  0  0
  -24.6717  -31.0774   22.0973 N   0  0  0  0  0  0
  -23.4193  -28.8199   23.2988 O   0  0  0  0  0  0
  -28.3348  -26.6022   20.1519 O   0  0  0  0  0  0
  -26.5618  -34.8932   22.4708 O   0  0  0  0  0  0
  -23.5361  -32.1426   23.7472 O   0  0  0  0  0  0
  -28.9430  -20.5405   19.3834 C   0  0  0  0  0  0
  -27.6970  -20.8500   21.5688 C   0  0  0  0  0  0
  -29.6636  -17.7143   20.5631 C   0  0  0  0  0  0
  -29.1539  -18.4971   22.6418 C   0  0  0  0  0  0
  -29.5712  -21.9390   19.6236 C   0  0  0  0  0  0
  -28.3802  -22.2285   21.7155 C   0  0  0  0  0  0
  -28.4308  -19.8269   20.6613 C   0  0  2  0  0  0
  -30.4440  -16.7831   21.5139 C   0  0  1  0  0  0
  -30.1752  -17.3764   22.9135 C   0  0  2  0  0  0
  -28.2442  -25.7025   22.3686 C   0  0  0  0  0  0
  -29.6662  -16.8863   25.3047 C   0  0  0  0  0  0
  -29.1921  -24.2658   20.4492 C   0  0  0  0  0  0
  -28.1498  -25.3521   20.8711 C   0  0  2  0  0  0
  -29.4689  -18.9778   21.2935 N   0  0  0  0  0  0
  -30.0550  -15.3690   21.3331 N   0  0  0  0  0  0
  -28.6790  -22.8492   20.3946 N   0  3  1  0  0  0
  -29.7120  -16.3881   23.9152 N   0  3  0  0  0  0
  -31.4688  -12.4164   19.1000 H   0  0  0  0  0  0
  -30.3356  -11.2850   19.7838 H   0  0  0  0  0  0
  -29.7324  -11.8100   17.4041 H   0  0  0  0  0  0
  -29.6598  -13.5121   17.7747 H   0  0  0  0  0  0
  -27.8151  -11.3217   18.7880 H   0  0  0  0  0  0
  -27.3622  -12.6705   17.7815 H   0  0  0  0  0  0
  -27.7170  -14.2561   19.5955 H   0  0  0  0  0  0
  -28.6817  -11.9060   21.2937 H   0  0  0  0  0  0
  -28.4607  -13.5147   21.8893 H   0  0  0  0  0  0
  -25.2758   -9.5696   22.4737 H   0  0  0  0  0  0
  -24.0011   -7.4640   22.7467 H   0  0  0  0  0  0
  -21.0840   -8.8757   19.8940 H   0  0  0  0  0  0
  -22.3687  -10.9667   19.6141 H   0  0  0  0  0  0
  -21.1988   -7.6149   23.9723 H   0  0  0  0  0  0
  -21.1480   -6.0511   25.9084 H   0  0  0  0  0  0
  -22.0601   -2.7613   23.2819 H   0  0  0  0  0  0
  -22.4095  -11.9924   22.4778 H   0  0  0  0  0  0
  -21.1108  -13.1301   22.2543 H   0  0  0  0  0  0
  -24.6510  -15.8279   20.4847 H   0  0  0  0  0  0
  -26.2603  -15.6148   20.0156 H   0  0  0  0  0  0
  -26.7100  -32.5526   23.1149 H   0  0  0  0  0  0
  -24.9956  -33.9759   25.0413 H   0  0  0  0  0  0
  -22.6954  -31.3126   21.4112 H   0  0  0  0  0  0
  -23.3740  -35.9615   23.3290 H   0  0  0  0  0  0
  -24.3573  -36.8924   22.2057 H   0  0  0  0  0  0
  -23.7196  -37.6486   23.6667 H   0  0  0  0  0  0
  -26.0462  -31.5940   20.5871 H   0  0  0  0  0  0
  -26.8246  -30.8854   21.9771 H   0  0  0  0  0  0
  -28.0973  -29.0733   21.1803 H   0  0  0  0  0  0
  -26.0231  -25.9677   19.0072 H   0  0  0  0  0  0
  -23.9623  -27.3098   19.0258 H   0  0  0  0  0  0
  -23.7290  -30.6081   19.4038 H   0  0  0  0  0  0
  -22.7333  -29.2573   19.8610 H   0  0  0  0  0  0
  -25.1266  -36.1938   25.0849 H   0  0  0  0  0  0
  -21.0011  -28.3268   24.1429 H   0  0  0  0  0  0
  -20.5727  -26.2297   23.3648 H   0  0  0  0  0  0
  -21.6644  -26.7502   22.1192 H   0  0  0  0  0  0
  -19.6898  -25.6332   21.1268 H   0  0  0  0  0  0
  -19.6671  -27.3236   20.6809 H   0  0  0  0  0  0
  -17.4207  -26.6761   21.4049 H   0  0  0  0  0  0
  -18.0274  -26.0123   22.9065 H   0  0  0  0  0  0
  -19.7964  -30.7304   24.2285 H   0  0  0  0  0  0
  -17.5057  -31.6308   24.5217 H   0  0  0  0  0  0
  -15.5372  -30.3089   23.7648 H   0  0  0  0  0  0
  -15.8679  -28.0914   22.7047 H   0  0  0  0  0  0
  -24.5821  -30.7178   25.7851 H   0  0  0  0  0  0
  -24.8925  -32.2976   26.4902 H   0  0  0  0  0  0
  -25.8010  -30.8985   27.0251 H   0  0  0  0  0  0
  -26.2821  -29.6859   24.1077 H   0  0  0  0  0  0
  -27.3964  -29.7272   25.4564 H   0  0  0  0  0  0
  -27.8682  -30.4416   23.9302 H   0  0  0  0  0  0
  -27.2585  -33.3659   26.2067 H   0  0  0  0  0  0
  -28.3798  -32.6921   25.0317 H   0  0  0  0  0  0
  -28.0652  -31.8488   26.5422 H   0  0  0  0  0  0
  -28.2560  -38.0124   24.7580 H   0  0  0  0  0  0
  -28.1101  -36.2661   24.6182 H   0  0  0  0  0  0
  -27.2322  -37.1311   25.8870 H   0  0  0  0  0  0
  -20.9296  -29.8786   21.6968 H   0  0  0  0  0  0
  -26.0137  -38.2862   24.1509 H   0  0  0  0  0  0
  -29.6471  -19.9139   18.8355 H   0  0  0  0  0  0
  -28.0969  -20.6656   18.7071 H   0  0  0  0  0  0
  -26.7214  -21.0276   21.1141 H   0  0  0  0  0  0
  -27.4566  -20.4430   22.5497 H   0  0  0  0  0  0
  -28.6965  -17.2612   20.3328 H   0  0  0  0  0  0
  -30.1882  -17.8554   19.6175 H   0  0  0  0  0  0
  -29.2181  -19.2891   23.3895 H   0  0  0  0  0  0
  -28.1381  -18.0963   22.6603 H   0  0  0  0  0  0
  -29.8073  -22.3838   18.6543 H   0  0  0  0  0  0
  -30.5220  -21.8278   20.1500 H   0  0  0  0  0  0
  -29.2964  -22.1334   22.3010 H   0  0  0  0  0  0
  -27.7058  -22.8620   22.2854 H   0  0  0  0  0  0
  -27.6484  -19.1330   20.3453 H   0  0  0  0  0  0
  -31.5107  -16.8987   21.3106 H   0  0  0  0  0  0
  -31.1030  -17.8281   23.2718 H   0  0  0  0  0  0
  -28.1741  -24.8297   23.0128 H   0  0  0  0  0  0
  -27.4417  -26.3767   22.6690 H   0  0  0  0  0  0
  -29.1893  -26.1960   22.5896 H   0  0  0  0  0  0
  -29.3157  -16.1003   25.9749 H   0  0  0  0  0  0
  -28.9832  -17.7305   25.4018 H   0  0  0  0  0  0
  -30.6531  -17.2021   25.6448 H   0  0  0  0  0  0
  -30.0875  -24.3246   21.0687 H   0  0  0  0  0  0
  -29.5191  -24.5251   19.4412 H   0  0  0  0  0  0
  -27.1582  -24.9442   20.6724 H   0  0  0  0  0  0
  -29.1355  -15.0813   21.6255 H   0  0  0  0  0  0
  -27.8102  -22.8913   19.8801 H   0  0  0  0  0  0
  -30.3490  -15.6078   23.8945 H   0  0  0  0  0  0
  -28.7976  -16.0502   23.6687 H   0  0  0  0  0  0
  1 25  1  0  0  0
  1 30  2  0  0  0
  1 85  1  0  0  0
  2  3  1  0  0  0
  2 25  1  0  0  0
  2 88  1  0  0  0
  2 89  1  0  0  0
  3  4  1  0  0  0
  3 90  1  0  0  0
  3 91  1  0  0  0
  4  5  1  0  0  0
  4 92  1  0  0  0
  4 93  1  0  0  0
  5  6  1  0  0  0
  5 26  1  0  0  0
  5 94  1  0  0  0
  6 25  1  0  0  0
  6 95  1  0  0  0
  6 96  1  0  0  0
  7  8  2  0  0  0
  7 26  1  0  0  0
  7 29  1  0  0  0
  8  9  1  0  0  0
  8 22  1  0  0  0
  9 10  1  0  0  0
  9 27  2  0  0  0
 10 11  2  0  0  0
 10 15  1  0  0  0
 11 12  1  0  0  0
 11 97  1  0  0  0
 12 13  2  0  0  0
 12 98  1  0  0  0
 13 14  1  0  0  0
 13 31  1  0  0  0
 14 15  2  0  0  0
 14 99  1  0  0  0
 15100  1  0  0  0
 16 17  2  0  0  0
 16 21  1  0  0  0
 16 31  1  0  0  0
 17 18  1  0  0  0
 17101  1  0  0  0
 18 19  2  0  0  0
 18102  1  0  0  0
 19 20  1  0  0  0
 19 24  1  0  0  0
 20 21  2  0  0  0
 20103  1  0  0  0
 21 23  1  0  0  0
 22 28  1  0  0  0
 22 32  2  0  0  0
 26 27  1  0  0  0
 28104  1  0  0  0
 28105  1  0  0  0
 29106  1  0  0  0
 29107  1  0  0  0
 33 34  1  0  0  0
 33 66  1  0  0  0
 33 70  2  0  0  0
 34 36  1  0  0  0
 34 59  1  0  0  0
 34108  1  0  0  0
 35 44  2  0  0  0
 35 45  1  0  0  0
 35 68  1  0  0  0
 36 56  1  0  0  0
 36109  1  0  0  0
 37 39  1  0  0  0
 37 47  1  0  0  0
 37 66  1  0  0  0
 37110  1  0  0  0
 38 43  2  0  0  0
 38 46  1  0  0  0
 38 47  1  0  0  0
 39 64  1  0  0  0
 39 67  2  0  0  0
 40 52  1  0  0  0
 40 53  2  0  0  0
 40 58  1  0  0  0
 41111  1  0  0  0
 41112  1  0  0  0
 41113  1  0  0  0
 41 48  1  0  0  0
 42 43  1  0  0  0
 42 66  1  0  0  0
 42114  1  0  0  0
 42115  1  0  0  0
 43 44  1  0  0  0
 44116  1  0  0  0
 45 46  2  0  0  0
 45117  1  0  0  0
 46118  1  0  0  0
 47119  1  0  0  0
 47120  1  0  0  0
 48 56  1  0  0  0
 48 65  1  0  0  0
 48121  1  0  0  0
 49 50  1  0  0  0
 49 53  1  0  0  0
 49 64  1  0  0  0
 49122  1  0  0  0
 50 51  1  0  0  0
 50123  1  0  0  0
 50124  1  0  0  0
 51 52  1  0  0  0
 51125  1  0  0  0
 51126  1  0  0  0
 52127  1  0  0  0
 52128  1  0  0  0
 53 54  1  0  0  0
 54 55  2  0  0  0
 54129  1  0  0  0
 55 57  1  0  0  0
 55130  1  0  0  0
 56 69  2  0  0  0
 57 58  2  0  0  0
 57131  1  0  0  0
 58132  1  0  0  0
 59 60  1  0  0  0
 59 61  1  0  0  0
 59 62  1  0  0  0
 60133  1  0  0  0
 60134  1  0  0  0
 60135  1  0  0  0
 61136  1  0  0  0
 61137  1  0  0  0
 61138  1  0  0  0
 62139  1  0  0  0
 62140  1  0  0  0
 62141  1  0  0  0
 63 65  1  0  0  0
 63142  1  0  0  0
 63143  1  0  0  0
 63144  1  0  0  0
 64145  1  0  0  0
 65146  1  0  0  0
 68 83  1  0  0  0
 71 75  1  0  0  0
 71 77  1  0  0  0
 71147  1  0  0  0
 71148  1  0  0  0
 72 76  1  0  0  0
 72 77  1  0  0  0
 72149  1  0  0  0
 72150  1  0  0  0
 73 78  1  0  0  0
 73151  1  0  0  0
 73152  1  0  0  0
 73 84  1  0  0  0
 74 79  1  0  0  0
 74 84  1  0  0  0
 74153  1  0  0  0
 74154  1  0  0  0
 75 86  1  0  0  0
 75155  1  0  0  0
 75156  1  0  0  0
 76 86  1  0  0  0
 76157  1  0  0  0
 76158  1  0  0  0
 77 84  1  0  0  0
 77159  1  0  0  0
 78 79  1  0  0  0
 78 85  1  0  0  0
 78160  1  0  0  0
 79 87  1  0  0  0
 79161  1  0  0  0
 80162  1  0  0  0
 80163  1  0  0  0
 80164  1  0  0  0
 80 83  1  0  0  0
 81 87  1  0  0  0
 81165  1  0  0  0
 81166  1  0  0  0
 81167  1  0  0  0
 82 83  1  0  0  0
 82168  1  0  0  0
 82169  1  0  0  0
 82 86  1  0  0  0
 83170  1  0  0  0
 85171  1  0  0  0
 86172  1  0  0  0
 87173  1  0  0  0
 87174  1  0  0  0
M  CHG  2  86   1  87   1
M  ISO  4   1 100  68 101  83 101  85 100
M  END
> <chiral flag>
0

> <version>
0

> <s_m_source_file>
/data/baiqing/PycharmProjects/Reinvent-master-3.2/result/LINK_invent/BTK/process_docking_weight1_custom_sum_contain_oxygen_bond_distance_aromatic_linkinvent_7_9_3/rearranged_h_0197.sdf

> <i_m_source_file_index>
73

> <r_mmod_Potential_Energy-OPLS-2005>
-253.539169311523

> <r_mmod_Stretch_Energy-OPLS-2005>
45.1437492370605

> <r_mmod_Bend_Energy-OPLS-2005>
133.460754394531

> <r_mmod_Torsional_Energy-OPLS-2005>
351.260345458984

> <r_mmod_Improper_Torsional_Energy-OPLS-2005>
3.10609841346741

> <r_mmod_Van_der_Waal_Energy-OPLS-2005>
141.225311279297

> <r_mmod_Electrostatic_Energy-OPLS-2005>
-62.6612663269043

> <r_mmod_Solvation_Energy-OPLS-2005>
-879.879333496094

> <b_mmod_Minimization_Converged-OPLS-2005>
0

> <r_mmod_RMS_Derivative-OPLS-2005>
2.79606771469116

$$$$
73
                    3D
 Structure written by MMmdl.
163172  0  0  1  0            999 V2000
  -30.7411  -14.4124   20.6065 C   0  0  0  0  0  0
  -30.4139  -12.2786   19.4167 C   0  0  0  0  0  0
  -29.4908  -12.5005   18.2022 C   0  0  0  0  0  0
  -28.0102  -12.3713   18.6110 C   0  0  0  0  0  0
  -27.6643  -13.2011   19.8765 C   0  0  2  0  0  0
  -28.7021  -12.9605   20.9937 C   0  0  0  0  0  0
  -25.2607  -13.8150   20.5669 C   0  0  0  0  0  0
  -24.1841  -13.0439   20.9146 C   0  0  0  0  0  0
  -24.6389  -11.6904   20.8723 C   0  0  0  0  0  0
  -23.9044  -10.4297   21.0387 C   0  0  0  0  0  0
  -24.3606   -9.4219   21.9173 C   0  0  0  0  0  0
  -23.6285   -8.2252   22.0756 C   0  0  0  0  0  0
  -22.4270   -8.0281   21.3547 C   0  0  0  0  0  0
  -21.9897   -9.0244   20.4641 C   0  0  0  0  0  0
  -22.7217  -10.2127   20.3038 C   0  0  0  0  0  0
  -21.6857   -6.0728   22.5273 C   0  0  0  0  0  0
  -21.4017   -6.5635   23.8206 C   0  0  0  0  0  0
  -21.3654   -5.6792   24.9170 C   0  0  0  0  0  0
  -21.6043   -4.3053   24.7227 C   0  0  0  0  0  0
  -21.8816   -3.8143   23.4351 C   0  0  0  0  0  0
  -21.9195   -4.6955   22.3404 C   0  0  0  0  0  0
  -22.7868  -13.5245   21.1819 C   0  0  0  0  0  0
  -22.1662   -4.2140   21.0982 F   0  0  0  0  0  0
  -21.5628   -3.4541   25.7743 F   0  0  0  0  0  0
  -30.0384  -13.2568   20.4499 N   0  0  0  0  0  0
  -26.3039  -12.9313   20.3370 N   0  0  0  0  0  0
  -25.9313  -11.6476   20.5748 N   0  0  0  0  0  0
  -22.0509  -12.8235   22.0374 N   0  0  0  0  0  0
  -25.4359  -15.1862   20.4094 N   0  0  0  0  0  0
  -31.8395  -14.5942   20.0690 O   0  0  0  0  0  0
  -21.6639   -6.8875   21.4238 O   0  0  0  0  0  0
  -22.3558  -14.5562   20.6676 O   0  0  0  0  0  0
  -24.6135  -31.8693   23.2093 C   0  0  0  0  0  0
  -25.9036  -32.4825   23.8385 C   0  0  1  0  0  0
  -27.2307  -27.4414   20.0906 C   0  0  0  0  0  0
  -25.5900  -33.8622   24.2326 N   0  0  0  0  0  0
  -23.4000  -30.4952   21.5494 C   0  0  2  0  0  0
  -24.8450  -28.9638   20.1126 C   0  0  0  0  0  0
  -22.7411  -29.4672   22.4971 C   0  0  0  0  0  0
  -18.0278  -28.1381   22.8474 C   0  0  0  0  0  0
  -24.1495  -36.7309   23.2637 C   0  0  0  0  0  0
  -25.9288  -30.8380   21.3610 C   0  0  0  0  0  0
  -26.0054  -29.4733   20.7078 C   0  0  0  0  0  0
  -27.2002  -28.7187   20.6935 C   0  0  0  0  0  0
  -26.0514  -26.9486   19.4850 C   0  0  0  0  0  0
  -24.8627  -27.7000   19.4990 C   0  0  0  0  0  0
  -23.6069  -29.8294   20.1632 C   0  0  0  0  0  0
  -25.4114  -36.3105   24.0343 C   0  0  1  0  0  0
  -20.5879  -28.3656   23.1311 C   0  0  2  0  0  0
  -20.6778  -26.9401   22.5410 C   0  0  0  0  0  0
  -19.5758  -26.6384   21.5205 C   0  0  0  0  0  0
  -18.1927  -26.7923   22.1612 C   0  0  0  0  0  0
  -19.1534  -28.8833   23.2890 C   0  0  0  0  0  0
  -18.9461  -30.1433   23.8907 C   0  0  0  0  0  0
  -17.6472  -30.6581   24.0562 C   0  0  0  0  0  0
  -25.9035  -34.9476   23.5133 C   0  0  0  0  0  0
  -16.5362  -29.9085   23.6321 C   0  0  0  0  0  0
  -16.7271  -28.6510   23.0325 C   0  0  0  0  0  0
  -26.4466  -31.6591   25.0703 C   0  0  0  0  0  0
  -25.3742  -31.3708   26.1460 C   0  0  0  0  0  0
  -27.0281  -30.3035   24.6043 C   0  0  0  0  0  0
  -27.6047  -32.4298   25.7477 C   0  0  0  0  0  0
  -27.5590  -37.1803   24.8465 C   0  0  0  0  0  0
  -21.4141  -29.3033   22.3716 N   0  0  0  0  0  0
  -26.4301  -37.3787   23.9419 N   0  0  0  0  0  0
  -24.6650  -31.0809   22.0980 N   0  0  0  0  0  0
  -23.4203  -28.8195   23.2991 O   0  0  0  0  0  0
  -28.4082  -26.7206   20.1156 O   0  0  0  0  0  0
  -26.5590  -34.8930   22.4688 O   0  0  0  0  0  0
  -23.5331  -32.1439   23.7487 O   0  0  0  0  0  0
  -30.3472  -17.0871   22.8912 C   0  0  0  0  0  0
  -30.0058  -15.6209   22.6126 C   0  0  0  0  0  0
  -30.1419  -16.7815   20.5352 C   0  0  0  0  0  0
  -30.1380  -19.8466   20.2710 C   0  0  0  0  0  0
  -30.2983  -20.1347   22.3205 C   0  0  0  0  0  0
  -29.8751  -17.8118   21.6370 C   0  0  2  0  0  0
  -30.5205  -21.0731   21.1196 C   0  0  0  0  0  0
  -29.7742  -23.1516   19.9381 C   0  0  0  0  0  0
  -28.3209  -25.3028   19.9192 C   0  0  0  0  0  0
  -29.6099  -24.6189   20.4190 C   0  0  1  0  0  0
  -30.0692  -15.4493   21.1563 N   0  0  0  0  0  0
  -30.6170  -19.0506   21.3977 N   0  0  0  0  0  0
  -29.5574  -22.2000   21.0493 N   0  3  0  0  0  0
  -29.6221  -24.6557   21.8455 O   0  0  0  0  0  0
  -31.4601  -12.3571   19.1173 H   0  0  0  0  0  0
  -30.2969  -11.2658   19.8042 H   0  0  0  0  0  0
  -29.7230  -11.7795   17.4168 H   0  0  0  0  0  0
  -29.6702  -13.4871   17.7735 H   0  0  0  0  0  0
  -27.8083  -11.3153   18.7952 H   0  0  0  0  0  0
  -27.3642  -12.6615   17.7821 H   0  0  0  0  0  0
  -27.7178  -14.2521   19.5937 H   0  0  0  0  0  0
  -28.6681  -11.9209   21.3239 H   0  0  0  0  0  0
  -28.4568  -13.5463   21.8759 H   0  0  0  0  0  0
  -25.2751   -9.5700   22.4748 H   0  0  0  0  0  0
  -23.9993   -7.4648   22.7483 H   0  0  0  0  0  0
  -21.0831   -8.8749   19.8951 H   0  0  0  0  0  0
  -22.3667  -10.9660   19.6143 H   0  0  0  0  0  0
  -21.2009   -7.6145   23.9704 H   0  0  0  0  0  0
  -21.1478   -6.0527   25.9072 H   0  0  0  0  0  0
  -22.0602   -2.7605   23.2854 H   0  0  0  0  0  0
  -22.4128  -11.9888   22.4749 H   0  0  0  0  0  0
  -21.1122  -13.1252   22.2568 H   0  0  0  0  0  0
  -24.6773  -15.8496   20.5229 H   0  0  0  0  0  0
  -26.2988  -15.6226   20.1108 H   0  0  0  0  0  0
  -26.7115  -32.5561   23.1163 H   0  0  0  0  0  0
  -25.0078  -33.9783   25.0489 H   0  0  0  0  0  0
  -22.6883  -31.3120   21.4106 H   0  0  0  0  0  0
  -23.3754  -35.9645   23.3293 H   0  0  0  0  0  0
  -24.3597  -36.8921   22.2050 H   0  0  0  0  0  0
  -23.7242  -37.6519   23.6646 H   0  0  0  0  0  0
  -26.0370  -31.6047   20.5922 H   0  0  0  0  0  0
  -26.8192  -30.8927   21.9757 H   0  0  0  0  0  0
  -28.0959  -29.1060   21.1587 H   0  0  0  0  0  0
  -26.0276  -25.9885   18.9921 H   0  0  0  0  0  0
  -23.9726  -27.3019   19.0322 H   0  0  0  0  0  0
  -23.7158  -30.6056   19.4050 H   0  0  0  0  0  0
  -22.7321  -29.2492   19.8635 H   0  0  0  0  0  0
  -25.1277  -36.1972   25.0834 H   0  0  0  0  0  0
  -20.9967  -28.3238   24.1434 H   0  0  0  0  0  0
  -20.5687  -26.2271   23.3593 H   0  0  0  0  0  0
  -21.6645  -26.7451   22.1194 H   0  0  0  0  0  0
  -19.6929  -25.6300   21.1213 H   0  0  0  0  0  0
  -19.6702  -27.3215   20.6747 H   0  0  0  0  0  0
  -17.4196  -26.6670   21.4007 H   0  0  0  0  0  0
  -18.0328  -26.0065   22.9006 H   0  0  0  0  0  0
  -19.7952  -30.7229   24.2291 H   0  0  0  0  0  0
  -17.5038  -31.6262   24.5155 H   0  0  0  0  0  0
  -15.5361  -30.2991   23.7643 H   0  0  0  0  0  0
  -15.8674  -28.0841   22.7022 H   0  0  0  0  0  0
  -24.5921  -30.7044   25.7815 H   0  0  0  0  0  0
  -24.8937  -32.2871   26.4897 H   0  0  0  0  0  0
  -25.8101  -30.8895   27.0221 H   0  0  0  0  0  0
  -26.2804  -29.6819   24.1106 H   0  0  0  0  0  0
  -27.4081  -29.7237   25.4464 H   0  0  0  0  0  0
  -27.8625  -30.4360   23.9154 H   0  0  0  0  0  0
  -27.2671  -33.3602   26.2053 H   0  0  0  0  0  0
  -28.3870  -32.6843   25.0311 H   0  0  0  0  0  0
  -28.0692  -31.8412   26.5398 H   0  0  0  0  0  0
  -28.2577  -38.0124   24.7522 H   0  0  0  0  0  0
  -28.1102  -36.2651   24.6261 H   0  0  0  0  0  0
  -27.2308  -37.1421   25.8866 H   0  0  0  0  0  0
  -20.9281  -29.8772   21.6957 H   0  0  0  0  0  0
  -26.0186  -38.2862   24.1431 H   0  0  0  0  0  0
  -31.4273  -17.1904   23.0081 H   0  0  0  0  0  0
  -29.8785  -17.4638   23.8006 H   0  0  0  0  0  0
  -28.9900  -15.4168   22.9517 H   0  0  0  0  0  0
  -30.6745  -14.9466   23.1514 H   0  0  0  0  0  0
  -31.1267  -16.9530   20.0947 H   0  0  0  0  0  0
  -29.4127  -16.8659   19.7281 H   0  0  0  0  0  0
  -30.7382  -19.6673   19.3773 H   0  0  0  0  0  0
  -29.0662  -19.7005   20.1171 H   0  0  0  0  0  0
  -29.2671  -20.0610   22.6724 H   0  0  0  0  0  0
  -31.0327  -20.1945   23.1256 H   0  0  0  0  0  0
  -28.8008  -17.9956   21.7071 H   0  0  0  0  0  0
  -31.5668  -21.3728   21.0191 H   0  0  0  0  0  0
  -30.7888  -23.0330   19.5563 H   0  0  0  0  0  0
  -29.1139  -22.9151   19.1032 H   0  0  0  0  0  0
  -27.4565  -24.8721   20.4288 H   0  0  0  0  0  0
  -28.2011  -25.1182   18.8499 H   0  0  0  0  0  0
  -30.4613  -25.1935   20.0476 H   0  0  0  0  0  0
  -29.6864  -22.8123   21.8488 H   0  0  0  0  0  0
  -28.6005  -21.8883   21.0670 H   0  0  0  0  0  0
  -29.5137  -25.5708   22.0966 H   0  0  0  0  0  0
  1 25  1  0  0  0
  1 30  2  0  0  0
  1 81  1  0  0  0
  2  3  1  0  0  0
  2 25  1  0  0  0
  2 85  1  0  0  0
  2 86  1  0  0  0
  3  4  1  0  0  0
  3 87  1  0  0  0
  3 88  1  0  0  0
  4  5  1  0  0  0
  4 89  1  0  0  0
  4 90  1  0  0  0
  5  6  1  0  0  0
  5 26  1  0  0  0
  5 91  1  0  0  0
  6 25  1  0  0  0
  6 92  1  0  0  0
  6 93  1  0  0  0
  7  8  2  0  0  0
  7 26  1  0  0  0
  7 29  1  0  0  0
  8  9  1  0  0  0
  8 22  1  0  0  0
  9 10  1  0  0  0
  9 27  2  0  0  0
 10 11  2  0  0  0
 10 15  1  0  0  0
 11 12  1  0  0  0
 11 94  1  0  0  0
 12 13  2  0  0  0
 12 95  1  0  0  0
 13 14  1  0  0  0
 13 31  1  0  0  0
 14 15  2  0  0  0
 14 96  1  0  0  0
 15 97  1  0  0  0
 16 17  2  0  0  0
 16 21  1  0  0  0
 16 31  1  0  0  0
 17 18  1  0  0  0
 17 98  1  0  0  0
 18 19  2  0  0  0
 18 99  1  0  0  0
 19 20  1  0  0  0
 19 24  1  0  0  0
 20 21  2  0  0  0
 20100  1  0  0  0
 21 23  1  0  0  0
 22 28  1  0  0  0
 22 32  2  0  0  0
 26 27  1  0  0  0
 28101  1  0  0  0
 28102  1  0  0  0
 29103  1  0  0  0
 29104  1  0  0  0
 33 34  1  0  0  0
 33 66  1  0  0  0
 33 70  2  0  0  0
 34 36  1  0  0  0
 34 59  1  0  0  0
 34105  1  0  0  0
 35 44  2  0  0  0
 35 45  1  0  0  0
 35 68  1  0  0  0
 36 56  1  0  0  0
 36106  1  0  0  0
 37 39  1  0  0  0
 37 47  1  0  0  0
 37 66  1  0  0  0
 37107  1  0  0  0
 38 43  2  0  0  0
 38 46  1  0  0  0
 38 47  1  0  0  0
 39 64  1  0  0  0
 39 67  2  0  0  0
 40 52  1  0  0  0
 40 53  2  0  0  0
 40 58  1  0  0  0
 41108  1  0  0  0
 41109  1  0  0  0
 41110  1  0  0  0
 41 48  1  0  0  0
 42 43  1  0  0  0
 42 66  1  0  0  0
 42111  1  0  0  0
 42112  1  0  0  0
 43 44  1  0  0  0
 44113  1  0  0  0
 45 46  2  0  0  0
 45114  1  0  0  0
 46115  1  0  0  0
 47116  1  0  0  0
 47117  1  0  0  0
 48 56  1  0  0  0
 48 65  1  0  0  0
 48118  1  0  0  0
 49 50  1  0  0  0
 49 53  1  0  0  0
 49 64  1  0  0  0
 49119  1  0  0  0
 50 51  1  0  0  0
 50120  1  0  0  0
 50121  1  0  0  0
 51 52  1  0  0  0
 51122  1  0  0  0
 51123  1  0  0  0
 52124  1  0  0  0
 52125  1  0  0  0
 53 54  1  0  0  0
 54 55  2  0  0  0
 54126  1  0  0  0
 55 57  1  0  0  0
 55127  1  0  0  0
 56 69  2  0  0  0
 57 58  2  0  0  0
 57128  1  0  0  0
 58129  1  0  0  0
 59 60  1  0  0  0
 59 61  1  0  0  0
 59 62  1  0  0  0
 60130  1  0  0  0
 60131  1  0  0  0
 60132  1  0  0  0
 61133  1  0  0  0
 61134  1  0  0  0
 61135  1  0  0  0
 62136  1  0  0  0
 62137  1  0  0  0
 62138  1  0  0  0
 63 65  1  0  0  0
 63139  1  0  0  0
 63140  1  0  0  0
 63141  1  0  0  0
 64142  1  0  0  0
 65143  1  0  0  0
 68 79  1  0  0  0
 71 72  1  0  0  0
 71 76  1  0  0  0
 71144  1  0  0  0
 71145  1  0  0  0
 72 81  1  0  0  0
 72146  1  0  0  0
 72147  1  0  0  0
 73 76  1  0  0  0
 73 81  1  0  0  0
 73148  1  0  0  0
 73149  1  0  0  0
 74 77  1  0  0  0
 74150  1  0  0  0
 74151  1  0  0  0
 74 82  1  0  0  0
 75 77  1  0  0  0
 75 82  1  0  0  0
 75152  1  0  0  0
 75153  1  0  0  0
 76 82  1  0  0  0
 76154  1  0  0  0
 77 83  1  0  0  0
 77155  1  0  0  0
 78 80  1  0  0  0
 78 83  1  0  0  0
 78156  1  0  0  0
 78157  1  0  0  0
 79 80  1  0  0  0
 79158  1  0  0  0
 79159  1  0  0  0
 80 84  1  0  0  0
 80160  1  0  0  0
 83161  1  0  0  0
 83162  1  0  0  0
 84163  1  0  0  0
M  CHG  1  83   1
M  ISO  4   1 100  68 101  79 101  81 100
M  END
> <chiral flag>
0

> <version>
0

> <s_m_source_file>
/data/baiqing/PycharmProjects/Reinvent-master-3.2/result/LINK_invent/BTK/process_docking_weight1_custom_sum_contain_oxygen_bond_distance_aromatic_linkinvent_7_9_3/rearranged_h_0197.sdf

> <i_m_source_file_index>
74

> <r_mmod_Potential_Energy-OPLS-2005>
-70.4969482421875

> <r_mmod_Stretch_Energy-OPLS-2005>
35.1152191162109

> <r_mmod_Bend_Energy-OPLS-2005>
145.061279296875

> <r_mmod_Torsional_Energy-OPLS-2005>
370.216491699219

> <r_mmod_Improper_Torsional_Energy-OPLS-2005>
9.20952796936035

> <r_mmod_Van_der_Waal_Energy-OPLS-2005>
150.740310668945

> <r_mmod_Electrostatic_Energy-OPLS-2005>
-341.689056396484

> <r_mmod_Solvation_Energy-OPLS-2005>
-449.440032958984

> <b_mmod_Minimization_Converged-OPLS-2005>
0

> <r_mmod_RMS_Derivative-OPLS-2005>
2.05948877334595

$$$$
74
                    3D
 Structure written by MMmdl.
156165  0  0  1  0            999 V2000
  -30.7117  -14.4947   20.5916 C   0  0  0  0  0  0
  -30.4223  -12.3297   19.4266 C   0  0  0  0  0  0
  -29.4913  -12.5071   18.2105 C   0  0  0  0  0  0
  -28.0164  -12.3542   18.6276 C   0  0  0  0  0  0
  -27.6582  -13.2070   19.8730 C   0  0  2  0  0  0
  -28.7008  -13.0166   20.9975 C   0  0  0  0  0  0
  -25.2577  -13.8170   20.5690 C   0  0  0  0  0  0
  -24.1829  -13.0440   20.9185 C   0  0  0  0  0  0
  -24.6388  -11.6911   20.8745 C   0  0  0  0  0  0
  -23.9061  -10.4293   21.0411 C   0  0  0  0  0  0
  -24.3614   -9.4212   21.9189 C   0  0  0  0  0  0
  -23.6292   -8.2245   22.0756 C   0  0  0  0  0  0
  -22.4275   -8.0282   21.3547 C   0  0  0  0  0  0
  -21.9911   -9.0255   20.4649 C   0  0  0  0  0  0
  -22.7232  -10.2135   20.3058 C   0  0  0  0  0  0
  -21.6858   -6.0740   22.5281 C   0  0  0  0  0  0
  -21.4012   -6.5646   23.8217 C   0  0  0  0  0  0
  -21.3656   -5.6797   24.9177 C   0  0  0  0  0  0
  -21.6041   -4.3055   24.7224 C   0  0  0  0  0  0
  -21.8819   -3.8152   23.4348 C   0  0  0  0  0  0
  -21.9191   -4.6971   22.3403 C   0  0  0  0  0  0
  -22.7854  -13.5242   21.1847 C   0  0  0  0  0  0
  -22.1661   -4.2158   21.0981 F   0  0  0  0  0  0
  -21.5628   -3.4539   25.7738 F   0  0  0  0  0  0
  -30.0300  -13.3226   20.4416 N   0  0  0  0  0  0
  -26.3007  -12.9335   20.3373 N   0  0  0  0  0  0
  -25.9313  -11.6497   20.5784 N   0  0  0  0  0  0
  -22.0499  -12.8229   22.0407 N   0  0  0  0  0  0
  -25.4296  -15.1887   20.4101 N   0  0  0  0  0  0
  -31.8196  -14.6872   20.0793 O   0  0  0  0  0  0
  -21.6636   -6.8881   21.4244 O   0  0  0  0  0  0
  -22.3540  -14.5548   20.6701 O   0  0  0  0  0  0
  -24.6178  -31.8657   23.2101 C   0  0  0  0  0  0
  -25.9065  -32.4807   23.8407 C   0  0  1  0  0  0
  -27.2268  -27.4156   20.1078 C   0  0  0  0  0  0
  -25.5920  -33.8611   24.2336 N   0  0  0  0  0  0
  -23.4070  -30.4898   21.5497 C   0  0  2  0  0  0
  -24.8549  -28.9568   20.1102 C   0  0  0  0  0  0
  -22.7433  -29.4650   22.4978 C   0  0  0  0  0  0
  -18.0279  -28.1393   22.8505 C   0  0  0  0  0  0
  -24.1483  -36.7304   23.2640 C   0  0  0  0  0  0
  -25.9375  -30.8276   21.3644 C   0  0  0  0  0  0
  -26.0152  -29.4622   20.7104 C   0  0  0  0  0  0
  -27.2086  -28.6990   20.7058 C   0  0  0  0  0  0
  -26.0550  -26.9326   19.4906 C   0  0  0  0  0  0
  -24.8703  -27.6935   19.4949 C   0  0  0  0  0  0
  -23.6164  -29.8231   20.1629 C   0  0  0  0  0  0
  -25.4107  -36.3106   24.0333 C   0  0  1  0  0  0
  -20.5878  -28.3673   23.1327 C   0  0  2  0  0  0
  -20.6772  -26.9403   22.5432 C   0  0  0  0  0  0
  -19.5739  -26.6396   21.5238 C   0  0  0  0  0  0
  -18.1919  -26.7949   22.1639 C   0  0  0  0  0  0
  -19.1533  -28.8856   23.2915 C   0  0  0  0  0  0
  -18.9449  -30.1471   23.8912 C   0  0  0  0  0  0
  -17.6446  -30.6593   24.0578 C   0  0  0  0  0  0
  -25.9041  -34.9467   23.5129 C   0  0  0  0  0  0
  -16.5342  -29.9092   23.6332 C   0  0  0  0  0  0
  -16.7267  -28.6514   23.0351 C   0  0  0  0  0  0
  -26.4484  -31.6593   25.0738 C   0  0  0  0  0  0
  -25.3746  -31.3685   26.1482 C   0  0  0  0  0  0
  -27.0312  -30.3041   24.6106 C   0  0  0  0  0  0
  -27.6078  -32.4308   25.7468 C   0  0  0  0  0  0
  -27.5570  -37.1803   24.8463 C   0  0  0  0  0  0
  -21.4157  -29.3035   22.3723 N   0  0  0  0  0  0
  -26.4284  -37.3796   23.9414 N   0  0  0  0  0  0
  -24.6722  -31.0759   22.0998 N   0  0  0  0  0  0
  -23.4202  -28.8181   23.3016 O   0  0  0  0  0  0
  -28.3496  -26.6132   20.1384 O   0  0  0  0  0  0
  -26.5600  -34.8916   22.4684 O   0  0  0  0  0  0
  -23.5365  -32.1404   23.7490 O   0  0  0  0  0  0
  -27.3957  -19.5063   21.5309 C   0  0  0  0  0  0
  -27.0571  -20.8526   21.2998 C   0  0  0  0  0  0
  -28.7366  -19.1097   21.3472 C   0  0  0  0  0  0
  -28.0723  -21.7399   20.8996 C   0  0  0  0  0  0
  -30.3303  -17.4834   22.6466 C   0  0  0  0  0  0
  -30.6363  -15.9761   22.5459 C   0  0  0  0  0  0
  -29.4731  -16.6507   20.5852 C   0  0  0  0  0  0
  -29.1508  -17.6606   21.7015 C   0  0  2  0  0  0
  -28.2130  -25.4538   20.9961 C   0  0  0  0  0  0
  -28.7016  -24.0913   20.4162 C   0  0  0  0  0  0
  -29.6718  -20.0042   20.9095 N   0  0  0  0  0  0
  -29.3485  -21.3004   20.6969 N   0  0  0  0  0  0
  -30.0810  -15.4867   21.2720 N   0  0  0  0  0  0
  -27.7353  -23.0767   20.7364 O   0  0  0  0  0  0
  -31.4655  -12.4324   19.1217 H   0  0  0  0  0  0
  -30.3319  -11.3229   19.8368 H   0  0  0  0  0  0
  -29.7378  -11.7780   17.4377 H   0  0  0  0  0  0
  -29.6466  -13.4906   17.7648 H   0  0  0  0  0  0
  -27.8408  -11.2991   18.8402 H   0  0  0  0  0  0
  -27.3595  -12.6077   17.7950 H   0  0  0  0  0  0
  -27.6928  -14.2482   19.5567 H   0  0  0  0  0  0
  -28.6838  -11.9895   21.3636 H   0  0  0  0  0  0
  -28.4531  -13.6402   21.8581 H   0  0  0  0  0  0
  -25.2766   -9.5689   22.4758 H   0  0  0  0  0  0
  -24.0009   -7.4637   22.7475 H   0  0  0  0  0  0
  -21.0844   -8.8771   19.8953 H   0  0  0  0  0  0
  -22.3700  -10.9672   19.6162 H   0  0  0  0  0  0
  -21.2002   -7.6155   23.9723 H   0  0  0  0  0  0
  -21.1476   -6.0526   25.9081 H   0  0  0  0  0  0
  -22.0598   -2.7616   23.2843 H   0  0  0  0  0  0
  -22.4108  -11.9881   22.4780 H   0  0  0  0  0  0
  -21.1123  -13.1257   22.2629 H   0  0  0  0  0  0
  -24.6610  -15.8429   20.5097 H   0  0  0  0  0  0
  -26.2842  -15.6263   20.0912 H   0  0  0  0  0  0
  -26.7128  -32.5507   23.1168 H   0  0  0  0  0  0
  -25.0067  -33.9774   25.0476 H   0  0  0  0  0  0
  -22.6969  -31.3075   21.4099 H   0  0  0  0  0  0
  -23.3747  -35.9635   23.3312 H   0  0  0  0  0  0
  -24.3570  -36.8911   22.2053 H   0  0  0  0  0  0
  -23.7230  -37.6509   23.6649 H   0  0  0  0  0  0
  -26.0524  -31.5932   20.5959 H   0  0  0  0  0  0
  -26.8257  -30.8828   21.9827 H   0  0  0  0  0  0
  -28.1011  -29.0757   21.1853 H   0  0  0  0  0  0
  -26.0548  -25.9580   19.0214 H   0  0  0  0  0  0
  -23.9780  -27.2996   19.0283 H   0  0  0  0  0  0
  -23.7210  -30.5992   19.4031 H   0  0  0  0  0  0
  -22.7416  -29.2420   19.8668 H   0  0  0  0  0  0
  -25.1280  -36.1965   25.0825 H   0  0  0  0  0  0
  -20.9972  -28.3232   24.1452 H   0  0  0  0  0  0
  -20.5714  -26.2264   23.3611 H   0  0  0  0  0  0
  -21.6630  -26.7464   22.1190 H   0  0  0  0  0  0
  -19.6892  -25.6318   21.1240 H   0  0  0  0  0  0
  -19.6687  -27.3231   20.6789 H   0  0  0  0  0  0
  -17.4202  -26.6735   21.4028 H   0  0  0  0  0  0
  -18.0283  -26.0086   22.9024 H   0  0  0  0  0  0
  -19.7921  -30.7299   24.2271 H   0  0  0  0  0  0
  -17.4994  -31.6271   24.5184 H   0  0  0  0  0  0
  -15.5344  -30.2997   23.7652 H   0  0  0  0  0  0
  -15.8668  -28.0839   22.7056 H   0  0  0  0  0  0
  -24.5940  -30.7006   25.7810 H   0  0  0  0  0  0
  -24.8907  -32.2830   26.4933 H   0  0  0  0  0  0
  -25.8099  -30.8853   27.0241 H   0  0  0  0  0  0
  -26.2841  -29.6796   24.1192 H   0  0  0  0  0  0
  -27.4130  -29.7286   25.4550 H   0  0  0  0  0  0
  -27.8662  -30.4374   23.9218 H   0  0  0  0  0  0
  -27.2735  -33.3621   26.2054 H   0  0  0  0  0  0
  -28.3868  -32.6851   25.0264 H   0  0  0  0  0  0
  -28.0774  -31.8426   26.5368 H   0  0  0  0  0  0
  -28.2604  -38.0091   24.7521 H   0  0  0  0  0  0
  -28.1049  -36.2626   24.6272 H   0  0  0  0  0  0
  -27.2283  -37.1422   25.8865 H   0  0  0  0  0  0
  -20.9324  -29.8732   21.6916 H   0  0  0  0  0  0
  -26.0167  -38.2863   24.1454 H   0  0  0  0  0  0
  -26.6450  -18.8058   21.8668 H   0  0  0  0  0  0
  -26.0476  -21.2040   21.4498 H   0  0  0  0  0  0
  -31.1864  -18.0564   22.2885 H   0  0  0  0  0  0
  -30.1124  -17.8100   23.6643 H   0  0  0  0  0  0
  -30.1492  -15.4355   23.3584 H   0  0  0  0  0  0
  -31.7098  -15.7907   22.6347 H   0  0  0  0  0  0
  -30.1868  -17.0761   19.8777 H   0  0  0  0  0  0
  -28.5780  -16.3712   20.0308 H   0  0  0  0  0  0
  -28.2938  -17.2435   22.2342 H   0  0  0  0  0  0
  -28.7538  -25.6595   21.9203 H   0  0  0  0  0  0
  -27.1757  -25.3308   21.3154 H   0  0  0  0  0  0
  -29.6943  -23.8634   20.8075 H   0  0  0  0  0  0
  -28.7855  -24.1503   19.3305 H   0  0  0  0  0  0
  1 25  1  0  0  0
  1 30  2  0  0  0
  1 83  1  0  0  0
  2  3  1  0  0  0
  2 25  1  0  0  0
  2 85  1  0  0  0
  2 86  1  0  0  0
  3  4  1  0  0  0
  3 87  1  0  0  0
  3 88  1  0  0  0
  4  5  1  0  0  0
  4 89  1  0  0  0
  4 90  1  0  0  0
  5  6  1  0  0  0
  5 26  1  0  0  0
  5 91  1  0  0  0
  6 25  1  0  0  0
  6 92  1  0  0  0
  6 93  1  0  0  0
  7  8  2  0  0  0
  7 26  1  0  0  0
  7 29  1  0  0  0
  8  9  1  0  0  0
  8 22  1  0  0  0
  9 10  1  0  0  0
  9 27  2  0  0  0
 10 11  2  0  0  0
 10 15  1  0  0  0
 11 12  1  0  0  0
 11 94  1  0  0  0
 12 13  2  0  0  0
 12 95  1  0  0  0
 13 14  1  0  0  0
 13 31  1  0  0  0
 14 15  2  0  0  0
 14 96  1  0  0  0
 15 97  1  0  0  0
 16 17  2  0  0  0
 16 21  1  0  0  0
 16 31  1  0  0  0
 17 18  1  0  0  0
 17 98  1  0  0  0
 18 19  2  0  0  0
 18 99  1  0  0  0
 19 20  1  0  0  0
 19 24  1  0  0  0
 20 21  2  0  0  0
 20100  1  0  0  0
 21 23  1  0  0  0
 22 28  1  0  0  0
 22 32  2  0  0  0
 26 27  1  0  0  0
 28101  1  0  0  0
 28102  1  0  0  0
 29103  1  0  0  0
 29104  1  0  0  0
 33 34  1  0  0  0
 33 66  1  0  0  0
 33 70  2  0  0  0
 34 36  1  0  0  0
 34 59  1  0  0  0
 34105  1  0  0  0
 35 44  2  0  0  0
 35 45  1  0  0  0
 35 68  1  0  0  0
 36 56  1  0  0  0
 36106  1  0  0  0
 37 39  1  0  0  0
 37 47  1  0  0  0
 37 66  1  0  0  0
 37107  1  0  0  0
 38 43  2  0  0  0
 38 46  1  0  0  0
 38 47  1  0  0  0
 39 64  1  0  0  0
 39 67  2  0  0  0
 40 52  1  0  0  0
 40 53  2  0  0  0
 40 58  1  0  0  0
 41108  1  0  0  0
 41109  1  0  0  0
 41110  1  0  0  0
 41 48  1  0  0  0
 42 43  1  0  0  0
 42 66  1  0  0  0
 42111  1  0  0  0
 42112  1  0  0  0
 43 44  1  0  0  0
 44113  1  0  0  0
 45 46  2  0  0  0
 45114  1  0  0  0
 46115  1  0  0  0
 47116  1  0  0  0
 47117  1  0  0  0
 48 56  1  0  0  0
 48 65  1  0  0  0
 48118  1  0  0  0
 49 50  1  0  0  0
 49 53  1  0  0  0
 49 64  1  0  0  0
 49119  1  0  0  0
 50 51  1  0  0  0
 50120  1  0  0  0
 50121  1  0  0  0
 51 52  1  0  0  0
 51122  1  0  0  0
 51123  1  0  0  0
 52124  1  0  0  0
 52125  1  0  0  0
 53 54  1  0  0  0
 54 55  2  0  0  0
 54126  1  0  0  0
 55 57  1  0  0  0
 55127  1  0  0  0
 56 69  2  0  0  0
 57 58  2  0  0  0
 57128  1  0  0  0
 58129  1  0  0  0
 59 60  1  0  0  0
 59 61  1  0  0  0
 59 62  1  0  0  0
 60130  1  0  0  0
 60131  1  0  0  0
 60132  1  0  0  0
 61133  1  0  0  0
 61134  1  0  0  0
 61135  1  0  0  0
 62136  1  0  0  0
 62137  1  0  0  0
 62138  1  0  0  0
 63 65  1  0  0  0
 63139  1  0  0  0
 63140  1  0  0  0
 63141  1  0  0  0
 64142  1  0  0  0
 65143  1  0  0  0
 68 79  1  0  0  0
 71 72  2  0  0  0
 71 73  1  0  0  0
 71144  1  0  0  0
 72 74  1  0  0  0
 72145  1  0  0  0
 73 81  2  0  0  0
 73 78  1  0  0  0
 74 82  2  0  0  0
 74 84  1  0  0  0
 75 76  1  0  0  0
 75 78  1  0  0  0
 75146  1  0  0  0
 75147  1  0  0  0
 76 83  1  0  0  0
 76148  1  0  0  0
 76149  1  0  0  0
 77 78  1  0  0  0
 77 83  1  0  0  0
 77150  1  0  0  0
 77151  1  0  0  0
 78152  1  0  0  0
 79 80  1  0  0  0
 79153  1  0  0  0
 79154  1  0  0  0
 80 84  1  0  0  0
 80155  1  0  0  0
 80156  1  0  0  0
 81 82  1  0  0  0
M  ISO  4   1 100  68 101  79 101  83 100
M  END
> <chiral flag>
0

> <version>
0

> <s_m_source_file>
/data/baiqing/PycharmProjects/Reinvent-master-3.2/result/LINK_invent/BTK/process_docking_weight1_custom_sum_contain_oxygen_bond_distance_aromatic_linkinvent_7_9_3/rearranged_h_0197.sdf

> <i_m_source_file_index>
75

> <r_mmod_Potential_Energy-OPLS-2005>
199.13232421875

> <r_mmod_Stretch_Energy-OPLS-2005>
46.9060325622559

> <r_mmod_Bend_Energy-OPLS-2005>
148.044525146484

> <r_mmod_Torsional_Energy-OPLS-2005>
332.248840332031

> <r_mmod_Improper_Torsional_Energy-OPLS-2005>
5.71081018447876

> <r_mmod_Van_der_Waal_Energy-OPLS-2005>
145.360122680664

> <r_mmod_Electrostatic_Energy-OPLS-2005>
-280.680816650391

> <r_mmod_Solvation_Energy-OPLS-2005>
-215.333053588867

> <b_mmod_Minimization_Converged-OPLS-2005>
0

> <r_mmod_RMS_Derivative-OPLS-2005>
1.72350680828094

$$$$
75
                    3D
 Structure written by MMmdl.
185193  0  0  1  0            999 V2000
  -30.8127  -14.5335   20.3799 C   0  0  0  0  0  0
  -30.3930  -12.3262   19.4190 C   0  0  0  0  0  0
  -29.4595  -12.4037   18.2009 C   0  0  0  0  0  0
  -28.0019  -12.2294   18.6627 C   0  0  0  0  0  0
  -27.6175  -13.1732   19.8275 C   0  0  2  0  0  0
  -28.6965  -13.2256   20.9429 C   0  0  0  0  0  0
  -25.2511  -13.7999   20.5807 C   0  0  0  0  0  0
  -24.1768  -13.0343   20.9283 C   0  0  0  0  0  0
  -24.6324  -11.6803   20.8889 C   0  0  0  0  0  0
  -23.8981  -10.4236   21.0492 C   0  0  0  0  0  0
  -24.3533   -9.4147   21.9257 C   0  0  0  0  0  0
  -23.6211   -8.2200   22.0767 C   0  0  0  0  0  0
  -22.4237   -8.0250   21.3505 C   0  0  0  0  0  0
  -21.9870   -9.0259   20.4655 C   0  0  0  0  0  0
  -22.7176  -10.2149   20.3107 C   0  0  0  0  0  0
  -21.6849   -6.0703   22.5276 C   0  0  0  0  0  0
  -21.4002   -6.5608   23.8199 C   0  0  0  0  0  0
  -21.3644   -5.6783   24.9182 C   0  0  0  0  0  0
  -21.6026   -4.3042   24.7242 C   0  0  0  0  0  0
  -21.8821   -3.8116   23.4374 C   0  0  0  0  0  0
  -21.9171   -4.6923   22.3418 C   0  0  0  0  0  0
  -22.7775  -13.5161   21.1863 C   0  0  0  0  0  0
  -22.1647   -4.2091   21.0999 F   0  0  0  0  0  0
  -21.5633   -3.4520   25.7755 F   0  0  0  0  0  0
  -30.0076  -13.4347   20.3073 N   0  0  0  0  0  0
  -26.2869  -12.9098   20.3419 N   0  0  0  0  0  0
  -25.9239  -11.6319   20.5979 N   0  0  0  0  0  0
  -22.0377  -12.8258   22.0469 N   0  0  0  0  0  0
  -25.4173  -15.1743   20.4193 N   0  0  0  0  0  0
  -32.0320  -14.4127   20.2965 O   0  0  0  0  0  0
  -21.6602   -6.8857   21.4241 O   0  0  0  0  0  0
  -22.3483  -14.5446   20.6630 O   0  0  0  0  0  0
  -24.6078  -31.8715   23.2107 C   0  0  0  0  0  0
  -25.8998  -32.4834   23.8395 C   0  0  1  0  0  0
  -27.2576  -27.4968   20.0897 C   0  0  0  0  0  0
  -25.5885  -33.8631   24.2337 N   0  0  0  0  0  0
  -23.3951  -30.4930   21.5454 C   0  0  2  0  0  0
  -24.8502  -28.9601   20.1151 C   0  0  0  0  0  0
  -22.7366  -29.4681   22.4961 C   0  0  0  0  0  0
  -18.0272  -28.1373   22.8491 C   0  0  0  0  0  0
  -24.1493  -36.7324   23.2638 C   0  0  0  0  0  0
  -25.9164  -30.8523   21.3588 C   0  0  0  0  0  0
  -25.9999  -29.4867   20.7169 C   0  0  0  0  0  0
  -27.2010  -28.7537   20.7204 C   0  0  0  0  0  0
  -26.0940  -26.9657   19.4906 C   0  0  0  0  0  0
  -24.8881  -27.6918   19.5073 C   0  0  0  0  0  0
  -23.6069  -29.8177   20.1612 C   0  0  0  0  0  0
  -25.4112  -36.3121   24.0342 C   0  0  1  0  0  0
  -20.5856  -28.3665   23.1315 C   0  0  2  0  0  0
  -20.6765  -26.9404   22.5418 C   0  0  0  0  0  0
  -19.5746  -26.6385   21.5208 C   0  0  0  0  0  0
  -18.1921  -26.7923   22.1614 C   0  0  0  0  0  0
  -19.1521  -28.8828   23.2907 C   0  0  0  0  0  0
  -18.9461  -30.1435   23.8918 C   0  0  0  0  0  0
  -17.6468  -30.6582   24.0568 C   0  0  0  0  0  0
  -25.9026  -34.9484   23.5133 C   0  0  0  0  0  0
  -16.5357  -29.9093   23.6324 C   0  0  0  0  0  0
  -16.7265  -28.6510   23.0341 C   0  0  0  0  0  0
  -26.4462  -31.6600   25.0696 C   0  0  0  0  0  0
  -25.3744  -31.3717   26.1462 C   0  0  0  0  0  0
  -27.0289  -30.3041   24.6056 C   0  0  0  0  0  0
  -27.6061  -32.4287   25.7460 C   0  0  0  0  0  0
  -27.5590  -37.1818   24.8466 C   0  0  0  0  0  0
  -21.4100  -29.3046   22.3716 N   0  0  0  0  0  0
  -26.4304  -37.3801   23.9405 N   0  0  0  0  0  0
  -24.6568  -31.0864   22.0973 N   0  0  0  0  0  0
  -23.4171  -28.8218   23.2983 O   0  0  0  0  0  0
  -28.4319  -26.7928   20.1152 O   0  0  0  0  0  0
  -26.5589  -34.8933   22.4693 O   0  0  0  0  0  0
  -23.5288  -32.1449   23.7540 O   0  0  0  0  0  0
  -29.0501  -16.1072   19.4570 C   0  0  0  0  0  0
  -31.2562  -16.9316   20.0746 C   0  0  0  0  0  0
  -28.9179  -17.5134   18.7851 C   0  0  0  0  0  0
  -31.4164  -17.3783   18.5937 C   0  0  1  0  0  0
  -31.8664  -20.6079   17.0325 C   0  0  0  0  0  0
  -27.3925  -22.0466   19.4029 C   0  0  0  0  0  0
  -35.0900  -14.7886   16.2699 C   0  0  0  0  0  0
  -31.7897  -16.2214   17.6029 C   0  0  0  0  0  0
  -29.5315  -22.2496   18.0071 C   0  0  0  0  0  0
  -30.0849  -18.7271   16.8640 C   0  0  0  0  0  0
  -33.3023  -15.9255   17.5512 C   0  0  0  0  0  0
  -29.5641  -25.1520   18.8438 C   0  0  0  0  0  0
  -29.0691  -26.5987   18.8591 C   0  0  0  0  0  0
  -30.3684  -20.2436   16.9392 C   0  0  1  0  0  0
  -28.7179  -22.8055   19.1963 C   0  0  1  0  0  0
  -30.3092  -15.7947   20.1713 N   0  0  0  0  0  0
  -29.6076  -20.7914   18.0620 N   0  0  0  0  0  0
  -30.1710  -18.0978   18.2196 N   0  3  1  0  0  0
  -33.6431  -14.9046   16.5351 N   0  3  0  0  0  0
  -28.4146  -24.2383   19.0230 N   0  3  0  0  0  0
  -31.4332  -12.3678   19.0873 H   0  0  0  0  0  0
  -30.2806  -11.3692   19.9322 H   0  0  0  0  0  0
  -29.7161  -11.6165   17.4899 H   0  0  0  0  0  0
  -29.5734  -13.3481   17.6703 H   0  0  0  0  0  0
  -27.8867  -11.1949   18.9856 H   0  0  0  0  0  0
  -27.3222  -12.3644   17.8215 H   0  0  0  0  0  0
  -27.5151  -14.1294   19.3446 H   0  0  0  0  0  0
  -28.7078  -12.3173   21.5477 H   0  0  0  0  0  0
  -28.4744  -14.0448   21.6289 H   0  0  0  0  0  0
  -25.2676   -9.5581   22.4860 H   0  0  0  0  0  0
  -23.9852   -7.4579   22.7499 H   0  0  0  0  0  0
  -21.0776   -8.8824   19.8988 H   0  0  0  0  0  0
  -22.3658  -10.9709   19.6208 H   0  0  0  0  0  0
  -21.2048   -7.6137   23.9662 H   0  0  0  0  0  0
  -21.1440   -6.0550   25.9062 H   0  0  0  0  0  0
  -22.0628   -2.7579   23.2910 H   0  0  0  0  0  0
  -22.3927  -11.9944   22.4941 H   0  0  0  0  0  0
  -21.1000  -13.1342   22.2620 H   0  0  0  0  0  0
  -24.6455  -15.8144   20.5689 H   0  0  0  0  0  0
  -26.2658  -15.6350   20.1232 H   0  0  0  0  0  0
  -26.7072  -32.5589   23.1173 H   0  0  0  0  0  0
  -25.0063  -33.9789   25.0504 H   0  0  0  0  0  0
  -22.6808  -31.3072   21.3999 H   0  0  0  0  0  0
  -23.3746  -35.9663   23.3298 H   0  0  0  0  0  0
  -24.3598  -36.8936   22.2053 H   0  0  0  0  0  0
  -23.7242  -37.6533   23.6642 H   0  0  0  0  0  0
  -26.0183  -31.6146   20.5855 H   0  0  0  0  0  0
  -26.8067  -30.9146   21.9718 H   0  0  0  0  0  0
  -28.0865  -29.1551   21.1944 H   0  0  0  0  0  0
  -26.1112  -25.9946   19.0205 H   0  0  0  0  0  0
  -24.0031  -27.2738   19.0482 H   0  0  0  0  0  0
  -23.7140  -30.5885   19.3973 H   0  0  0  0  0  0
  -22.7348  -29.2315   19.8644 H   0  0  0  0  0  0
  -25.1285  -36.1999   25.0835 H   0  0  0  0  0  0
  -20.9966  -28.3245   24.1424 H   0  0  0  0  0  0
  -20.5666  -26.2279   23.3605 H   0  0  0  0  0  0
  -21.6636  -26.7452   22.1207 H   0  0  0  0  0  0
  -19.6914  -25.6300   21.1226 H   0  0  0  0  0  0
  -19.6684  -27.3207   20.6744 H   0  0  0  0  0  0
  -17.4194  -26.6678   21.4012 H   0  0  0  0  0  0
  -18.0326  -26.0057   22.9000 H   0  0  0  0  0  0
  -19.7938  -30.7247   24.2298 H   0  0  0  0  0  0
  -17.5027  -31.6267   24.5161 H   0  0  0  0  0  0
  -15.5363  -30.3013   23.7632 H   0  0  0  0  0  0
  -15.8659  -28.0849   22.7035 H   0  0  0  0  0  0
  -24.5848  -30.7153   25.7786 H   0  0  0  0  0  0
  -24.9030  -32.2900   26.4976 H   0  0  0  0  0  0
  -25.8093  -30.8802   27.0173 H   0  0  0  0  0  0
  -26.2827  -29.6782   24.1145 H   0  0  0  0  0  0
  -27.4111  -29.7293   25.4503 H   0  0  0  0  0  0
  -27.8636  -30.4357   23.9161 H   0  0  0  0  0  0
  -27.2711  -33.3596   26.2048 H   0  0  0  0  0  0
  -28.3885  -32.6820   25.0288 H   0  0  0  0  0  0
  -28.0701  -31.8380   26.5369 H   0  0  0  0  0  0
  -28.2610  -38.0115   24.7509 H   0  0  0  0  0  0
  -28.1083  -36.2642   24.6293 H   0  0  0  0  0  0
  -27.2304  -37.1473   25.8871 H   0  0  0  0  0  0
  -20.9237  -29.8803   21.6976 H   0  0  0  0  0  0
  -26.0198  -38.2889   24.1378 H   0  0  0  0  0  0
  -28.9538  -15.4015   18.6334 H   0  0  0  0  0  0
  -28.2151  -15.9734   20.1437 H   0  0  0  0  0  0
  -32.2381  -16.7353   20.5070 H   0  0  0  0  0  0
  -30.8714  -17.7520   20.6848 H   0  0  0  0  0  0
  -28.5830  -18.2208   19.5438 H   0  0  0  0  0  0
  -28.1154  -17.4882   18.0469 H   0  0  0  0  0  0
  -32.2149  -18.1169   18.5547 H   0  0  0  0  0  0
  -32.4263  -20.1950   16.1924 H   0  0  0  0  0  0
  -32.3313  -20.2583   17.9532 H   0  0  0  0  0  0
  -32.0307  -21.6835   16.9813 H   0  0  0  0  0  0
  -27.5626  -21.0033   19.6660 H   0  0  0  0  0  0
  -26.7794  -22.0698   18.5009 H   0  0  0  0  0  0
  -26.8106  -22.4810   20.2170 H   0  0  0  0  0  0
  -35.2818  -14.0739   15.4670 H   0  0  0  0  0  0
  -35.6149  -14.4362   17.1593 H   0  0  0  0  0  0
  -35.5155  -15.7476   15.9715 H   0  0  0  0  0  0
  -31.4730  -16.4437   16.5913 H   0  0  0  0  0  0
  -31.2415  -15.3070   17.8104 H   0  0  0  0  0  0
  -30.5278  -22.6859   18.0445 H   0  0  0  0  0  0
  -29.0793  -22.5524   17.0598 H   0  0  0  0  0  0
  -30.7667  -18.3034   16.1328 H   0  0  0  0  0  0
  -29.0903  -18.5844   16.4382 H   0  0  0  0  0  0
  -33.6653  -15.6010   18.5273 H   0  0  0  0  0  0
  -33.8238  -16.8515   17.3089 H   0  0  0  0  0  0
  -30.2918  -25.0033   19.6437 H   0  0  0  0  0  0
  -30.0741  -24.9558   17.9001 H   0  0  0  0  0  0
  -28.4083  -26.7891   18.0118 H   0  0  0  0  0  0
  -29.9099  -27.2887   18.7751 H   0  0  0  0  0  0
  -29.9957  -20.6766   16.0072 H   0  0  0  0  0  0
  -29.3151  -22.6986   20.1038 H   0  0  0  0  0  0
  -28.6393  -20.4874   17.9731 H   0  0  0  0  0  0
  -30.2262  -18.9695   18.7403 H   0  0  0  0  0  0
  -33.3073  -14.0050   16.8406 H   0  0  0  0  0  0
  -33.1851  -15.1257   15.6655 H   0  0  0  0  0  0
  -27.7754  -24.3539   18.2527 H   0  0  0  0  0  0
  -27.9438  -24.5454   19.8616 H   0  0  0  0  0  0
  1 25  1  0  0  0
  1 30  2  0  0  0
  1 86  1  0  0  0
  2  3  1  0  0  0
  2 25  1  0  0  0
  2 91  1  0  0  0
  2 92  1  0  0  0
  3  4  1  0  0  0
  3 93  1  0  0  0
  3 94  1  0  0  0
  4  5  1  0  0  0
  4 95  1  0  0  0
  4 96  1  0  0  0
  5  6  1  0  0  0
  5 26  1  0  0  0
  5 97  1  0  0  0
  6 25  1  0  0  0
  6 98  1  0  0  0
  6 99  1  0  0  0
  7  8  2  0  0  0
  7 26  1  0  0  0
  7 29  1  0  0  0
  8  9  1  0  0  0
  8 22  1  0  0  0
  9 10  1  0  0  0
  9 27  2  0  0  0
 10 11  2  0  0  0
 10 15  1  0  0  0
 11 12  1  0  0  0
 11100  1  0  0  0
 12 13  2  0  0  0
 12101  1  0  0  0
 13 14  1  0  0  0
 13 31  1  0  0  0
 14 15  2  0  0  0
 14102  1  0  0  0
 15103  1  0  0  0
 16 17  2  0  0  0
 16 21  1  0  0  0
 16 31  1  0  0  0
 17 18  1  0  0  0
 17104  1  0  0  0
 18 19  2  0  0  0
 18105  1  0  0  0
 19 20  1  0  0  0
 19 24  1  0  0  0
 20 21  2  0  0  0
 20106  1  0  0  0
 21 23  1  0  0  0
 22 28  1  0  0  0
 22 32  2  0  0  0
 26 27  1  0  0  0
 28107  1  0  0  0
 28108  1  0  0  0
 29109  1  0  0  0
 29110  1  0  0  0
 33 34  1  0  0  0
 33 66  1  0  0  0
 33 70  2  0  0  0
 34 36  1  0  0  0
 34 59  1  0  0  0
 34111  1  0  0  0
 35 44  2  0  0  0
 35 45  1  0  0  0
 35 68  1  0  0  0
 36 56  1  0  0  0
 36112  1  0  0  0
 37 39  1  0  0  0
 37 47  1  0  0  0
 37 66  1  0  0  0
 37113  1  0  0  0
 38 43  2  0  0  0
 38 46  1  0  0  0
 38 47  1  0  0  0
 39 64  1  0  0  0
 39 67  2  0  0  0
 40 52  1  0  0  0
 40 53  2  0  0  0
 40 58  1  0  0  0
 41114  1  0  0  0
 41115  1  0  0  0
 41116  1  0  0  0
 41 48  1  0  0  0
 42 43  1  0  0  0
 42 66  1  0  0  0
 42117  1  0  0  0
 42118  1  0  0  0
 43 44  1  0  0  0
 44119  1  0  0  0
 45 46  2  0  0  0
 45120  1  0  0  0
 46121  1  0  0  0
 47122  1  0  0  0
 47123  1  0  0  0
 48 56  1  0  0  0
 48 65  1  0  0  0
 48124  1  0  0  0
 49 50  1  0  0  0
 49 53  1  0  0  0
 49 64  1  0  0  0
 49125  1  0  0  0
 50 51  1  0  0  0
 50126  1  0  0  0
 50127  1  0  0  0
 51 52  1  0  0  0
 51128  1  0  0  0
 51129  1  0  0  0
 52130  1  0  0  0
 52131  1  0  0  0
 53 54  1  0  0  0
 54 55  2  0  0  0
 54132  1  0  0  0
 55 57  1  0  0  0
 55133  1  0  0  0
 56 69  2  0  0  0
 57 58  2  0  0  0
 57134  1  0  0  0
 58135  1  0  0  0
 59 60  1  0  0  0
 59 61  1  0  0  0
 59 62  1  0  0  0
 60136  1  0  0  0
 60137  1  0  0  0
 60138  1  0  0  0
 61139  1  0  0  0
 61140  1  0  0  0
 61141  1  0  0  0
 62142  1  0  0  0
 62143  1  0  0  0
 62144  1  0  0  0
 63 65  1  0  0  0
 63145  1  0  0  0
 63146  1  0  0  0
 63147  1  0  0  0
 64148  1  0  0  0
 65149  1  0  0  0
 68 83  1  0  0  0
 71 73  1  0  0  0
 71 86  1  0  0  0
 71150  1  0  0  0
 71151  1  0  0  0
 72 74  1  0  0  0
 72 86  1  0  0  0
 72152  1  0  0  0
 72153  1  0  0  0
 73 88  1  0  0  0
 73154  1  0  0  0
 73155  1  0  0  0
 74 78  1  0  0  0
 74 88  1  0  0  0
 74156  1  0  0  0
 75157  1  0  0  0
 75158  1  0  0  0
 75159  1  0  0  0
 75 84  1  0  0  0
 76160  1  0  0  0
 76161  1  0  0  0
 76162  1  0  0  0
 76 85  1  0  0  0
 77 89  1  0  0  0
 77163  1  0  0  0
 77164  1  0  0  0
 77165  1  0  0  0
 78 81  1  0  0  0
 78166  1  0  0  0
 78167  1  0  0  0
 79 85  1  0  0  0
 79 87  1  0  0  0
 79168  1  0  0  0
 79169  1  0  0  0
 80 84  1  0  0  0
 80170  1  0  0  0
 80171  1  0  0  0
 80 88  1  0  0  0
 81 89  1  0  0  0
 81172  1  0  0  0
 81173  1  0  0  0
 82 83  1  0  0  0
 82 90  1  0  0  0
 82174  1  0  0  0
 82175  1  0  0  0
 83176  1  0  0  0
 83177  1  0  0  0
 84 87  1  0  0  0
 84178  1  0  0  0
 85 90  1  0  0  0
 85179  1  0  0  0
 87180  1  0  0  0
 88181  1  0  0  0
 89182  1  0  0  0
 89183  1  0  0  0
 90184  1  0  0  0
 90185  1  0  0  0
M  CHG  3  88   1  89   1  90   1
M  ISO  4   1 100  68 101  83 101  86 100
M  END
> <chiral flag>
0

> <version>
0

> <s_m_source_file>
/data/baiqing/PycharmProjects/Reinvent-master-3.2/result/LINK_invent/BTK/process_docking_weight1_custom_sum_contain_oxygen_bond_distance_aromatic_linkinvent_7_9_3/rearranged_h_0197.sdf

> <i_m_source_file_index>
76

> <r_mmod_Potential_Energy-OPLS-2005>
-107.19637298584

> <r_mmod_Stretch_Energy-OPLS-2005>
43.0155181884766

> <r_mmod_Bend_Energy-OPLS-2005>
155.237411499023

> <r_mmod_Torsional_Energy-OPLS-2005>
460.865417480469

> <r_mmod_Improper_Torsional_Energy-OPLS-2005>
11.4407091140747

> <r_mmod_Van_der_Waal_Energy-OPLS-2005>
169.784866333008

> <r_mmod_Electrostatic_Energy-OPLS-2005>
468.343414306641

> <r_mmod_Solvation_Energy-OPLS-2005>
-1475.091796875

> <b_mmod_Minimization_Converged-OPLS-2005>
0

> <r_mmod_RMS_Derivative-OPLS-2005>
4.37459659576416

$$$$
76
                    3D
 Structure written by MMmdl.
171181  0  0  1  0            999 V2000
  -30.6977  -14.4204   20.5608 C   0  0  0  0  0  0
  -30.4221  -12.2717   19.4040 C   0  0  0  0  0  0
  -29.4886  -12.4980   18.1963 C   0  0  0  0  0  0
  -28.0086  -12.3674   18.6114 C   0  0  0  0  0  0
  -27.6633  -13.1935   19.8789 C   0  0  2  0  0  0
  -28.7073  -12.9489   20.9926 C   0  0  0  0  0  0
  -25.2609  -13.8126   20.5692 C   0  0  0  0  0  0
  -24.1838  -13.0426   20.9177 C   0  0  0  0  0  0
  -24.6380  -11.6889   20.8745 C   0  0  0  0  0  0
  -23.9048  -10.4283   21.0415 C   0  0  0  0  0  0
  -24.3607   -9.4197   21.9185 C   0  0  0  0  0  0
  -23.6285   -8.2237   22.0758 C   0  0  0  0  0  0
  -22.4268   -8.0276   21.3548 C   0  0  0  0  0  0
  -21.9905   -9.0251   20.4649 C   0  0  0  0  0  0
  -22.7230  -10.2130   20.3058 C   0  0  0  0  0  0
  -21.6848   -6.0733   22.5286 C   0  0  0  0  0  0
  -21.4009   -6.5639   23.8217 C   0  0  0  0  0  0
  -21.3655   -5.6792   24.9179 C   0  0  0  0  0  0
  -21.6043   -4.3057   24.7226 C   0  0  0  0  0  0
  -21.8817   -3.8146   23.4348 C   0  0  0  0  0  0
  -21.9190   -4.6963   22.3405 C   0  0  0  0  0  0
  -22.7867  -13.5244   21.1844 C   0  0  0  0  0  0
  -22.1662   -4.2149   21.0984 F   0  0  0  0  0  0
  -21.5630   -3.4543   25.7738 F   0  0  0  0  0  0
  -30.0401  -13.2407   20.4362 N   0  0  0  0  0  0
  -26.3030  -12.9271   20.3395 N   0  0  0  0  0  0
  -25.9301  -11.6446   20.5782 N   0  0  0  0  0  0
  -22.0503  -12.8231   22.0393 N   0  0  0  0  0  0
  -25.4368  -15.1838   20.4091 N   0  0  0  0  0  0
  -31.8492  -14.6127   20.1574 O   0  0  0  0  0  0
  -21.6633   -6.8875   21.4245 O   0  0  0  0  0  0
  -22.3563  -14.5556   20.6695 O   0  0  0  0  0  0
  -24.6097  -31.8706   23.2113 C   0  0  0  0  0  0
  -25.9008  -32.4839   23.8403 C   0  0  1  0  0  0
  -27.2403  -27.4753   20.0956 C   0  0  0  0  0  0
  -25.5882  -33.8638   24.2339 N   0  0  0  0  0  0
  -23.3963  -30.4917   21.5506 C   0  0  2  0  0  0
  -24.8446  -28.9550   20.1216 C   0  0  0  0  0  0
  -22.7385  -29.4664   22.5009 C   0  0  0  0  0  0
  -18.0267  -28.1372   22.8494 C   0  0  0  0  0  0
  -24.1489  -36.7322   23.2637 C   0  0  0  0  0  0
  -25.9187  -30.8477   21.3577 C   0  0  0  0  0  0
  -25.9993  -29.4809   20.7149 C   0  0  0  0  0  0
  -27.2017  -28.7458   20.7028 C   0  0  0  0  0  0
  -26.0746  -26.9459   19.5067 C   0  0  0  0  0  0
  -24.8737  -27.6832   19.5186 C   0  0  0  0  0  0
  -23.6039  -29.8180   20.1669 C   0  0  0  0  0  0
  -25.4108  -36.3126   24.0342 C   0  0  1  0  0  0
  -20.5854  -28.3649   23.1334 C   0  0  2  0  0  0
  -20.6759  -26.9390   22.5423 C   0  0  0  0  0  0
  -19.5742  -26.6385   21.5213 C   0  0  0  0  0  0
  -18.1917  -26.7923   22.1621 C   0  0  0  0  0  0
  -19.1515  -28.8827   23.2913 C   0  0  0  0  0  0
  -18.9446  -30.1437   23.8917 C   0  0  0  0  0  0
  -17.6450  -30.6581   24.0565 C   0  0  0  0  0  0
  -25.9028  -34.9488   23.5138 C   0  0  0  0  0  0
  -16.5341  -29.9084   23.6320 C   0  0  0  0  0  0
  -16.7258  -28.6501   23.0342 C   0  0  0  0  0  0
  -26.4455  -31.6604   25.0709 C   0  0  0  0  0  0
  -25.3739  -31.3690   26.1469 C   0  0  0  0  0  0
  -27.0283  -30.3062   24.6035 C   0  0  0  0  0  0
  -27.6042  -32.4309   25.7473 C   0  0  0  0  0  0
  -27.5584  -37.1818   24.8463 C   0  0  0  0  0  0
  -21.4117  -29.3027   22.3752 N   0  0  0  0  0  0
  -26.4297  -37.3805   23.9408 N   0  0  0  0  0  0
  -24.6595  -31.0841   22.0993 N   0  0  0  0  0  0
  -23.4176  -28.8208   23.3037 O   0  0  0  0  0  0
  -28.4214  -26.7875   20.0280 O   0  0  0  0  0  0
  -26.5589  -34.8935   22.4698 O   0  0  0  0  0  0
  -23.5301  -32.1437   23.7535 O   0  0  0  0  0  0
  -30.8787  -20.7440   21.3905 C   0  0  0  0  0  0
  -29.5246  -18.9251   20.9532 C   0  0  0  0  0  0
  -30.0470  -21.5661   20.5970 C   0  0  0  0  0  0
  -28.6702  -19.7485   20.1610 C   0  0  0  0  0  0
  -29.6616  -16.5055   19.9139 C   0  0  0  0  0  0
  -30.2987  -16.5075   21.8486 C   0  0  0  0  0  0
  -30.0460  -25.3587   21.1147 C   0  0  0  0  0  0
  -28.3096  -24.3724   20.5392 C   0  0  0  0  0  0
  -29.3339  -17.4179   21.0843 C   0  0  0  0  0  0
  -28.5872  -25.7918   21.0283 C   0  0  2  0  0  0
  -24.7954  -21.9213   19.6668 C   0  0  0  0  0  0
  -30.4175  -23.0231   20.3494 C   0  0  0  0  0  0
  -26.1189  -19.8179   19.7451 C   0  0  0  0  0  0
  -27.4741  -19.1898   19.3769 C   0  0  1  0  0  0
  -30.6198  -19.4300   21.5711 N   0  0  0  0  0  0
  -28.9313  -21.0762   19.9921 N   0  0  0  0  0  0
  -29.9019  -15.4475   20.9078 N   0  0  0  0  0  0
  -29.5898  -23.9695   21.1310 N   0  3  1  0  0  0
  -26.0320  -21.2155   19.2793 N   0  3  0  0  0  0
  -27.6873  -19.3455   18.0672 F   0  0  0  0  0  0
  -31.4663  -12.3713   19.1020 H   0  0  0  0  0  0
  -30.3169  -11.2553   19.7866 H   0  0  0  0  0  0
  -29.7168  -11.7834   17.4042 H   0  0  0  0  0  0
  -29.6627  -13.4890   17.7737 H   0  0  0  0  0  0
  -27.8066  -11.3111   18.7929 H   0  0  0  0  0  0
  -27.3600  -12.6620   17.7856 H   0  0  0  0  0  0
  -27.7120  -14.2430   19.5941 H   0  0  0  0  0  0
  -28.6712  -11.9122   21.3305 H   0  0  0  0  0  0
  -28.4873  -13.5531   21.8746 H   0  0  0  0  0  0
  -25.2758   -9.5676   22.4747 H   0  0  0  0  0  0
  -23.9999   -7.4629   22.7474 H   0  0  0  0  0  0
  -21.0842   -8.8770   19.8949 H   0  0  0  0  0  0
  -22.3696  -10.9671   19.6166 H   0  0  0  0  0  0
  -21.2001   -7.6150   23.9717 H   0  0  0  0  0  0
  -21.1479   -6.0526   25.9081 H   0  0  0  0  0  0
  -22.0597   -2.7610   23.2847 H   0  0  0  0  0  0
  -22.4127  -11.9885   22.4755 H   0  0  0  0  0  0
  -21.1122  -13.1251   22.2605 H   0  0  0  0  0  0
  -24.6723  -15.8417   20.5105 H   0  0  0  0  0  0
  -26.2987  -15.6078   20.0958 H   0  0  0  0  0  0
  -26.7081  -32.5573   23.1178 H   0  0  0  0  0  0
  -25.0061  -33.9809   25.0502 H   0  0  0  0  0  0
  -22.6826  -31.3062   21.4101 H   0  0  0  0  0  0
  -23.3753  -35.9651   23.3305 H   0  0  0  0  0  0
  -24.3586  -36.8930   22.2049 H   0  0  0  0  0  0
  -23.7241  -37.6531   23.6644 H   0  0  0  0  0  0
  -26.0195  -31.6101   20.5839 H   0  0  0  0  0  0
  -26.8110  -30.9103   21.9685 H   0  0  0  0  0  0
  -28.0992  -29.1535   21.1470 H   0  0  0  0  0  0
  -26.1006  -25.9779   19.0270 H   0  0  0  0  0  0
  -23.9858  -27.2729   19.0571 H   0  0  0  0  0  0
  -23.7091  -30.5888   19.4024 H   0  0  0  0  0  0
  -22.7304  -29.2325   19.8744 H   0  0  0  0  0  0
  -25.1284  -36.1996   25.0835 H   0  0  0  0  0  0
  -20.9944  -28.3210   24.1456 H   0  0  0  0  0  0
  -20.5657  -26.2253   23.3602 H   0  0  0  0  0  0
  -21.6632  -26.7439   22.1222 H   0  0  0  0  0  0
  -19.6902  -25.6302   21.1223 H   0  0  0  0  0  0
  -19.6683  -27.3209   20.6753 H   0  0  0  0  0  0
  -17.4191  -26.6674   21.4017 H   0  0  0  0  0  0
  -18.0313  -26.0055   22.9006 H   0  0  0  0  0  0
  -19.7926  -30.7244   24.2292 H   0  0  0  0  0  0
  -17.5010  -31.6265   24.5162 H   0  0  0  0  0  0
  -15.5342  -30.2994   23.7635 H   0  0  0  0  0  0
  -15.8659  -28.0830   22.7041 H   0  0  0  0  0  0
  -24.5906  -30.7041   25.7808 H   0  0  0  0  0  0
  -24.8930  -32.2838   26.4946 H   0  0  0  0  0  0
  -25.8109  -30.8841   27.0207 H   0  0  0  0  0  0
  -26.2808  -29.6833   24.1105 H   0  0  0  0  0  0
  -27.4106  -29.7282   25.4459 H   0  0  0  0  0  0
  -27.8616  -30.4413   23.9136 H   0  0  0  0  0  0
  -27.2670  -33.3590   26.2101 H   0  0  0  0  0  0
  -28.3832  -32.6899   25.0289 H   0  0  0  0  0  0
  -28.0731  -31.8396   26.5349 H   0  0  0  0  0  0
  -28.2608  -38.0110   24.7524 H   0  0  0  0  0  0
  -28.1079  -36.2650   24.6278 H   0  0  0  0  0  0
  -27.2303  -37.1454   25.8866 H   0  0  0  0  0  0
  -20.9263  -29.8763   21.6996 H   0  0  0  0  0  0
  -26.0192  -38.2885   24.1410 H   0  0  0  0  0  0
  -31.7692  -21.1329   21.8637 H   0  0  0  0  0  0
  -30.5504  -16.8169   19.3573 H   0  0  0  0  0  0
  -28.8272  -16.3257   19.2366 H   0  0  0  0  0  0
  -30.0081  -16.3408   22.8855 H   0  0  0  0  0  0
  -31.3505  -16.7980   21.7758 H   0  0  0  0  0  0
  -30.5596  -25.6656   22.0260 H   0  0  0  0  0  0
  -30.6205  -25.6121   20.2216 H   0  0  0  0  0  0
  -28.2867  -24.2962   19.4506 H   0  0  0  0  0  0
  -27.4423  -23.8972   20.9985 H   0  0  0  0  0  0
  -28.3185  -17.2367   21.4469 H   0  0  0  0  0  0
  -28.1506  -26.0204   22.0040 H   0  0  0  0  0  0
  -24.8016  -22.9382   19.2739 H   0  0  0  0  0  0
  -24.6995  -21.9810   20.7513 H   0  0  0  0  0  0
  -23.9149  -21.4131   19.2712 H   0  0  0  0  0  0
  -30.3633  -23.2434   19.2832 H   0  0  0  0  0  0
  -31.4614  -23.1644   20.6319 H   0  0  0  0  0  0
  -25.9637  -19.7617   20.8236 H   0  0  0  0  0  0
  -25.3151  -19.2462   19.2786 H   0  0  0  0  0  0
  -27.3821  -18.1172   19.5250 H   0  0  0  0  0  0
  -29.4710  -23.6573   22.0826 H   0  0  0  0  0  0
  -26.8389  -21.7004   19.6395 H   0  0  0  0  0  0
  -26.1158  -21.2082   18.2744 H   0  0  0  0  0  0
  1 25  1  0  0  0
  1 30  2  0  0  0
  1 87  1  0  0  0
  2  3  1  0  0  0
  2 25  1  0  0  0
  2 91  1  0  0  0
  2 92  1  0  0  0
  3  4  1  0  0  0
  3 93  1  0  0  0
  3 94  1  0  0  0
  4  5  1  0  0  0
  4 95  1  0  0  0
  4 96  1  0  0  0
  5  6  1  0  0  0
  5 26  1  0  0  0
  5 97  1  0  0  0
  6 25  1  0  0  0
  6 98  1  0  0  0
  6 99  1  0  0  0
  7  8  2  0  0  0
  7 26  1  0  0  0
  7 29  1  0  0  0
  8  9  1  0  0  0
  8 22  1  0  0  0
  9 10  1  0  0  0
  9 27  2  0  0  0
 10 11  2  0  0  0
 10 15  1  0  0  0
 11 12  1  0  0  0
 11100  1  0  0  0
 12 13  2  0  0  0
 12101  1  0  0  0
 13 14  1  0  0  0
 13 31  1  0  0  0
 14 15  2  0  0  0
 14102  1  0  0  0
 15103  1  0  0  0
 16 17  2  0  0  0
 16 21  1  0  0  0
 16 31  1  0  0  0
 17 18  1  0  0  0
 17104  1  0  0  0
 18 19  2  0  0  0
 18105  1  0  0  0
 19 20  1  0  0  0
 19 24  1  0  0  0
 20 21  2  0  0  0
 20106  1  0  0  0
 21 23  1  0  0  0
 22 28  1  0  0  0
 22 32  2  0  0  0
 26 27  1  0  0  0
 28107  1  0  0  0
 28108  1  0  0  0
 29109  1  0  0  0
 29110  1  0  0  0
 33 34  1  0  0  0
 33 66  1  0  0  0
 33 70  2  0  0  0
 34 36  1  0  0  0
 34 59  1  0  0  0
 34111  1  0  0  0
 35 44  2  0  0  0
 35 45  1  0  0  0
 35 68  1  0  0  0
 36 56  1  0  0  0
 36112  1  0  0  0
 37 39  1  0  0  0
 37 47  1  0  0  0
 37 66  1  0  0  0
 37113  1  0  0  0
 38 43  2  0  0  0
 38 46  1  0  0  0
 38 47  1  0  0  0
 39 64  1  0  0  0
 39 67  2  0  0  0
 40 52  1  0  0  0
 40 53  2  0  0  0
 40 58  1  0  0  0
 41114  1  0  0  0
 41115  1  0  0  0
 41116  1  0  0  0
 41 48  1  0  0  0
 42 43  1  0  0  0
 42 66  1  0  0  0
 42117  1  0  0  0
 42118  1  0  0  0
 43 44  1  0  0  0
 44119  1  0  0  0
 45 46  2  0  0  0
 45120  1  0  0  0
 46121  1  0  0  0
 47122  1  0  0  0
 47123  1  0  0  0
 48 56  1  0  0  0
 48 65  1  0  0  0
 48124  1  0  0  0
 49 50  1  0  0  0
 49 53  1  0  0  0
 49 64  1  0  0  0
 49125  1  0  0  0
 50 51  1  0  0  0
 50126  1  0  0  0
 50127  1  0  0  0
 51 52  1  0  0  0
 51128  1  0  0  0
 51129  1  0  0  0
 52130  1  0  0  0
 52131  1  0  0  0
 53 54  1  0  0  0
 54 55  2  0  0  0
 54132  1  0  0  0
 55 57  1  0  0  0
 55133  1  0  0  0
 56 69  2  0  0  0
 57 58  2  0  0  0
 57134  1  0  0  0
 58135  1  0  0  0
 59 60  1  0  0  0
 59 61  1  0  0  0
 59 62  1  0  0  0
 60136  1  0  0  0
 60137  1  0  0  0
 60138  1  0  0  0
 61139  1  0  0  0
 61140  1  0  0  0
 61141  1  0  0  0
 62142  1  0  0  0
 62143  1  0  0  0
 62144  1  0  0  0
 63 65  1  0  0  0
 63145  1  0  0  0
 63146  1  0  0  0
 63147  1  0  0  0
 64148  1  0  0  0
 65149  1  0  0  0
 68 80  1  0  0  0
 71 73  2  0  0  0
 71 85  1  0  0  0
 71150  1  0  0  0
 72 74  1  0  0  0
 72 85  2  0  0  0
 72 79  1  0  0  0
 73 82  1  0  0  0
 73 86  1  0  0  0
 74 84  1  0  0  0
 74 86  2  0  0  0
 75 79  1  0  0  0
 75 87  1  0  0  0
 75151  1  0  0  0
 75152  1  0  0  0
 76 79  1  0  0  0
 76 87  1  0  0  0
 76153  1  0  0  0
 76154  1  0  0  0
 77 80  1  0  0  0
 77 88  1  0  0  0
 77155  1  0  0  0
 77156  1  0  0  0
 78 80  1  0  0  0
 78 88  1  0  0  0
 78157  1  0  0  0
 78158  1  0  0  0
 79159  1  0  0  0
 80160  1  0  0  0
 81 89  1  0  0  0
 81161  1  0  0  0
 81162  1  0  0  0
 81163  1  0  0  0
 82164  1  0  0  0
 82165  1  0  0  0
 82 88  1  0  0  0
 83 84  1  0  0  0
 83 89  1  0  0  0
 83166  1  0  0  0
 83167  1  0  0  0
 84 90  1  0  0  0
 84168  1  0  0  0
 88169  1  0  0  0
 89170  1  0  0  0
 89171  1  0  0  0
M  CHG  2  88   1  89   1
M  ISO  4   1 100  68 101  80 101  87 100
M  END
> <chiral flag>
0

> <version>
0

> <s_m_source_file>
/data/baiqing/PycharmProjects/Reinvent-master-3.2/result/LINK_invent/BTK/process_docking_weight1_custom_sum_contain_oxygen_bond_distance_aromatic_linkinvent_7_9_3/rearranged_h_0197.sdf

> <i_m_source_file_index>
77

> <r_mmod_Potential_Energy-OPLS-2005>
-313.670684814453

> <r_mmod_Stretch_Energy-OPLS-2005>
36.8532180786133

> <r_mmod_Bend_Energy-OPLS-2005>
113.412872314453

> <r_mmod_Torsional_Energy-OPLS-2005>
324.202209472656

> <r_mmod_Improper_Torsional_Energy-OPLS-2005>
14.3891286849976

> <r_mmod_Van_der_Waal_Energy-OPLS-2005>
147.993011474609

> <r_mmod_Electrostatic_Energy-OPLS-2005>
26.316499710083

> <r_mmod_Solvation_Energy-OPLS-2005>
-986.850830078125

> <b_mmod_Minimization_Converged-OPLS-2005>
0

> <r_mmod_RMS_Derivative-OPLS-2005>
0.877559244632721

$$$$
78
                    3D
 Structure written by MMmdl.
170180  0  0  1  0            999 V2000
  -30.4626  -14.5581   20.5258 C   0  0  0  0  0  0
  -30.4556  -12.3617   19.4515 C   0  0  0  0  0  0
  -29.5159  -12.5259   18.2361 C   0  0  0  0  0  0
  -28.0252  -12.3701   18.6216 C   0  0  0  0  0  0
  -27.6520  -13.1950   19.8817 C   0  0  2  0  0  0
  -28.6759  -12.9289   21.0054 C   0  0  0  0  0  0
  -25.2386  -13.8089   20.5488 C   0  0  0  0  0  0
  -24.1699  -13.0391   20.9096 C   0  0  0  0  0  0
  -24.6268  -11.6877   20.8678 C   0  0  0  0  0  0
  -23.8979  -10.4284   21.0384 C   0  0  0  0  0  0
  -24.3594   -9.4277   21.9190 C   0  0  0  0  0  0
  -23.6302   -8.2274   22.0741 C   0  0  0  0  0  0
  -22.4303   -8.0262   21.3489 C   0  0  0  0  0  0
  -21.9901   -9.0253   20.4631 C   0  0  0  0  0  0
  -22.7168  -10.2155   20.3059 C   0  0  0  0  0  0
  -21.6881   -6.0759   22.5268 C   0  0  0  0  0  0
  -21.4020   -6.5656   23.8208 C   0  0  0  0  0  0
  -21.3654   -5.6800   24.9145 C   0  0  0  0  0  0
  -21.6040   -4.3077   24.7206 C   0  0  0  0  0  0
  -21.8829   -3.8180   23.4341 C   0  0  0  0  0  0
  -21.9222   -4.6978   22.3399 C   0  0  0  0  0  0
  -22.7714  -13.5189   21.1831 C   0  0  0  0  0  0
  -22.1689   -4.2166   21.0974 F   0  0  0  0  0  0
  -21.5627   -3.4545   25.7730 F   0  0  0  0  0  0
  -30.0008  -13.2873   20.4842 N   0  0  0  0  0  0
  -26.2847  -12.9249   20.3296 N   0  0  0  0  0  0
  -25.9190  -11.6464   20.5738 N   0  0  0  0  0  0
  -22.0356  -12.8202   22.0456 N   0  0  0  0  0  0
  -25.3832  -15.1781   20.3525 N   0  0  0  0  0  0
  -31.6016  -14.8732   20.1057 O   0  0  0  0  0  0
  -21.6683   -6.8903   21.4210 O   0  0  0  0  0  0
  -22.3371  -14.5527   20.6776 O   0  0  0  0  0  0
  -24.5942  -31.8841   23.2176 C   0  0  0  0  0  0
  -25.9060  -32.4732   23.8576 C   0  0  1  0  0  0
  -27.2587  -27.5246   20.0787 C   0  0  0  0  0  0
  -25.5945  -33.8497   24.2473 N   0  0  0  0  0  0
  -23.3903  -30.4932   21.5471 C   0  0  2  0  0  0
  -24.8365  -28.9655   20.1258 C   0  0  0  0  0  0
  -22.7351  -29.4747   22.4960 C   0  0  0  0  0  0
  -18.0426  -28.1394   22.8331 C   0  0  0  0  0  0
  -24.1579  -36.7237   23.2691 C   0  0  0  0  0  0
  -25.9005  -30.8797   21.3464 C   0  0  0  0  0  0
  -25.9878  -29.5157   20.6892 C   0  0  0  0  0  0
  -27.2005  -28.8005   20.6570 C   0  0  0  0  0  0
  -26.0937  -26.9644   19.5203 C   0  0  0  0  0  0
  -24.8845  -27.6780   19.5258 C   0  0  0  0  0  0
  -23.5875  -29.8063   20.1654 C   0  0  0  0  0  0
  -25.4181  -36.3084   24.0344 C   0  0  1  0  0  0
  -20.6025  -28.3814   23.1571 C   0  0  2  0  0  0
  -20.6648  -26.9500   22.5783 C   0  0  0  0  0  0
  -19.6175  -26.7067   21.4734 C   0  0  0  0  0  0
  -18.2147  -26.7848   22.1304 C   0  0  0  0  0  0
  -19.1643  -28.8934   23.2954 C   0  0  0  0  0  0
  -18.9477  -30.1445   23.9161 C   0  0  0  0  0  0
  -17.6339  -30.6418   24.0944 C   0  0  0  0  0  0
  -25.9014  -34.9418   23.5305 C   0  0  0  0  0  0
  -16.5230  -29.8919   23.6389 C   0  0  0  0  0  0
  -16.7357  -28.6490   22.9947 C   0  0  0  0  0  0
  -26.4524  -31.6562   25.0814 C   0  0  0  0  0  0
  -25.3702  -31.3423   26.1446 C   0  0  0  0  0  0
  -27.0456  -30.3072   24.6050 C   0  0  0  0  0  0
  -27.5947  -32.4420   25.7825 C   0  0  0  0  0  0
  -27.5616  -37.1807   24.8496 C   0  0  0  0  0  0
  -21.4183  -29.2923   22.3491 N   0  0  0  0  0  0
  -26.4330  -37.3716   23.9428 N   0  0  0  0  0  0
  -24.6397  -31.1078   22.0938 N   0  0  0  0  0  0
  -23.4145  -28.8410   23.3122 O   0  0  0  0  0  0
  -28.4608  -26.8745   20.0676 O   0  0  0  0  0  0
  -26.5422  -34.8858   22.4826 O   0  0  0  0  0  0
  -23.5256  -32.1566   23.7633 O   0  0  0  0  0  0
  -25.6530  -21.1023   21.2976 C   0  0  0  0  0  0
  -26.4290  -21.3662   22.4094 C   0  0  0  0  0  0
  -27.2173  -19.5248   21.4710 C   0  0  0  0  0  0
  -25.2801  -23.4578   23.4036 C   0  0  0  0  0  0
  -28.7323  -17.7985   20.1807 C   0  0  0  0  0  0
  -28.5840  -17.4663   22.2528 C   0  0  0  0  0  0
  -25.8691  -24.8587   23.5251 C   0  0  0  0  0  0
  -27.5556  -23.5198   22.6478 C   0  0  0  0  0  0
  -26.5159  -22.5791   23.2691 C   0  0  2  0  0  0
  -28.5933  -16.4864   21.0280 C   0  0  0  0  0  0
  -25.7204  -19.4417   19.4188 C   0  0  0  0  0  0
  -27.8437  -25.9556   22.3832 C   0  0  0  0  0  0
  -28.6483  -25.8537   21.0497 C   0  0  0  0  0  0
  -26.2174  -19.9990   20.6843 N   0  0  0  0  0  0
  -27.3035  -20.3154   22.5357 N   0  3  0  0  0  0
  -27.9117  -18.2950   21.2767 N   0  0  0  0  0  0
  -29.7065  -15.4788   21.2104 N   0  0  0  0  0  0
  -26.8859  -24.8270   22.4789 N   0  3  2  0  0  0
  -31.4851  -12.5828   19.1492 H   0  0  0  0  0  0
  -30.4461  -11.3426   19.8298 H   0  0  0  0  0  0
  -29.7593  -11.7754   17.4789 H   0  0  0  0  0  0
  -29.6844  -13.5004   17.7779 H   0  0  0  0  0  0
  -27.8251  -11.3111   18.8062 H   0  0  0  0  0  0
  -27.3943  -12.6691   17.7861 H   0  0  0  0  0  0
  -27.6847  -14.2388   19.5738 H   0  0  0  0  0  0
  -28.6719  -11.8877   21.3034 H   0  0  0  0  0  0
  -28.3913  -13.4749   21.9094 H   0  0  0  0  0  0
  -25.2708   -9.5838   22.4772 H   0  0  0  0  0  0
  -24.0049   -7.4708   22.7464 H   0  0  0  0  0  0
  -21.0841   -8.8804   19.8918 H   0  0  0  0  0  0
  -22.3606  -10.9730   19.6226 H   0  0  0  0  0  0
  -21.1991   -7.6157   23.9701 H   0  0  0  0  0  0
  -21.1439   -6.0530   25.9063 H   0  0  0  0  0  0
  -22.0610   -2.7618   23.2828 H   0  0  0  0  0  0
  -22.4002  -11.9846   22.4855 H   0  0  0  0  0  0
  -21.0981  -13.1201   22.2667 H   0  0  0  0  0  0
  -24.6043  -15.8213   20.4342 H   0  0  0  0  0  0
  -26.2136  -15.5926   19.9535 H   0  0  0  0  0  0
  -26.7295  -32.5436   23.1431 H   0  0  0  0  0  0
  -25.0252  -33.9827   25.0693 H   0  0  0  0  0  0
  -22.6572  -31.2921   21.3952 H   0  0  0  0  0  0
  -23.3816  -35.9696   23.3308 H   0  0  0  0  0  0
  -24.3648  -36.8885   22.2144 H   0  0  0  0  0  0
  -23.7232  -37.6429   23.6558 H   0  0  0  0  0  0
  -25.9786  -31.6509   20.5703 H   0  0  0  0  0  0
  -26.7959  -30.9380   21.9517 H   0  0  0  0  0  0
  -28.0803  -29.2456   21.0968 H   0  0  0  0  0  0
  -26.1214  -25.9771   19.0866 H   0  0  0  0  0  0
  -23.9980  -27.2293   19.1060 H   0  0  0  0  0  0
  -23.6777  -30.5754   19.3963 H   0  0  0  0  0  0
  -22.7276  -29.2038   19.8639 H   0  0  0  0  0  0
  -25.1304  -36.1958   25.0773 H   0  0  0  0  0  0
  -20.9997  -28.3367   24.1686 H   0  0  0  0  0  0
  -20.4362  -26.2698   23.4012 H   0  0  0  0  0  0
  -21.6947  -26.7225   22.3062 H   0  0  0  0  0  0
  -19.8225  -25.7267   21.0196 H   0  0  0  0  0  0
  -19.7102  -27.4572   20.6849 H   0  0  0  0  0  0
  -17.4247  -26.6665   21.3822 H   0  0  0  0  0  0
  -18.0852  -25.9561   22.8386 H   0  0  0  0  0  0
  -19.8112  -30.6880   24.2768 H   0  0  0  0  0  0
  -17.4842  -31.5861   24.6093 H   0  0  0  0  0  0
  -15.5171  -30.2538   23.7925 H   0  0  0  0  0  0
  -15.9103  -28.0553   22.5715 H   0  0  0  0  0  0
  -24.5695  -30.6924   25.7792 H   0  0  0  0  0  0
  -24.8990  -32.2463   26.5346 H   0  0  0  0  0  0
  -25.8215  -30.8405   27.0051 H   0  0  0  0  0  0
  -26.3124  -29.6912   24.0760 H   0  0  0  0  0  0
  -27.4220  -29.7382   25.4513 H   0  0  0  0  0  0
  -27.8863  -30.4824   23.9350 H   0  0  0  0  0  0
  -27.2211  -33.3437   26.2761 H   0  0  0  0  0  0
  -28.3455  -32.7272   25.0402 H   0  0  0  0  0  0
  -28.0783  -31.8232   26.5344 H   0  0  0  0  0  0
  -28.2589  -38.0104   24.7526 H   0  0  0  0  0  0
  -28.1070  -36.2610   24.6288 H   0  0  0  0  0  0
  -27.2298  -37.1469   25.8884 H   0  0  0  0  0  0
  -20.9288  -29.7808   21.6166 H   0  0  0  0  0  0
  -26.0198  -38.2872   24.1411 H   0  0  0  0  0  0
  -24.8012  -21.6203   20.8673 H   0  0  0  0  0  0
  -24.7150  -23.4413   22.4829 H   0  0  0  0  0  0
  -24.6183  -23.1148   24.2021 H   0  0  0  0  0  0
  -28.2741  -17.7519   19.1918 H   0  0  0  0  0  0
  -29.7221  -18.2388   20.1702 H   0  0  0  0  0  0
  -29.5616  -17.9056   22.5434 H   0  0  0  0  0  0
  -27.9709  -17.1586   23.1131 H   0  0  0  0  0  0
  -26.3461  -25.0251   24.4926 H   0  0  0  0  0  0
  -25.1216  -25.6368   23.3601 H   0  0  0  0  0  0
  -27.9518  -23.1507   21.6947 H   0  0  0  0  0  0
  -28.4118  -23.5979   23.3180 H   0  0  0  0  0  0
  -26.7884  -22.2530   24.2720 H   0  0  0  0  0  0
  -27.6075  -16.0860   20.9124 H   0  0  0  0  0  0
  -25.9082  -20.1358   18.5890 H   0  0  0  0  0  0
  -24.6579  -19.2582   19.5120 H   0  0  0  0  0  0
  -26.0663  -18.4352   19.2301 H   0  0  0  0  0  0
  -27.3207  -26.8920   22.5089 H   0  0  0  0  0  0
  -28.5056  -25.8908   23.2493 H   0  0  0  0  0  0
  -28.4504  -24.9286   20.5193 H   0  0  0  0  0  0
  -29.7113  -25.8227   21.2955 H   0  0  0  0  0  0
  -27.9940  -20.1934   23.2850 H   0  0  0  0  0  0
  -30.3305  -16.1141   20.8784 H   0  0  0  0  0  0
  -26.3493  -24.8006   21.6286 H   0  0  0  0  0  0
  1 25  1  0  0  0
  1 30  2  0  0  0
  1 87  1  0  0  0
  2  3  1  0  0  0
  2 25  1  0  0  0
  2 89  1  0  0  0
  2 90  1  0  0  0
  3  4  1  0  0  0
  3 91  1  0  0  0
  3 92  1  0  0  0
  4  5  1  0  0  0
  4 93  1  0  0  0
  4 94  1  0  0  0
  5  6  1  0  0  0
  5 26  1  0  0  0
  5 95  1  0  0  0
  6 25  1  0  0  0
  6 96  1  0  0  0
  6 97  1  0  0  0
  7  8  2  0  0  0
  7 26  1  0  0  0
  7 29  1  0  0  0
  8  9  1  0  0  0
  8 22  1  0  0  0
  9 10  1  0  0  0
  9 27  2  0  0  0
 10 11  2  0  0  0
 10 15  1  0  0  0
 11 12  1  0  0  0
 11 98  1  0  0  0
 12 13  2  0  0  0
 12 99  1  0  0  0
 13 14  1  0  0  0
 13 31  1  0  0  0
 14 15  2  0  0  0
 14100  1  0  0  0
 15101  1  0  0  0
 16 17  2  0  0  0
 16 21  1  0  0  0
 16 31  1  0  0  0
 17 18  1  0  0  0
 17102  1  0  0  0
 18 19  2  0  0  0
 18103  1  0  0  0
 19 20  1  0  0  0
 19 24  1  0  0  0
 20 21  2  0  0  0
 20104  1  0  0  0
 21 23  1  0  0  0
 22 28  1  0  0  0
 22 32  2  0  0  0
 26 27  1  0  0  0
 28105  1  0  0  0
 28106  1  0  0  0
 29107  1  0  0  0
 29108  1  0  0  0
 33 34  1  0  0  0
 33 66  1  0  0  0
 33 70  2  0  0  0
 34 36  1  0  0  0
 34 59  1  0  0  0
 34109  1  0  0  0
 35 44  2  0  0  0
 35 45  1  0  0  0
 35 68  1  0  0  0
 36 56  1  0  0  0
 36110  1  0  0  0
 37 39  1  0  0  0
 37 47  1  0  0  0
 37 66  1  0  0  0
 37111  1  0  0  0
 38 43  2  0  0  0
 38 46  1  0  0  0
 38 47  1  0  0  0
 39 64  1  0  0  0
 39 67  2  0  0  0
 40 52  1  0  0  0
 40 53  2  0  0  0
 40 58  1  0  0  0
 41112  1  0  0  0
 41113  1  0  0  0
 41114  1  0  0  0
 41 48  1  0  0  0
 42 43  1  0  0  0
 42 66  1  0  0  0
 42115  1  0  0  0
 42116  1  0  0  0
 43 44  1  0  0  0
 44117  1  0  0  0
 45 46  2  0  0  0
 45118  1  0  0  0
 46119  1  0  0  0
 47120  1  0  0  0
 47121  1  0  0  0
 48 56  1  0  0  0
 48 65  1  0  0  0
 48122  1  0  0  0
 49 50  1  0  0  0
 49 53  1  0  0  0
 49 64  1  0  0  0
 49123  1  0  0  0
 50 51  1  0  0  0
 50124  1  0  0  0
 50125  1  0  0  0
 51 52  1  0  0  0
 51126  1  0  0  0
 51127  1  0  0  0
 52128  1  0  0  0
 52129  1  0  0  0
 53 54  1  0  0  0
 54 55  2  0  0  0
 54130  1  0  0  0
 55 57  1  0  0  0
 55131  1  0  0  0
 56 69  2  0  0  0
 57 58  2  0  0  0
 57132  1  0  0  0
 58133  1  0  0  0
 59 60  1  0  0  0
 59 61  1  0  0  0
 59 62  1  0  0  0
 60134  1  0  0  0
 60135  1  0  0  0
 60136  1  0  0  0
 61137  1  0  0  0
 61138  1  0  0  0
 61139  1  0  0  0
 62140  1  0  0  0
 62141  1  0  0  0
 62142  1  0  0  0
 63 65  1  0  0  0
 63143  1  0  0  0
 63144  1  0  0  0
 63145  1  0  0  0
 64146  1  0  0  0
 65147  1  0  0  0
 68 83  1  0  0  0
 71 72  2  0  0  0
 71 84  1  0  0  0
 71148  1  0  0  0
 72 85  1  0  0  0
 72 79  1  0  0  0
 73 84  1  0  0  0
 73 85  2  0  0  0
 73 86  1  0  0  0
 74 77  1  0  0  0
 74 79  1  0  0  0
 74149  1  0  0  0
 74150  1  0  0  0
 75 80  1  0  0  0
 75 86  1  0  0  0
 75151  1  0  0  0
 75152  1  0  0  0
 76 80  1  0  0  0
 76 86  1  0  0  0
 76153  1  0  0  0
 76154  1  0  0  0
 77 88  1  0  0  0
 77155  1  0  0  0
 77156  1  0  0  0
 78 79  1  0  0  0
 78 88  1  0  0  0
 78157  1  0  0  0
 78158  1  0  0  0
 79159  1  0  0  0
 80 87  1  0  0  0
 80160  1  0  0  0
 81 84  1  0  0  0
 81161  1  0  0  0
 81162  1  0  0  0
 81163  1  0  0  0
 82 83  1  0  0  0
 82164  1  0  0  0
 82165  1  0  0  0
 82 88  1  0  0  0
 83166  1  0  0  0
 83167  1  0  0  0
 85168  1  0  0  0
 87169  1  0  0  0
 88170  1  0  0  0
M  CHG  2  85   1  88   1
M  ISO  4   1 100  68 101  83 101  87 100
M  END
> <chiral flag>
0

> <version>
0

> <s_m_source_file>
/data/baiqing/PycharmProjects/Reinvent-master-3.2/result/LINK_invent/BTK/process_docking_weight1_custom_sum_contain_oxygen_bond_distance_aromatic_linkinvent_7_9_3/rearranged_h_0197.sdf

> <i_m_source_file_index>
78

> <r_mmod_Potential_Energy-OPLS-2005>
232.506225585938

> <r_mmod_Stretch_Energy-OPLS-2005>
60.5029106140137

> <r_mmod_Bend_Energy-OPLS-2005>
417.537780761719

> <r_mmod_Torsional_Energy-OPLS-2005>
399.283142089844

> <r_mmod_Improper_Torsional_Energy-OPLS-2005>
18.1218299865723

> <r_mmod_Van_der_Waal_Energy-OPLS-2005>
133.52507019043

> <r_mmod_Electrostatic_Energy-OPLS-2005>
75.4693908691406

> <r_mmod_Solvation_Energy-OPLS-2005>
-910.455871582031

> <b_mmod_Minimization_Converged-OPLS-2005>
0

> <r_mmod_RMS_Derivative-OPLS-2005>
40.5444984436035

$$$$
79
                    3D
 Structure written by MMmdl.
169178  0  0  1  0            999 V2000
  -28.7557  -16.4330   20.9565 C   0  0  0  0  0  0
  -29.9967  -13.9523   19.8234 C   0  0  0  0  0  0
  -29.5003  -13.0334   18.6024 C   0  0  0  0  0  0
  -28.1897  -12.3160   18.9257 C   0  0  0  0  0  0
  -27.4325  -13.2669   19.8498 C   0  0  2  0  0  0
  -28.1761  -13.7356   21.1059 C   0  0  0  0  0  0
  -25.1311  -13.7584   20.5281 C   0  0  0  0  0  0
  -24.0958  -12.9928   20.9282 C   0  0  0  0  0  0
  -24.5788  -11.6498   20.8853 C   0  0  0  0  0  0
  -23.8684  -10.3973   21.0532 C   0  0  0  0  0  0
  -24.3399   -9.3970   21.9268 C   0  0  0  0  0  0
  -23.6144   -8.1997   22.0774 C   0  0  0  0  0  0
  -22.4133   -8.0068   21.3540 C   0  0  0  0  0  0
  -21.9695   -8.9991   20.4642 C   0  0  0  0  0  0
  -22.6944  -10.1872   20.3091 C   0  0  0  0  0  0
  -21.6765   -6.0626   22.5301 C   0  0  0  0  0  0
  -21.3950   -6.5574   23.8222 C   0  0  0  0  0  0
  -21.3641   -5.6749   24.9200 C   0  0  0  0  0  0
  -21.6048   -4.3013   24.7264 C   0  0  0  0  0  0
  -21.8830   -3.8084   23.4395 C   0  0  0  0  0  0
  -21.9169   -4.6877   22.3439 C   0  0  0  0  0  0
  -22.7150  -13.4888   21.2054 C   0  0  0  0  0  0
  -22.1652   -4.2080   21.1014 F   0  0  0  0  0  0
  -21.5644   -3.4510   25.7784 F   0  0  0  0  0  0
  -28.9097  -14.8932   20.6130 N   0  0  0  0  0  0
  -26.1482  -12.8814   20.2649 N   0  0  0  0  0  0
  -25.8603  -11.6033   20.5564 N   0  0  0  0  0  0
  -21.9882  -12.7986   22.0718 N   0  0  0  0  0  0
  -25.2849  -15.1137   20.3296 N   0  0  0  0  0  0
  -30.0432  -16.5464   20.7773 O   0  0  0  0  0  0
  -21.6505   -6.8700   21.4239 O   0  0  0  0  0  0
  -22.2983  -14.5273   20.6923 O   0  0  0  0  0  0
  -24.6993  -31.9571   23.2256 C   0  0  0  0  0  0
  -25.9677  -32.5337   23.8907 C   0  0  1  0  0  0
  -26.7225  -27.4178   20.0491 C   0  0  0  0  0  0
  -25.6340  -33.9027   24.2767 N   0  0  0  0  0  0
  -23.6997  -30.4096   21.6220 C   0  0  2  0  0  0
  -25.0979  -29.4907   19.7613 C   0  0  0  0  0  0
  -23.8656  -29.0814   22.5214 C   0  0  0  0  0  0
  -18.2593  -27.3019   22.9051 C   0  0  0  0  0  0
  -24.1498  -36.7464   23.2571 C   0  0  0  0  0  0
  -26.1603  -30.8756   21.5120 C   0  0  0  0  0  0
  -26.1607  -29.6310   20.6494 C   0  0  0  0  0  0
  -27.1015  -28.5936   20.7379 C   0  0  0  0  0  0
  -26.2338  -27.5762   18.7828 C   0  0  0  0  0  0
  -25.2257  -28.5644   18.6997 C   0  0  0  0  0  0
  -23.9395  -30.3963   20.0805 C   0  0  0  0  0  0
  -25.4095  -36.3352   24.0353 C   0  0  1  0  0  0
  -21.9844  -27.0686   22.4090 C   0  0  2  0  0  0
  -21.5106  -25.6403   21.3097 C   0  0  0  0  0  0
  -19.7467  -25.1644   21.3315 C   0  0  0  0  0  0
  -18.3402  -25.9437   22.0434 C   0  0  0  0  0  0
  -19.5478  -27.8214   23.3794 C   0  0  0  0  0  0
  -19.1077  -29.0625   24.1929 C   0  0  0  0  0  0
  -17.9272  -29.8798   24.1313 C   0  0  0  0  0  0
  -25.9088  -34.9735   23.5249 C   0  0  0  0  0  0
  -16.8241  -29.3605   23.4726 C   0  0  0  0  0  0
  -17.0018  -28.0578   22.9368 C   0  0  0  0  0  0
  -26.4769  -31.6915   25.1238 C   0  0  0  0  0  0
  -25.3759  -31.3806   26.1634 C   0  0  0  0  0  0
  -27.1351  -30.3543   24.7025 C   0  0  0  0  0  0
  -27.6050  -32.4768   25.8270 C   0  0  0  0  0  0
  -27.5607  -37.1931   24.8454 C   0  0  0  0  0  0
  -23.2952  -27.8611   22.5370 N   0  0  0  0  0  0
  -26.4302  -37.4006   23.9433 N   0  0  0  0  0  0
  -24.8387  -31.1846   22.1244 N   0  0  0  0  0  0
  -24.2570  -29.1460   23.6566 O   0  0  0  0  0  0
  -25.6058  -26.8595   20.6458 O   0  0  0  0  0  0
  -26.5434  -34.9061   22.4681 O   0  0  0  0  0  0
  -23.5894  -32.1932   23.7308 O   0  0  0  0  0  0
  -24.8100  -19.3042   21.3067 C   0  0  0  0  0  0
  -21.4906  -27.5250   24.5547 C   0  0  0  0  0  0
  -25.8682  -17.8687   21.2230 C   0  0  0  0  0  0
  -26.7997  -19.5108   21.9189 C   0  0  0  0  0  0
  -21.3697  -29.2456   23.0500 C   0  0  0  0  0  0
  -20.1676  -27.5314   21.2373 C   0  0  0  0  0  0
  -20.7695  -25.7003   23.5291 C   0  0  1  0  0  0
  -24.9401  -20.5969   22.3665 C   0  0  1  0  0  0
  -23.8803  -25.9019   19.0150 C   0  0  0  0  0  0
  -22.2292  -23.6674   23.2897 C   0  0  0  0  0  0
  -22.4412  -28.1339   20.1176 C   0  0  0  0  0  0
  -23.9532  -26.8977   20.2258 C   0  0  2  0  0  0
  -27.4586  -17.7184   21.3692 N   0  0  0  0  0  0
  -21.1906  -28.8318   21.2265 N   0  3  2  0  0  0
  -23.8204  -22.4336   22.5240 N   0  3  0  0  0  0
  -30.7601  -14.6142   19.4104 H   0  0  0  0  0  0
  -30.5609  -13.3479   20.5365 H   0  0  0  0  0  0
  -30.2728  -12.3234   18.3039 H   0  0  0  0  0  0
  -29.3321  -13.6786   17.7385 H   0  0  0  0  0  0
  -28.3930  -11.3779   19.4447 H   0  0  0  0  0  0
  -27.6248  -12.0778   18.0237 H   0  0  0  0  0  0
  -27.2480  -14.1168   19.1881 H   0  0  0  0  0  0
  -28.7528  -12.9442   21.5903 H   0  0  0  0  0  0
  -27.4972  -14.1016   21.8788 H   0  0  0  0  0  0
  -25.2538   -9.5511   22.4833 H   0  0  0  0  0  0
  -23.9870   -7.4369   22.7463 H   0  0  0  0  0  0
  -21.0637   -8.8458   19.8945 H   0  0  0  0  0  0
  -22.3402  -10.9423   19.6214 H   0  0  0  0  0  0
  -21.1912   -7.6080   23.9704 H   0  0  0  0  0  0
  -21.1466   -6.0487   25.9100 H   0  0  0  0  0  0
  -22.0641   -2.7551   23.2913 H   0  0  0  0  0  0
  -22.3482  -11.9603   22.5037 H   0  0  0  0  0  0
  -21.0568  -13.1110   22.3064 H   0  0  0  0  0  0
  -24.4708  -15.7162   20.3661 H   0  0  0  0  0  0
  -26.0417  -15.4965   19.7816 H   0  0  0  0  0  0
  -26.7974  -32.5998   23.1897 H   0  0  0  0  0  0
  -25.0691  -34.0210   25.1046 H   0  0  0  0  0  0
  -22.7768  -30.9632   21.7817 H   0  0  0  0  0  0
  -23.3784  -35.9774   23.3244 H   0  0  0  0  0  0
  -24.3637  -36.9026   22.1983 H   0  0  0  0  0  0
  -23.7179  -37.6675   23.6503 H   0  0  0  0  0  0
  -26.4646  -31.7204   20.8905 H   0  0  0  0  0  0
  -26.9611  -30.7333   22.2230 H   0  0  0  0  0  0
  -27.8606  -28.5892   21.5076 H   0  0  0  0  0  0
  -26.2693  -26.7766   18.0560 H   0  0  0  0  0  0
  -24.5246  -28.5605   17.8766 H   0  0  0  0  0  0
  -24.3077  -31.3873   19.8031 H   0  0  0  0  0  0
  -23.0713  -30.4864   19.4393 H   0  0  0  0  0  0
  -25.1212  -36.2294   25.0841 H   0  0  0  0  0  0
  -22.7187  -26.4338   22.9523 H   0  0  0  0  0  0
  -22.1891  -24.8001   21.3115 H   0  0  0  0  0  0
  -21.5960  -25.8008   20.2565 H   0  0  0  0  0  0
  -19.7287  -24.1535   21.7431 H   0  0  0  0  0  0
  -19.4793  -24.9443   20.2963 H   0  0  0  0  0  0
  -17.6321  -26.0793   21.2246 H   0  0  0  0  0  0
  -17.8569  -25.1904   22.6656 H   0  0  0  0  0  0
  -19.8313  -29.5381   24.8432 H   0  0  0  0  0  0
  -17.8608  -30.8162   24.6681 H   0  0  0  0  0  0
  -15.8758  -29.8782   23.4256 H   0  0  0  0  0  0
  -16.1422  -27.6041   22.4635 H   0  0  0  0  0  0
  -24.6114  -30.7110   25.7702 H   0  0  0  0  0  0
  -24.8728  -32.2874   26.5005 H   0  0  0  0  0  0
  -25.7898  -30.8951   27.0480 H   0  0  0  0  0  0
  -26.4890  -29.6945   24.1398 H   0  0  0  0  0  0
  -27.4550  -29.7864   25.5770 H   0  0  0  0  0  0
  -28.0359  -30.5223   24.1116 H   0  0  0  0  0  0
  -27.2446  -33.3995   26.2836 H   0  0  0  0  0  0
  -28.3979  -32.7494   25.1290 H   0  0  0  0  0  0
  -28.0655  -31.8937   26.6260 H   0  0  0  0  0  0
  -28.2603  -38.0259   24.7617 H   0  0  0  0  0  0
  -28.1137  -36.2809   24.6151 H   0  0  0  0  0  0
  -27.2342  -37.1440   25.8858 H   0  0  0  0  0  0
  -23.8621  -27.3667   23.2132 H   0  0  0  0  0  0
  -26.0236  -38.3102   24.1476 H   0  0  0  0  0  0
  -23.7878  -18.9337   21.3905 H   0  0  0  0  0  0
  -24.8338  -19.7494   20.3096 H   0  0  0  0  0  0
  -20.9473  -27.7128   25.4845 H   0  0  0  0  0  0
  -22.5075  -27.3877   24.9313 H   0  0  0  0  0  0
  -25.6721  -17.5008   20.2196 H   0  0  0  0  0  0
  -25.4533  -17.1463   21.9277 H   0  0  0  0  0  0
  -27.4070  -19.7002   22.8046 H   0  0  0  0  0  0
  -27.2789  -20.1437   21.1689 H   0  0  0  0  0  0
  -21.9461  -30.0667   23.4698 H   0  0  0  0  0  0
  -20.6374  -30.0452   22.9775 H   0  0  0  0  0  0
  -19.2735  -28.1486   21.0924 H   0  0  0  0  0  0
  -20.0245  -27.1610   20.2168 H   0  0  0  0  0  0
  -19.8779  -25.3506   24.0537 H   0  0  0  0  0  0
  -24.7046  -20.2086   23.3580 H   0  0  0  0  0  0
  -23.0237  -25.2370   18.9898 H   0  0  0  0  0  0
  -24.7400  -25.2303   19.0295 H   0  0  0  0  0  0
  -23.8765  -26.4021   18.0488 H   0  0  0  0  0  0
  -21.4397  -22.9706   23.0075 H   0  0  0  0  0  0
  -22.3945  -23.4589   24.3467 H   0  0  0  0  0  0
  -22.5361  -28.6999   19.2105 H   0  0  0  0  0  0
  -21.8138  -27.5611   19.4522 H   0  0  0  0  0  0
  -23.7833  -26.1594   20.9878 H   0  0  0  0  0  0
  -20.7192  -29.5915   20.7530 H   0  0  0  0  0  0
  -23.7397  -22.6412   21.5430 H   0  0  0  0  0  0
  -24.5835  -23.0086   22.8418 H   0  0  0  0  0  0
  1 25  1  0  0  0
  1 30  2  0  0  0
  1 83  1  0  0  0
  2  3  1  0  0  0
  2 25  1  0  0  0
  2 86  1  0  0  0
  2 87  1  0  0  0
  3  4  1  0  0  0
  3 88  1  0  0  0
  3 89  1  0  0  0
  4  5  1  0  0  0
  4 90  1  0  0  0
  4 91  1  0  0  0
  5  6  1  0  0  0
  5 26  1  0  0  0
  5 92  1  0  0  0
  6 25  1  0  0  0
  6 93  1  0  0  0
  6 94  1  0  0  0
  7  8  2  0  0  0
  7 26  1  0  0  0
  7 29  1  0  0  0
  8  9  1  0  0  0
  8 22  1  0  0  0
  9 10  1  0  0  0
  9 27  2  0  0  0
 10 11  2  0  0  0
 10 15  1  0  0  0
 11 12  1  0  0  0
 11 95  1  0  0  0
 12 13  2  0  0  0
 12 96  1  0  0  0
 13 14  1  0  0  0
 13 31  1  0  0  0
 14 15  2  0  0  0
 14 97  1  0  0  0
 15 98  1  0  0  0
 16 17  2  0  0  0
 16 21  1  0  0  0
 16 31  1  0  0  0
 17 18  1  0  0  0
 17 99  1  0  0  0
 18 19  2  0  0  0
 18100  1  0  0  0
 19 20  1  0  0  0
 19 24  1  0  0  0
 20 21  2  0  0  0
 20101  1  0  0  0
 21 23  1  0  0  0
 22 28  1  0  0  0
 22 32  2  0  0  0
 26 27  1  0  0  0
 28102  1  0  0  0
 28103  1  0  0  0
 29104  1  0  0  0
 29105  1  0  0  0
 33 34  1  0  0  0
 33 66  1  0  0  0
 33 70  2  0  0  0
 34 36  1  0  0  0
 34 59  1  0  0  0
 34106  1  0  0  0
 35 44  2  0  0  0
 35 45  1  0  0  0
 35 68  1  0  0  0
 36 56  1  0  0  0
 36107  1  0  0  0
 37 39  1  0  0  0
 37 47  1  0  0  0
 37 66  1  0  0  0
 37108  1  0  0  0
 38 43  2  0  0  0
 38 46  1  0  0  0
 38 47  1  0  0  0
 39 64  1  0  0  0
 39 67  2  0  0  0
 40 52  1  0  0  0
 40 53  2  0  0  0
 40 58  1  0  0  0
 41109  1  0  0  0
 41110  1  0  0  0
 41111  1  0  0  0
 41 48  1  0  0  0
 42 43  1  0  0  0
 42 66  1  0  0  0
 42112  1  0  0  0
 42113  1  0  0  0
 43 44  1  0  0  0
 44114  1  0  0  0
 45 46  2  0  0  0
 45115  1  0  0  0
 46116  1  0  0  0
 47117  1  0  0  0
 47118  1  0  0  0
 48 56  1  0  0  0
 48 65  1  0  0  0
 48119  1  0  0  0
 49 50  1  0  0  0
 49 53  1  0  0  0
 49 64  1  0  0  0
 49120  1  0  0  0
 50 51  1  0  0  0
 50121  1  0  0  0
 50122  1  0  0  0
 51 52  1  0  0  0
 51123  1  0  0  0
 51124  1  0  0  0
 52125  1  0  0  0
 52126  1  0  0  0
 53 54  1  0  0  0
 54 55  2  0  0  0
 54127  1  0  0  0
 55 57  1  0  0  0
 55128  1  0  0  0
 56 69  2  0  0  0
 57 58  2  0  0  0
 57129  1  0  0  0
 58130  1  0  0  0
 59 60  1  0  0  0
 59 61  1  0  0  0
 59 62  1  0  0  0
 60131  1  0  0  0
 60132  1  0  0  0
 60133  1  0  0  0
 61134  1  0  0  0
 61135  1  0  0  0
 61136  1  0  0  0
 62137  1  0  0  0
 62138  1  0  0  0
 62139  1  0  0  0
 63 65  1  0  0  0
 63140  1  0  0  0
 63141  1  0  0  0
 63142  1  0  0  0
 64143  1  0  0  0
 65144  1  0  0  0
 68 82  1  0  0  0
 71 73  1  0  0  0
 71 78  1  0  0  0
 71145  1  0  0  0
 71146  1  0  0  0
 72 75  1  0  0  0
 72 77  1  0  0  0
 72147  1  0  0  0
 72148  1  0  0  0
 73 83  1  0  0  0
 73149  1  0  0  0
 73150  1  0  0  0
 74 78  1  0  0  0
 74 83  1  0  0  0
 74151  1  0  0  0
 74152  1  0  0  0
 75 84  1  0  0  0
 75153  1  0  0  0
 75154  1  0  0  0
 76 77  1  0  0  0
 76 84  1  0  0  0
 76155  1  0  0  0
 76156  1  0  0  0
 77 80  1  0  0  0
 77157  1  0  0  0
 78 85  1  0  0  0
 78158  1  0  0  0
 79159  1  0  0  0
 79160  1  0  0  0
 79161  1  0  0  0
 79 82  1  0  0  0
 80 85  1  0  0  0
 80162  1  0  0  0
 80163  1  0  0  0
 81 82  1  0  0  0
 81164  1  0  0  0
 81165  1  0  0  0
 81 84  1  0  0  0
 82166  1  0  0  0
 84167  1  0  0  0
 85168  1  0  0  0
 85169  1  0  0  0
M  CHG  2  84   1  85   1
M  ISO  4   1 100  68 101  82 101  83 100
M  END
> <chiral flag>
0

> <version>
0

> <s_m_source_file>
/data/baiqing/PycharmProjects/Reinvent-master-3.2/result/LINK_invent/BTK/process_docking_weight1_custom_sum_contain_oxygen_bond_distance_aromatic_linkinvent_7_9_3/rearranged_h_0197.sdf

> <i_m_source_file_index>
79

> <r_mmod_Potential_Energy-OPLS-2005>
23214.919921875

> <r_mmod_Stretch_Energy-OPLS-2005>
11133.380859375

> <r_mmod_Bend_Energy-OPLS-2005>
2727.17749023438

> <r_mmod_Torsional_Energy-OPLS-2005>
746.737915039062

> <r_mmod_Improper_Torsional_Energy-OPLS-2005>
51.8791236877441

> <r_mmod_Van_der_Waal_Energy-OPLS-2005>
3284.20190429688

> <r_mmod_Electrostatic_Energy-OPLS-2005>
47.4181900024414

> <r_mmod_Solvation_Energy-OPLS-2005>
-871.32861328125

> <b_mmod_Minimization_Converged-OPLS-2005>
0

> <r_mmod_RMS_Derivative-OPLS-2005>
2.68698525428772

$$$$
80
                    3D
 Structure written by MMmdl.
172182  0  0  1  0            999 V2000
  -30.7074  -14.4463   20.5058 C   0  0  0  0  0  0
  -30.4059  -12.2776   19.4032 C   0  0  0  0  0  0
  -29.4709  -12.4974   18.1963 C   0  0  0  0  0  0
  -27.9955  -12.3614   18.6146 C   0  0  0  0  0  0
  -27.6531  -13.2005   19.8736 C   0  0  2  0  0  0
  -28.7046  -13.0050   20.9922 C   0  0  0  0  0  0
  -25.2549  -13.8144   20.5693 C   0  0  0  0  0  0
  -24.1808  -13.0430   20.9213 C   0  0  0  0  0  0
  -24.6367  -11.6895   20.8787 C   0  0  0  0  0  0
  -23.9028  -10.4287   21.0436 C   0  0  0  0  0  0
  -24.3608   -9.4214   21.9214 C   0  0  0  0  0  0
  -23.6304   -8.2220   22.0748 C   0  0  0  0  0  0
  -22.4291   -8.0270   21.3533 C   0  0  0  0  0  0
  -21.9926   -9.0237   20.4629 C   0  0  0  0  0  0
  -22.7217  -10.2139   20.3054 C   0  0  0  0  0  0
  -21.6832   -6.0730   22.5298 C   0  0  0  0  0  0
  -21.3983   -6.5637   23.8229 C   0  0  0  0  0  0
  -21.3675   -5.6807   24.9197 C   0  0  0  0  0  0
  -21.6062   -4.3065   24.7246 C   0  0  0  0  0  0
  -21.8824   -3.8148   23.4371 C   0  0  0  0  0  0
  -21.9182   -4.6960   22.3427 C   0  0  0  0  0  0
  -22.7850  -13.5227   21.1916 C   0  0  0  0  0  0
  -22.1639   -4.2149   21.1002 F   0  0  0  0  0  0
  -21.5668   -3.4561   25.7752 F   0  0  0  0  0  0
  -30.0343  -13.2695   20.4195 N   0  0  0  0  0  0
  -26.2990  -12.9294   20.3431 N   0  0  0  0  0  0
  -25.9295  -11.6481   20.5860 N   0  0  0  0  0  0
  -22.0484  -12.8172   22.0443 N   0  0  0  0  0  0
  -25.4278  -15.1853   20.4028 N   0  0  0  0  0  0
  -31.8764  -14.5867   20.1373 O   0  0  0  0  0  0
  -21.6646   -6.8883   21.4251 O   0  0  0  0  0  0
  -22.3552  -14.5570   20.6807 O   0  0  0  0  0  0
  -24.6107  -31.8692   23.2117 C   0  0  0  0  0  0
  -25.9023  -32.4828   23.8408 C   0  0  1  0  0  0
  -27.2439  -27.4673   20.0603 C   0  0  0  0  0  0
  -25.5861  -33.8627   24.2315 N   0  0  0  0  0  0
  -23.3991  -30.4889   21.5532 C   0  0  2  0  0  0
  -24.8466  -28.9559   20.1211 C   0  0  0  0  0  0
  -22.7404  -29.4642   22.5021 C   0  0  0  0  0  0
  -18.0253  -28.1379   22.8492 C   0  0  0  0  0  0
  -24.1462  -36.7301   23.2640 C   0  0  0  0  0  0
  -25.9268  -30.8339   21.3683 C   0  0  0  0  0  0
  -26.0042  -29.4702   20.7171 C   0  0  0  0  0  0
  -27.2045  -28.7251   20.6987 C   0  0  0  0  0  0
  -26.0600  -26.9483   19.4921 C   0  0  0  0  0  0
  -24.8652  -27.6893   19.5137 C   0  0  0  0  0  0
  -23.6055  -29.8153   20.1694 C   0  0  0  0  0  0
  -25.4092  -36.3112   24.0331 C   0  0  1  0  0  0
  -20.5846  -28.3642   23.1337 C   0  0  2  0  0  0
  -20.6730  -26.9381   22.5429 C   0  0  0  0  0  0
  -19.5700  -26.6372   21.5225 C   0  0  0  0  0  0
  -18.1886  -26.7926   22.1640 C   0  0  0  0  0  0
  -19.1510  -28.8836   23.2903 C   0  0  0  0  0  0
  -18.9439  -30.1445   23.8902 C   0  0  0  0  0  0
  -17.6442  -30.6584   24.0573 C   0  0  0  0  0  0
  -25.9030  -34.9484   23.5132 C   0  0  0  0  0  0
  -16.5328  -29.9093   23.6328 C   0  0  0  0  0  0
  -16.7248  -28.6519   23.0339 C   0  0  0  0  0  0
  -26.4455  -31.6606   25.0743 C   0  0  0  0  0  0
  -25.3712  -31.3710   26.1478 C   0  0  0  0  0  0
  -27.0288  -30.3049   24.6130 C   0  0  0  0  0  0
  -27.6007  -32.4348   25.7506 C   0  0  0  0  0  0
  -27.5569  -37.1794   24.8456 C   0  0  0  0  0  0
  -21.4131  -29.3017   22.3771 N   0  0  0  0  0  0
  -26.4271  -37.3804   23.9422 N   0  0  0  0  0  0
  -24.6636  -31.0801   22.1009 N   0  0  0  0  0  0
  -23.4195  -28.8185   23.3056 O   0  0  0  0  0  0
  -28.4214  -26.7583   19.9992 O   0  0  0  0  0  0
  -26.5608  -34.8928   22.4701 O   0  0  0  0  0  0
  -23.5311  -32.1439   23.7508 O   0  0  0  0  0  0
  -31.0131  -21.8077   21.1405 C   0  0  0  0  0  0
  -30.5215  -21.8446   19.8560 C   0  0  0  0  0  0
  -30.4863  -19.7880   20.6125 C   0  0  0  0  0  0
  -31.0892  -23.0486   23.4313 C   0  0  0  0  0  0
  -30.5658  -24.0332   22.4225 C   0  0  0  0  0  0
  -30.7252  -17.5466   19.4521 C   0  0  0  0  0  0
  -30.6137  -17.5607   21.8194 C   0  0  0  0  0  0
  -29.7405  -16.3752   19.3864 C   0  0  0  0  0  0
  -29.7350  -16.2836   21.8140 C   0  0  0  0  0  0
  -31.5178  -22.9366   21.9849 C   0  0  0  0  0  0
  -29.2194  -20.1910   18.4417 C   0  0  0  0  0  0
  -30.5317  -22.9857   18.8752 C   0  0  0  0  0  0
  -29.9887  -25.3917   18.7307 C   0  0  0  0  0  0
  -28.8334  -26.3995   18.6741 C   0  0  0  0  0  0
  -31.0211  -20.4946   21.5983 N   0  0  0  0  0  0
  -30.0351  -20.5612   19.5923 N   0  0  0  0  0  0
  -30.4515  -18.3898   20.6151 N   0  0  0  0  0  0
  -29.8950  -15.5223   20.5726 N   0  0  0  0  0  0
  -29.5567  -24.0475   19.1883 N   0  3  0  0  0  0
  -31.4463  -12.3688   19.0877 H   0  0  0  0  0  0
  -30.2980  -11.2676   19.8025 H   0  0  0  0  0  0
  -29.6968  -11.7864   17.4022 H   0  0  0  0  0  0
  -29.6390  -13.4846   17.7650 H   0  0  0  0  0  0
  -27.7946  -11.3074   18.8021 H   0  0  0  0  0  0
  -27.3431  -12.6454   17.7874 H   0  0  0  0  0  0
  -27.6818  -14.2426   19.5635 H   0  0  0  0  0  0
  -28.6697  -11.9898   21.3905 H   0  0  0  0  0  0
  -28.4910  -13.6691   21.8329 H   0  0  0  0  0  0
  -25.2726   -9.5691   22.4831 H   0  0  0  0  0  0
  -24.0022   -7.4600   22.7428 H   0  0  0  0  0  0
  -21.0882   -8.8705   19.8927 H   0  0  0  0  0  0
  -22.3643  -10.9679   19.6169 H   0  0  0  0  0  0
  -21.1919   -7.6144   23.9729 H   0  0  0  0  0  0
  -21.1514   -6.0534   25.9107 H   0  0  0  0  0  0
  -22.0587   -2.7614   23.2869 H   0  0  0  0  0  0
  -22.4033  -11.9764   22.4770 H   0  0  0  0  0  0
  -21.1121  -13.1201   22.2701 H   0  0  0  0  0  0
  -24.6748  -15.8541   20.5158 H   0  0  0  0  0  0
  -26.3014  -15.6190   20.1283 H   0  0  0  0  0  0
  -26.7083  -32.5527   23.1161 H   0  0  0  0  0  0
  -24.9971  -33.9787   25.0435 H   0  0  0  0  0  0
  -22.6865  -31.3038   21.4120 H   0  0  0  0  0  0
  -23.3742  -35.9608   23.3301 H   0  0  0  0  0  0
  -24.3553  -36.8936   22.2052 H   0  0  0  0  0  0
  -23.7183  -37.6485   23.6680 H   0  0  0  0  0  0
  -26.0421  -31.5999   20.6008 H   0  0  0  0  0  0
  -26.8129  -30.8841   21.9886 H   0  0  0  0  0  0
  -28.1041  -29.1260   21.1453 H   0  0  0  0  0  0
  -26.0499  -25.9705   19.0338 H   0  0  0  0  0  0
  -23.9726  -27.2816   19.0603 H   0  0  0  0  0  0
  -23.7026  -30.5842   19.4024 H   0  0  0  0  0  0
  -22.7339  -29.2221   19.8842 H   0  0  0  0  0  0
  -25.1273  -36.1964   25.0823 H   0  0  0  0  0  0
  -20.9904  -28.3180   24.1473 H   0  0  0  0  0  0
  -20.5624  -26.2246   23.3610 H   0  0  0  0  0  0
  -21.6602  -26.7414   22.1220 H   0  0  0  0  0  0
  -19.6855  -25.6287   21.1248 H   0  0  0  0  0  0
  -19.6661  -27.3189   20.6762 H   0  0  0  0  0  0
  -17.4165  -26.6675   21.4039 H   0  0  0  0  0  0
  -18.0282  -26.0070   22.9029 H   0  0  0  0  0  0
  -19.7922  -30.7259   24.2271 H   0  0  0  0  0  0
  -17.5003  -31.6266   24.5161 H   0  0  0  0  0  0
  -15.5336  -30.3007   23.7650 H   0  0  0  0  0  0
  -15.8638  -28.0848   22.7042 H   0  0  0  0  0  0
  -24.5853  -30.7110   25.7796 H   0  0  0  0  0  0
  -24.8946  -32.2865   26.4985 H   0  0  0  0  0  0
  -25.8043  -30.8815   27.0207 H   0  0  0  0  0  0
  -26.2850  -29.6807   24.1166 H   0  0  0  0  0  0
  -27.4022  -29.7286   25.4605 H   0  0  0  0  0  0
  -27.8695  -30.4355   23.9313 H   0  0  0  0  0  0
  -27.2594  -33.3607   26.2131 H   0  0  0  0  0  0
  -28.3795  -32.6975   25.0344 H   0  0  0  0  0  0
  -28.0700  -31.8460   26.5389 H   0  0  0  0  0  0
  -28.2575  -38.0111   24.7571 H   0  0  0  0  0  0
  -28.1093  -36.2656   24.6223 H   0  0  0  0  0  0
  -27.2302  -37.1346   25.8862 H   0  0  0  0  0  0
  -20.9295  -29.8758   21.6995 H   0  0  0  0  0  0
  -26.0160  -38.2865   24.1494 H   0  0  0  0  0  0
  -30.3906  -22.3023   23.8112 H   0  0  0  0  0  0
  -31.8252  -23.4039   24.1504 H   0  0  0  0  0  0
  -30.9449  -25.0536   22.4878 H   0  0  0  0  0  0
  -29.5141  -23.9442   22.1585 H   0  0  0  0  0  0
  -30.6858  -18.1199   18.5273 H   0  0  0  0  0  0
  -31.7516  -17.1751   19.5167 H   0  0  0  0  0  0
  -31.6660  -17.2820   21.9062 H   0  0  0  0  0  0
  -30.3837  -18.1473   22.7094 H   0  0  0  0  0  0
  -29.9034  -15.8017   18.4718 H   0  0  0  0  0  0
  -28.7198  -16.7559   19.3297 H   0  0  0  0  0  0
  -28.6833  -16.5444   21.9203 H   0  0  0  0  0  0
  -29.9757  -15.6600   22.6769 H   0  0  0  0  0  0
  -32.5276  -23.2386   21.7113 H   0  0  0  0  0  0
  -28.4742  -20.9661   18.2593 H   0  0  0  0  0  0
  -28.6753  -19.2672   18.6380 H   0  0  0  0  0  0
  -29.8318  -20.0781   17.5483 H   0  0  0  0  0  0
  -30.3783  -22.6405   17.8508 H   0  0  0  0  0  0
  -31.5370  -23.4112   18.8814 H   0  0  0  0  0  0
  -30.7849  -25.7650   19.3753 H   0  0  0  0  0  0
  -30.4116  -25.3080   17.7280 H   0  0  0  0  0  0
  -28.0310  -25.9856   18.0664 H   0  0  0  0  0  0
  -29.1705  -27.3032   18.1622 H   0  0  0  0  0  0
  -29.4169  -24.0746   20.1859 H   0  0  0  0  0  0
  -28.6758  -23.7987   18.7631 H   0  0  0  0  0  0
  1 25  1  0  0  0
  1 30  2  0  0  0
  1 88  1  0  0  0
  2  3  1  0  0  0
  2 25  1  0  0  0
  2 90  1  0  0  0
  2 91  1  0  0  0
  3  4  1  0  0  0
  3 92  1  0  0  0
  3 93  1  0  0  0
  4  5  1  0  0  0
  4 94  1  0  0  0
  4 95  1  0  0  0
  5  6  1  0  0  0
  5 26  1  0  0  0
  5 96  1  0  0  0
  6 25  1  0  0  0
  6 97  1  0  0  0
  6 98  1  0  0  0
  7  8  2  0  0  0
  7 26  1  0  0  0
  7 29  1  0  0  0
  8  9  1  0  0  0
  8 22  1  0  0  0
  9 10  1  0  0  0
  9 27  2  0  0  0
 10 11  2  0  0  0
 10 15  1  0  0  0
 11 12  1  0  0  0
 11 99  1  0  0  0
 12 13  2  0  0  0
 12100  1  0  0  0
 13 14  1  0  0  0
 13 31  1  0  0  0
 14 15  2  0  0  0
 14101  1  0  0  0
 15102  1  0  0  0
 16 17  2  0  0  0
 16 21  1  0  0  0
 16 31  1  0  0  0
 17 18  1  0  0  0
 17103  1  0  0  0
 18 19  2  0  0  0
 18104  1  0  0  0
 19 20  1  0  0  0
 19 24  1  0  0  0
 20 21  2  0  0  0
 20105  1  0  0  0
 21 23  1  0  0  0
 22 28  1  0  0  0
 22 32  2  0  0  0
 26 27  1  0  0  0
 28106  1  0  0  0
 28107  1  0  0  0
 29108  1  0  0  0
 29109  1  0  0  0
 33 34  1  0  0  0
 33 66  1  0  0  0
 33 70  2  0  0  0
 34 36  1  0  0  0
 34 59  1  0  0  0
 34110  1  0  0  0
 35 44  2  0  0  0
 35 45  1  0  0  0
 35 68  1  0  0  0
 36 56  1  0  0  0
 36111  1  0  0  0
 37 39  1  0  0  0
 37 47  1  0  0  0
 37 66  1  0  0  0
 37112  1  0  0  0
 38 43  2  0  0  0
 38 46  1  0  0  0
 38 47  1  0  0  0
 39 64  1  0  0  0
 39 67  2  0  0  0
 40 52  1  0  0  0
 40 53  2  0  0  0
 40 58  1  0  0  0
 41113  1  0  0  0
 41114  1  0  0  0
 41115  1  0  0  0
 41 48  1  0  0  0
 42 43  1  0  0  0
 42 66  1  0  0  0
 42116  1  0  0  0
 42117  1  0  0  0
 43 44  1  0  0  0
 44118  1  0  0  0
 45 46  2  0  0  0
 45119  1  0  0  0
 46120  1  0  0  0
 47121  1  0  0  0
 47122  1  0  0  0
 48 56  1  0  0  0
 48 65  1  0  0  0
 48123  1  0  0  0
 49 50  1  0  0  0
 49 53  1  0  0  0
 49 64  1  0  0  0
 49124  1  0  0  0
 50 51  1  0  0  0
 50125  1  0  0  0
 50126  1  0  0  0
 51 52  1  0  0  0
 51127  1  0  0  0
 51128  1  0  0  0
 52129  1  0  0  0
 52130  1  0  0  0
 53 54  1  0  0  0
 54 55  2  0  0  0
 54131  1  0  0  0
 55 57  1  0  0  0
 55132  1  0  0  0
 56 69  2  0  0  0
 57 58  2  0  0  0
 57133  1  0  0  0
 58134  1  0  0  0
 59 60  1  0  0  0
 59 61  1  0  0  0
 59 62  1  0  0  0
 60135  1  0  0  0
 60136  1  0  0  0
 60137  1  0  0  0
 61138  1  0  0  0
 61139  1  0  0  0
 61140  1  0  0  0
 62141  1  0  0  0
 62142  1  0  0  0
 62143  1  0  0  0
 63 65  1  0  0  0
 63144  1  0  0  0
 63145  1  0  0  0
 63146  1  0  0  0
 64147  1  0  0  0
 65148  1  0  0  0
 68 84  1  0  0  0
 71 72  2  0  0  0
 71 85  1  0  0  0
 71 80  1  0  0  0
 72 82  1  0  0  0
 72 86  1  0  0  0
 73 85  2  0  0  0
 73 86  1  0  0  0
 73 87  1  0  0  0
 74 75  1  0  0  0
 74 80  1  0  0  0
 74149  1  0  0  0
 74150  1  0  0  0
 75 80  1  0  0  0
 75151  1  0  0  0
 75152  1  0  0  0
 76 78  1  0  0  0
 76 87  1  0  0  0
 76153  1  0  0  0
 76154  1  0  0  0
 77 79  1  0  0  0
 77 87  1  0  0  0
 77155  1  0  0  0
 77156  1  0  0  0
 78 88  1  0  0  0
 78157  1  0  0  0
 78158  1  0  0  0
 79 88  1  0  0  0
 79159  1  0  0  0
 79160  1  0  0  0
 80161  1  0  0  0
 81 86  1  0  0  0
 81162  1  0  0  0
 81163  1  0  0  0
 81164  1  0  0  0
 82 89  1  0  0  0
 82165  1  0  0  0
 82166  1  0  0  0
 83 84  1  0  0  0
 83 89  1  0  0  0
 83167  1  0  0  0
 83168  1  0  0  0
 84169  1  0  0  0
 84170  1  0  0  0
 89171  1  0  0  0
 89172  1  0  0  0
M  CHG  1  89   1
M  ISO  4   1 100  68 101  84 101  88 100
M  END
> <chiral flag>
0

> <version>
0

> <s_m_source_file>
/data/baiqing/PycharmProjects/Reinvent-master-3.2/result/LINK_invent/BTK/process_docking_weight1_custom_sum_contain_oxygen_bond_distance_aromatic_linkinvent_7_9_3/rearranged_h_0197.sdf

> <i_m_source_file_index>
80

> <r_mmod_Potential_Energy-OPLS-2005>
-89.8439102172852

> <r_mmod_Stretch_Energy-OPLS-2005>
34.7317314147949

> <r_mmod_Bend_Energy-OPLS-2005>
107.082786560059

> <r_mmod_Torsional_Energy-OPLS-2005>
404.053588867188

> <r_mmod_Improper_Torsional_Energy-OPLS-2005>
17.2571430206299

> <r_mmod_Van_der_Waal_Energy-OPLS-2005>
129.870132446289

> <r_mmod_Electrostatic_Energy-OPLS-2005>
-337.752380371094

> <r_mmod_Solvation_Energy-OPLS-2005>
-458.787261962891

> <b_mmod_Minimization_Converged-OPLS-2005>
0

> <r_mmod_RMS_Derivative-OPLS-2005>
4.43801736831665

$$$$
81
                    3D
 Structure written by MMmdl.
172181  0  0  1  0            999 V2000
  -30.7139  -14.4532   20.5273 C   0  0  0  0  0  0
  -30.4423  -12.2886   19.4082 C   0  0  0  0  0  0
  -29.4887  -12.4139   18.1994 C   0  0  0  0  0  0
  -28.0088  -12.2874   18.6212 C   0  0  0  0  0  0
  -27.6527  -13.1528   19.8553 C   0  0  2  0  0  0
  -28.7086  -13.0032   20.9771 C   0  0  0  0  0  0
  -25.2628  -13.8022   20.5653 C   0  0  0  0  0  0
  -24.1830  -13.0383   20.9195 C   0  0  0  0  0  0
  -24.6316  -11.6837   20.8752 C   0  0  0  0  0  0
  -23.8977  -10.4253   21.0404 C   0  0  0  0  0  0
  -24.3561   -9.4181   21.9171 C   0  0  0  0  0  0
  -23.6273   -8.2202   22.0733 C   0  0  0  0  0  0
  -22.4259   -8.0230   21.3532 C   0  0  0  0  0  0
  -21.9865   -9.0187   20.4638 C   0  0  0  0  0  0
  -22.7162  -10.2076   20.3049 C   0  0  0  0  0  0
  -21.6829   -6.0712   22.5271 C   0  0  0  0  0  0
  -21.3980   -6.5623   23.8206 C   0  0  0  0  0  0
  -21.3654   -5.6781   24.9178 C   0  0  0  0  0  0
  -21.6062   -4.3051   24.7224 C   0  0  0  0  0  0
  -21.8827   -3.8132   23.4350 C   0  0  0  0  0  0
  -21.9192   -4.6944   22.3405 C   0  0  0  0  0  0
  -22.7870  -13.5229   21.1868 C   0  0  0  0  0  0
  -22.1660   -4.2134   21.0984 F   0  0  0  0  0  0
  -21.5656   -3.4532   25.7734 F   0  0  0  0  0  0
  -30.0370  -13.2835   20.4077 N   0  0  0  0  0  0
  -26.2983  -12.9066   20.3324 N   0  0  0  0  0  0
  -25.9224  -11.6308   20.5793 N   0  0  0  0  0  0
  -22.0489  -12.8255   22.0427 N   0  0  0  0  0  0
  -25.4475  -15.1731   20.4043 N   0  0  0  0  0  0
  -31.9054  -14.5881   20.2423 O   0  0  0  0  0  0
  -21.6631   -6.8832   21.4223 O   0  0  0  0  0  0
  -22.3577  -14.5534   20.6695 O   0  0  0  0  0  0
  -24.6028  -31.8755   23.2176 C   0  0  0  0  0  0
  -25.8972  -32.4871   23.8430 C   0  0  1  0  0  0
  -27.2169  -27.4918   20.0836 C   0  0  0  0  0  0
  -25.5862  -33.8658   24.2376 N   0  0  0  0  0  0
  -23.3853  -30.5006   21.5597 C   0  0  2  0  0  0
  -24.8302  -28.9750   20.1176 C   0  0  0  0  0  0
  -22.7347  -29.4664   22.5041 C   0  0  0  0  0  0
  -18.0244  -28.1351   22.8521 C   0  0  0  0  0  0
  -24.1483  -36.7320   23.2642 C   0  0  0  0  0  0
  -25.9089  -30.8576   21.3632 C   0  0  0  0  0  0
  -25.9874  -29.4962   20.7115 C   0  0  0  0  0  0
  -27.1885  -28.7595   20.6974 C   0  0  0  0  0  0
  -26.0443  -26.9584   19.5160 C   0  0  0  0  0  0
  -24.8500  -27.7020   19.5215 C   0  0  0  0  0  0
  -23.5902  -29.8395   20.1709 C   0  0  0  0  0  0
  -25.4112  -36.3151   24.0354 C   0  0  1  0  0  0
  -20.5818  -28.3603   23.1367 C   0  0  2  0  0  0
  -20.6723  -26.9350   22.5436 C   0  0  0  0  0  0
  -19.5707  -26.6354   21.5226 C   0  0  0  0  0  0
  -18.1881  -26.7904   22.1626 C   0  0  0  0  0  0
  -19.1494  -28.8798   23.2937 C   0  0  0  0  0  0
  -18.9431  -30.1413   23.8936 C   0  0  0  0  0  0
  -17.6435  -30.6564   24.0550 C   0  0  0  0  0  0
  -25.9031  -34.9502   23.5171 C   0  0  0  0  0  0
  -16.5318  -29.9065   23.6320 C   0  0  0  0  0  0
  -16.7233  -28.6467   23.0363 C   0  0  0  0  0  0
  -26.4449  -31.6605   25.0707 C   0  0  0  0  0  0
  -25.3723  -31.3688   26.1453 C   0  0  0  0  0  0
  -27.0258  -30.3058   24.6013 C   0  0  0  0  0  0
  -27.6034  -32.4302   25.7473 C   0  0  0  0  0  0
  -27.5609  -37.1817   24.8470 C   0  0  0  0  0  0
  -21.4073  -29.2986   22.3797 N   0  0  0  0  0  0
  -26.4322  -37.3815   23.9408 N   0  0  0  0  0  0
  -24.6512  -31.0888   22.1077 N   0  0  0  0  0  0
  -23.4168  -28.8215   23.3037 O   0  0  0  0  0  0
  -28.3670  -26.7543   20.0366 O   0  0  0  0  0  0
  -26.5593  -34.8934   22.4732 O   0  0  0  0  0  0
  -23.5252  -32.1490   23.7624 O   0  0  0  0  0  0
  -29.8699  -17.4466   19.2117 C   0  0  0  0  0  0
  -29.1368  -21.9254   18.5630 C   0  0  0  0  0  0
  -29.3763  -16.0353   19.3728 C   0  0  0  0  0  0
  -30.3194  -16.7401   21.4129 C   0  0  0  0  0  0
  -29.3543  -20.4738   18.9809 C   0  0  0  0  0  0
  -30.4083  -21.7806   20.6199 C   0  0  0  0  0  0
  -29.7682  -17.9573   20.6414 C   0  0  1  0  0  0
  -29.6270  -22.7762   19.7452 C   0  0  1  0  0  0
  -31.0086  -24.8026   20.4881 C   0  0  0  0  0  0
  -30.4832  -19.3016   20.9133 C   0  0  0  0  0  0
  -29.7523  -26.2680   18.1473 C   0  0  0  0  0  0
  -29.4068  -27.3059   19.2299 C   0  0  0  0  0  0
  -30.3589  -24.0643   19.2977 C   0  0  2  0  0  0
  -29.9215  -15.5450   20.6430 N   0  0  0  0  0  0
  -29.7302  -20.4849   20.4100 N   0  3  2  0  0  0
  -29.3712  -24.8991   18.5650 N   0  3  0  0  0  0
  -31.4722  -12.4304   19.0757 H   0  0  0  0  0  0
  -30.4035  -11.2895   19.8430 H   0  0  0  0  0  0
  -29.7287  -11.6341   17.4743 H   0  0  0  0  0  0
  -29.6524  -13.3584   17.6826 H   0  0  0  0  0  0
  -27.8210  -11.2388   18.8482 H   0  0  0  0  0  0
  -27.3574  -12.5364   17.7809 H   0  0  0  0  0  0
  -27.6504  -14.1649   19.4898 H   0  0  0  0  0  0
  -28.6929  -11.9921   21.3885 H   0  0  0  0  0  0
  -28.4822  -13.6702   21.8109 H   0  0  0  0  0  0
  -25.2695   -9.5697   22.4748 H   0  0  0  0  0  0
  -23.9998   -7.4612   22.7457 H   0  0  0  0  0  0
  -21.0789   -8.8705   19.8963 H   0  0  0  0  0  0
  -22.3610  -10.9619   19.6174 H   0  0  0  0  0  0
  -21.1926   -7.6125   23.9704 H   0  0  0  0  0  0
  -21.1475   -6.0508   25.9091 H   0  0  0  0  0  0
  -22.0615   -2.7595   23.2849 H   0  0  0  0  0  0
  -22.4031  -11.9877   22.4809 H   0  0  0  0  0  0
  -21.1083  -13.1279   22.2558 H   0  0  0  0  0  0
  -24.6959  -15.8434   20.5250 H   0  0  0  0  0  0
  -26.3244  -15.6020   20.1364 H   0  0  0  0  0  0
  -26.7026  -32.5629   23.1182 H   0  0  0  0  0  0
  -24.9973  -33.9837   25.0496 H   0  0  0  0  0  0
  -22.6689  -31.3149   21.4318 H   0  0  0  0  0  0
  -23.3773  -35.9625   23.3326 H   0  0  0  0  0  0
  -24.3573  -36.8902   22.2052 H   0  0  0  0  0  0
  -23.7197  -37.6521   23.6623 H   0  0  0  0  0  0
  -26.0077  -31.6280   20.5985 H   0  0  0  0  0  0
  -26.8006  -30.9137   21.9734 H   0  0  0  0  0  0
  -28.0812  -29.1607   21.1579 H   0  0  0  0  0  0
  -26.0488  -25.9801   19.0582 H   0  0  0  0  0  0
  -23.9540  -27.2956   19.0725 H   0  0  0  0  0  0
  -23.6953  -30.6188   19.4149 H   0  0  0  0  0  0
  -22.7121  -29.2618   19.8765 H   0  0  0  0  0  0
  -25.1296  -36.2046   25.0856 H   0  0  0  0  0  0
  -20.9919  -28.3130   24.1485 H   0  0  0  0  0  0
  -20.5599  -26.2206   23.3604 H   0  0  0  0  0  0
  -21.6596  -26.7389   22.1241 H   0  0  0  0  0  0
  -19.6837  -25.6275   21.1226 H   0  0  0  0  0  0
  -19.6639  -27.3188   20.6783 H   0  0  0  0  0  0
  -17.4161  -26.6692   21.4010 H   0  0  0  0  0  0
  -18.0258  -26.0008   22.8988 H   0  0  0  0  0  0
  -19.7907  -30.7206   24.2322 H   0  0  0  0  0  0
  -17.4989  -31.6259   24.5126 H   0  0  0  0  0  0
  -15.5318  -30.2977   23.7618 H   0  0  0  0  0  0
  -15.8632  -28.0775   22.7081 H   0  0  0  0  0  0
  -24.5873  -30.7077   25.7769 H   0  0  0  0  0  0
  -24.8931  -32.2826   26.4967 H   0  0  0  0  0  0
  -25.8056  -30.8789   27.0165 H   0  0  0  0  0  0
  -26.2756  -29.6831   24.1114 H   0  0  0  0  0  0
  -27.4104  -29.7300   25.4436 H   0  0  0  0  0  0
  -27.8562  -30.4406   23.9077 H   0  0  0  0  0  0
  -27.2648  -33.3556   26.2139 H   0  0  0  0  0  0
  -28.3802  -32.6925   25.0282 H   0  0  0  0  0  0
  -28.0734  -31.8359   26.5314 H   0  0  0  0  0  0
  -28.2647  -38.0109   24.7558 H   0  0  0  0  0  0
  -28.1107  -36.2648   24.6276 H   0  0  0  0  0  0
  -27.2317  -37.1425   25.8872 H   0  0  0  0  0  0
  -20.9204  -29.8743   21.7083 H   0  0  0  0  0  0
  -26.0245  -38.2912   24.1394 H   0  0  0  0  0  0
  -29.2485  -17.9483   18.4763 H   0  0  0  0  0  0
  -30.9023  -17.4605   18.8580 H   0  0  0  0  0  0
  -28.0836  -22.1147   18.3551 H   0  0  0  0  0  0
  -29.6936  -22.1212   17.6444 H   0  0  0  0  0  0
  -29.6398  -15.4320   18.5024 H   0  0  0  0  0  0
  -28.2913  -16.0889   19.4354 H   0  0  0  0  0  0
  -29.9362  -16.7001   22.4359 H   0  0  0  0  0  0
  -31.4072  -16.8100   21.4791 H   0  0  0  0  0  0
  -30.1743  -20.0645   18.3897 H   0  0  0  0  0  0
  -28.4579  -19.8815   18.8048 H   0  0  0  0  0  0
  -30.3977  -22.0584   21.6750 H   0  0  0  0  0  0
  -31.4491  -21.7166   20.2938 H   0  0  0  0  0  0
  -28.7109  -18.0594   20.9029 H   0  0  0  0  0  0
  -28.7545  -23.0631   20.3345 H   0  0  0  0  0  0
  -31.7228  -24.1672   21.0150 H   0  0  0  0  0  0
  -30.2716  -25.1401   21.2157 H   0  0  0  0  0  0
  -31.5798  -25.6691   20.1553 H   0  0  0  0  0  0
  -31.4898  -19.2816   20.4963 H   0  0  0  0  0  0
  -30.6014  -19.4215   21.9920 H   0  0  0  0  0  0
  -30.7918  -26.3322   17.8228 H   0  0  0  0  0  0
  -29.1470  -26.4867   17.2673 H   0  0  0  0  0  0
  -29.1332  -28.2553   18.7628 H   0  0  0  0  0  0
  -30.2677  -27.5030   19.8672 H   0  0  0  0  0  0
  -31.1584  -23.7993   18.6028 H   0  0  0  0  0  0
  -28.8652  -20.5245   20.9320 H   0  0  0  0  0  0
  -29.0881  -24.3930   17.7392 H   0  0  0  0  0  0
  -28.5498  -25.0137   19.1421 H   0  0  0  0  0  0
  1 25  1  0  0  0
  1 30  2  0  0  0
  1 84  1  0  0  0
  2  3  1  0  0  0
  2 25  1  0  0  0
  2 87  1  0  0  0
  2 88  1  0  0  0
  3  4  1  0  0  0
  3 89  1  0  0  0
  3 90  1  0  0  0
  4  5  1  0  0  0
  4 91  1  0  0  0
  4 92  1  0  0  0
  5  6  1  0  0  0
  5 26  1  0  0  0
  5 93  1  0  0  0
  6 25  1  0  0  0
  6 94  1  0  0  0
  6 95  1  0  0  0
  7  8  2  0  0  0
  7 26  1  0  0  0
  7 29  1  0  0  0
  8  9  1  0  0  0
  8 22  1  0  0  0
  9 10  1  0  0  0
  9 27  2  0  0  0
 10 11  2  0  0  0
 10 15  1  0  0  0
 11 12  1  0  0  0
 11 96  1  0  0  0
 12 13  2  0  0  0
 12 97  1  0  0  0
 13 14  1  0  0  0
 13 31  1  0  0  0
 14 15  2  0  0  0
 14 98  1  0  0  0
 15 99  1  0  0  0
 16 17  2  0  0  0
 16 21  1  0  0  0
 16 31  1  0  0  0
 17 18  1  0  0  0
 17100  1  0  0  0
 18 19  2  0  0  0
 18101  1  0  0  0
 19 20  1  0  0  0
 19 24  1  0  0  0
 20 21  2  0  0  0
 20102  1  0  0  0
 21 23  1  0  0  0
 22 28  1  0  0  0
 22 32  2  0  0  0
 26 27  1  0  0  0
 28103  1  0  0  0
 28104  1  0  0  0
 29105  1  0  0  0
 29106  1  0  0  0
 33 34  1  0  0  0
 33 66  1  0  0  0
 33 70  2  0  0  0
 34 36  1  0  0  0
 34 59  1  0  0  0
 34107  1  0  0  0
 35 44  2  0  0  0
 35 45  1  0  0  0
 35 68  1  0  0  0
 36 56  1  0  0  0
 36108  1  0  0  0
 37 39  1  0  0  0
 37 47  1  0  0  0
 37 66  1  0  0  0
 37109  1  0  0  0
 38 43  2  0  0  0
 38 46  1  0  0  0
 38 47  1  0  0  0
 39 64  1  0  0  0
 39 67  2  0  0  0
 40 52  1  0  0  0
 40 53  2  0  0  0
 40 58  1  0  0  0
 41110  1  0  0  0
 41111  1  0  0  0
 41112  1  0  0  0
 41 48  1  0  0  0
 42 43  1  0  0  0
 42 66  1  0  0  0
 42113  1  0  0  0
 42114  1  0  0  0
 43 44  1  0  0  0
 44115  1  0  0  0
 45 46  2  0  0  0
 45116  1  0  0  0
 46117  1  0  0  0
 47118  1  0  0  0
 47119  1  0  0  0
 48 56  1  0  0  0
 48 65  1  0  0  0
 48120  1  0  0  0
 49 50  1  0  0  0
 49 53  1  0  0  0
 49 64  1  0  0  0
 49121  1  0  0  0
 50 51  1  0  0  0
 50122  1  0  0  0
 50123  1  0  0  0
 51 52  1  0  0  0
 51124  1  0  0  0
 51125  1  0  0  0
 52126  1  0  0  0
 52127  1  0  0  0
 53 54  1  0  0  0
 54 55  2  0  0  0
 54128  1  0  0  0
 55 57  1  0  0  0
 55129  1  0  0  0
 56 69  2  0  0  0
 57 58  2  0  0  0
 57130  1  0  0  0
 58131  1  0  0  0
 59 60  1  0  0  0
 59 61  1  0  0  0
 59 62  1  0  0  0
 60132  1  0  0  0
 60133  1  0  0  0
 60134  1  0  0  0
 61135  1  0  0  0
 61136  1  0  0  0
 61137  1  0  0  0
 62138  1  0  0  0
 62139  1  0  0  0
 62140  1  0  0  0
 63 65  1  0  0  0
 63141  1  0  0  0
 63142  1  0  0  0
 63143  1  0  0  0
 64144  1  0  0  0
 65145  1  0  0  0
 68 82  1  0  0  0
 71 73  1  0  0  0
 71 77  1  0  0  0
 71146  1  0  0  0
 71147  1  0  0  0
 72 75  1  0  0  0
 72148  1  0  0  0
 72149  1  0  0  0
 72 78  1  0  0  0
 73 84  1  0  0  0
 73150  1  0  0  0
 73151  1  0  0  0
 74 77  1  0  0  0
 74 84  1  0  0  0
 74152  1  0  0  0
 74153  1  0  0  0
 75 85  1  0  0  0
 75154  1  0  0  0
 75155  1  0  0  0
 76 78  1  0  0  0
 76 85  1  0  0  0
 76156  1  0  0  0
 76157  1  0  0  0
 77 80  1  0  0  0
 77158  1  0  0  0
 78 83  1  0  0  0
 78159  1  0  0  0
 79160  1  0  0  0
 79161  1  0  0  0
 79162  1  0  0  0
 79 83  1  0  0  0
 80163  1  0  0  0
 80164  1  0  0  0
 80 85  1  0  0  0
 81 82  1  0  0  0
 81 86  1  0  0  0
 81165  1  0  0  0
 81166  1  0  0  0
 82167  1  0  0  0
 82168  1  0  0  0
 83 86  1  0  0  0
 83169  1  0  0  0
 85170  1  0  0  0
 86171  1  0  0  0
 86172  1  0  0  0
M  CHG  2  85   1  86   1
M  ISO  4   1 100  68 101  82 101  84 100
M  END
> <chiral flag>
0

> <version>
0

> <s_m_source_file>
/data/baiqing/PycharmProjects/Reinvent-master-3.2/result/LINK_invent/BTK/process_docking_weight1_custom_sum_contain_oxygen_bond_distance_aromatic_linkinvent_7_9_3/rearranged_h_0197.sdf

> <i_m_source_file_index>
81

> <r_mmod_Potential_Energy-OPLS-2005>
92.97021484375

> <r_mmod_Stretch_Energy-OPLS-2005>
33.2945442199707

> <r_mmod_Bend_Energy-OPLS-2005>
160.669952392578

> <r_mmod_Torsional_Energy-OPLS-2005>
461.393096923828

> <r_mmod_Improper_Torsional_Energy-OPLS-2005>
13.0589380264282

> <r_mmod_Van_der_Waal_Energy-OPLS-2005>
144.844299316406

> <r_mmod_Electrostatic_Energy-OPLS-2005>
165.581558227539

> <r_mmod_Solvation_Energy-OPLS-2005>
-905.530639648438

> <b_mmod_Minimization_Converged-OPLS-2005>
0

> <r_mmod_RMS_Derivative-OPLS-2005>
3.88579821586609

$$$$
82
                    3D
 Structure written by MMmdl.
160169  0  0  1  0            999 V2000
  -29.3981  -16.1400   20.3351 C   0  0  0  0  0  0
  -30.2311  -13.5437   19.6008 C   0  0  0  0  0  0
  -29.5210  -12.8088   18.4108 C   0  0  0  0  0  0
  -28.1445  -12.2787   18.8308 C   0  0  0  0  0  0
  -27.4892  -13.2846   19.7926 C   0  0  2  0  0  0
  -28.3754  -13.7310   20.9532 C   0  0  0  0  0  0
  -25.1835  -13.8109   20.5666 C   0  0  0  0  0  0
  -24.1346  -13.0287   20.9356 C   0  0  0  0  0  0
  -24.6067  -11.6795   20.8825 C   0  0  0  0  0  0
  -23.8882  -10.4174   21.0459 C   0  0  0  0  0  0
  -24.3513   -9.4115   21.9207 C   0  0  0  0  0  0
  -23.6230   -8.2136   22.0744 C   0  0  0  0  0  0
  -22.4209   -8.0184   21.3535 C   0  0  0  0  0  0
  -21.9812   -9.0130   20.4632 C   0  0  0  0  0  0
  -22.7094  -10.2021   20.3069 C   0  0  0  0  0  0
  -21.6814   -6.0681   22.5283 C   0  0  0  0  0  0
  -21.3985   -6.5603   23.8214 C   0  0  0  0  0  0
  -21.3665   -5.6771   24.9191 C   0  0  0  0  0  0
  -21.6049   -4.3030   24.7240 C   0  0  0  0  0  0
  -21.8829   -3.8108   23.4362 C   0  0  0  0  0  0
  -21.9179   -4.6918   22.3413 C   0  0  0  0  0  0
  -22.7436  -13.5083   21.2038 C   0  0  0  0  0  0
  -22.1648   -4.2108   21.0990 F   0  0  0  0  0  0
  -21.5650   -3.4520   25.7757 F   0  0  0  0  0  0
  -29.3211  -14.6275   20.2984 N   0  0  0  0  0  0
  -26.2018  -12.9277   20.2861 N   0  0  0  0  0  0
  -25.8911  -11.6417   20.5550 N   0  0  0  0  0  0
  -22.0117  -12.8082   22.0612 N   0  0  0  0  0  0
  -25.3509  -15.1861   20.4019 N   0  0  0  0  0  0
  -30.6592  -16.2394   20.1636 O   0  0  0  0  0  0
  -21.6584   -6.8789   21.4232 O   0  0  0  0  0  0
  -22.3183  -14.5411   20.6862 O   0  0  0  0  0  0
  -24.7359  -31.6795   22.6929 C   0  0  0  0  0  0
  -25.9353  -32.3665   23.5680 C   0  0  1  0  0  0
  -26.3916  -28.1867   21.6508 C   0  0  0  0  0  0
  -25.5383  -33.7414   24.0058 N   0  0  0  0  0  0
  -24.1751  -29.2411   20.7786 C   0  0  2  0  0  0
  -25.5926  -28.9495   19.3525 C   0  0  0  0  0  0
  -23.7922  -27.3615   22.4284 C   0  0  0  0  0  0
  -18.1833  -28.0842   22.8435 C   0  0  0  0  0  0
  -24.1449  -36.6881   23.2745 C   0  0  0  0  0  0
  -26.0245  -31.0932   20.6954 C   0  0  0  0  0  0
  -26.4918  -29.7555   20.1447 C   0  0  0  0  0  0
  -27.2914  -29.0441   21.0297 C   0  0  0  0  0  0
  -26.1410  -27.1437   20.6468 C   0  0  0  0  0  0
  -25.6462  -27.5533   19.4066 C   0  0  0  0  0  0
  -24.2325  -29.3571   19.2996 C   0  0  0  0  0  0
  -25.4181  -36.2379   24.0116 C   0  0  1  0  0  0
  -20.7960  -27.5521   23.1643 C   0  0  2  0  0  0
  -20.3762  -26.2537   22.5359 C   0  0  0  0  0  0
  -19.2794  -26.3317   21.4895 C   0  0  0  0  0  0
  -18.0330  -26.7275   22.2046 C   0  0  0  0  0  0
  -19.4853  -28.6144   23.2284 C   0  0  0  0  0  0
  -19.3499  -29.9168   23.8291 C   0  0  0  0  0  0
  -18.0842  -30.5731   24.0305 C   0  0  0  0  0  0
  -25.9187  -34.8911   23.4271 C   0  0  0  0  0  0
  -16.8657  -29.9777   23.6557 C   0  0  0  0  0  0
  -16.9338  -28.7256   23.0494 C   0  0  0  0  0  0
  -26.4221  -31.6298   24.9230 C   0  0  0  0  0  0
  -25.3151  -31.3768   25.9807 C   0  0  0  0  0  0
  -27.0777  -30.2688   24.6250 C   0  0  0  0  0  0
  -27.5324  -32.4566   25.6446 C   0  0  0  0  0  0
  -27.5505  -37.1467   24.8435 C   0  0  0  0  0  0
  -22.4049  -27.2998   23.1344 N   0  0  0  0  0  0
  -26.4172  -37.3318   23.9408 N   0  0  0  0  0  0
  -24.7738  -30.8781   21.4057 N   0  0  0  0  0  0
  -24.3089  -27.2384   23.5286 O   0  0  0  0  0  0
  -25.3673  -29.0113   22.5827 O   0  0  0  0  0  0
  -26.6356  -34.9015   22.4268 O   0  0  0  0  0  0
  -23.6809  -31.9790   23.2992 O   0  0  0  0  0  0
  -23.0043  -23.8856   18.6915 C   0  0  0  0  0  0
  -22.5819  -25.1948   19.1350 C   0  0  0  0  0  0
  -23.0938  -25.8332   20.3153 C   0  0  0  0  0  0
  -24.7107  -23.1620   20.2529 C   0  0  0  0  0  0
  -26.7482  -20.5778   21.3354 C   0  0  0  0  0  0
  -26.1923  -20.2169   19.5623 C   0  0  0  0  0  0
  -27.5772  -19.2980   20.3091 C   0  0  0  0  0  0
  -21.4835  -25.8358   18.2661 C   0  0  0  0  0  0
  -22.2537  -27.8057   20.7472 C   0  0  0  0  0  0
  -23.0369  -29.5045   22.6013 C   0  0  0  0  0  0
  -23.9453  -23.0005   19.1706 N   0  0  0  0  0  0
  -24.1843  -24.6343   20.7746 N   0  0  0  0  0  0
  -25.9057  -21.6407   20.3727 N   0  0  0  0  0  0
  -28.2292  -17.3967   20.4196 N   0  0  0  0  0  0
  -21.9827  -26.5843   17.0908 N   0  3  0  0  0  0
  -31.1284  -14.0247   19.2135 H   0  0  0  0  0  0
  -30.6127  -12.8197   20.3227 H   0  0  0  0  0  0
  -30.1458  -12.0063   18.0170 H   0  0  0  0  0  0
  -29.3916  -13.5220   17.5979 H   0  0  0  0  0  0
  -28.2825  -11.3233   19.3379 H   0  0  0  0  0  0
  -27.5167  -12.0830   17.9622 H   0  0  0  0  0  0
  -27.3030  -14.1484   19.1511 H   0  0  0  0  0  0
  -28.8136  -12.8934   21.4991 H   0  0  0  0  0  0
  -27.8092  -14.3102   21.6847 H   0  0  0  0  0  0
  -25.2656   -9.5625   22.4775 H   0  0  0  0  0  0
  -23.9961   -7.4517   22.7433 H   0  0  0  0  0  0
  -21.0762   -8.8612   19.8921 H   0  0  0  0  0  0
  -22.3538  -10.9565   19.6184 H   0  0  0  0  0  0
  -21.1950   -7.6105   23.9711 H   0  0  0  0  0  0
  -21.1499   -6.0497   25.9099 H   0  0  0  0  0  0
  -22.0604   -2.7565   23.2870 H   0  0  0  0  0  0
  -22.3772  -11.9790   22.5048 H   0  0  0  0  0  0
  -21.0731  -13.1091   22.2836 H   0  0  0  0  0  0
  -24.5192  -15.7676   20.4049 H   0  0  0  0  0  0
  -26.0591  -15.5252   19.7656 H   0  0  0  0  0  0
  -26.8298  -32.4911   22.9725 H   0  0  0  0  0  0
  -24.8829  -33.7885   24.7719 H   0  0  0  0  0  0
  -23.2632  -29.7845   20.4717 H   0  0  0  0  0  0
  -23.3702  -35.9205   23.3077 H   0  0  0  0  0  0
  -24.3401  -36.9038   22.2231 H   0  0  0  0  0  0
  -23.7250  -37.5865   23.7280 H   0  0  0  0  0  0
  -25.8334  -31.7573   19.8541 H   0  0  0  0  0  0
  -26.8475  -31.5583   21.2237 H   0  0  0  0  0  0
  -27.8464  -29.6826   21.6965 H   0  0  0  0  0  0
  -26.0665  -26.1198   20.9607 H   0  0  0  0  0  0
  -25.0954  -26.8771   18.7671 H   0  0  0  0  0  0
  -24.1667  -30.3678   18.8772 H   0  0  0  0  0  0
  -23.6715  -28.6850   18.6524 H   0  0  0  0  0  0
  -25.1518  -36.0747   25.0585 H   0  0  0  0  0  0
  -20.7447  -27.3594   24.2378 H   0  0  0  0  0  0
  -20.0112  -25.6197   23.3454 H   0  0  0  0  0  0
  -21.1838  -25.6517   22.1247 H   0  0  0  0  0  0
  -19.1407  -25.3484   21.0422 H   0  0  0  0  0  0
  -19.3973  -27.0131   20.6572 H   0  0  0  0  0  0
  -17.1982  -26.7231   21.5011 H   0  0  0  0  0  0
  -17.7749  -26.0026   22.9784 H   0  0  0  0  0  0
  -20.2441  -30.4055   24.1904 H   0  0  0  0  0  0
  -18.0723  -31.5427   24.5112 H   0  0  0  0  0  0
  -15.9177  -30.4706   23.8278 H   0  0  0  0  0  0
  -16.0125  -28.2478   22.7448 H   0  0  0  0  0  0
  -24.5401  -30.7170   25.5866 H   0  0  0  0  0  0
  -24.8250  -32.2976   26.3030 H   0  0  0  0  0  0
  -25.7210  -30.8987   26.8750 H   0  0  0  0  0  0
  -26.3504  -29.4606   24.6108 H   0  0  0  0  0  0
  -27.7868  -29.9737   25.4012 H   0  0  0  0  0  0
  -27.6302  -30.2791   23.6893 H   0  0  0  0  0  0
  -27.1671  -33.4148   26.0160 H   0  0  0  0  0  0
  -28.3674  -32.6643   24.9741 H   0  0  0  0  0  0
  -27.9397  -31.9352   26.5143 H   0  0  0  0  0  0
  -28.2403  -37.9869   24.7589 H   0  0  0  0  0  0
  -28.1121  -36.2403   24.6133 H   0  0  0  0  0  0
  -27.2240  -37.0919   25.8831 H   0  0  0  0  0  0
  -22.6428  -26.8648   24.0155 H   0  0  0  0  0  0
  -25.9824  -38.2275   24.1453 H   0  0  0  0  0  0
  -22.5348  -23.4936   17.7987 H   0  0  0  0  0  0
  -27.4833  -21.1295   21.9257 H   0  0  0  0  0  0
  -26.0590  -20.1119   22.0448 H   0  0  0  0  0  0
  -25.2840  -19.6101   19.5742 H   0  0  0  0  0  0
  -26.3985  -20.4340   18.5136 H   0  0  0  0  0  0
  -28.4505  -19.8259   19.9254 H   0  0  0  0  0  0
  -20.8159  -26.4597   18.8568 H   0  0  0  0  0  0
  -20.8365  -25.0441   17.8790 H   0  0  0  0  0  0
  -21.2005  -27.7504   20.8147 H   0  0  0  0  0  0
  -22.1003  -28.2561   19.7746 H   0  0  0  0  0  0
  -22.5302  -30.4080   22.2516 H   0  0  0  0  0  0
  -22.6641  -29.5018   23.6349 H   0  0  0  0  0  0
  -27.3877  -16.8720   20.6197 H   0  0  0  0  0  0
  -22.4842  -25.9894   16.4536 H   0  0  0  0  0  0
  -22.5732  -27.3598   17.3298 H   0  0  0  0  0  0
  -21.1940  -26.9517   16.5828 H   0  0  0  0  0  0
  1 25  1  0  0  0
  1 30  2  0  0  0
  1 84  1  0  0  0
  2  3  1  0  0  0
  2 25  1  0  0  0
  2 86  1  0  0  0
  2 87  1  0  0  0
  3  4  1  0  0  0
  3 88  1  0  0  0
  3 89  1  0  0  0
  4  5  1  0  0  0
  4 90  1  0  0  0
  4 91  1  0  0  0
  5  6  1  0  0  0
  5 26  1  0  0  0
  5 92  1  0  0  0
  6 25  1  0  0  0
  6 93  1  0  0  0
  6 94  1  0  0  0
  7  8  2  0  0  0
  7 26  1  0  0  0
  7 29  1  0  0  0
  8  9  1  0  0  0
  8 22  1  0  0  0
  9 10  1  0  0  0
  9 27  2  0  0  0
 10 11  2  0  0  0
 10 15  1  0  0  0
 11 12  1  0  0  0
 11 95  1  0  0  0
 12 13  2  0  0  0
 12 96  1  0  0  0
 13 14  1  0  0  0
 13 31  1  0  0  0
 14 15  2  0  0  0
 14 97  1  0  0  0
 15 98  1  0  0  0
 16 17  2  0  0  0
 16 21  1  0  0  0
 16 31  1  0  0  0
 17 18  1  0  0  0
 17 99  1  0  0  0
 18 19  2  0  0  0
 18100  1  0  0  0
 19 20  1  0  0  0
 19 24  1  0  0  0
 20 21  2  0  0  0
 20101  1  0  0  0
 21 23  1  0  0  0
 22 28  1  0  0  0
 22 32  2  0  0  0
 26 27  1  0  0  0
 28102  1  0  0  0
 28103  1  0  0  0
 29104  1  0  0  0
 29105  1  0  0  0
 33 34  1  0  0  0
 33 66  1  0  0  0
 33 70  2  0  0  0
 34 36  1  0  0  0
 34 59  1  0  0  0
 34106  1  0  0  0
 35 44  2  0  0  0
 35 45  1  0  0  0
 35 68  1  0  0  0
 36 56  1  0  0  0
 36107  1  0  0  0
 37 39  1  0  0  0
 37 47  1  0  0  0
 37 66  1  0  0  0
 37108  1  0  0  0
 38 43  2  0  0  0
 38 46  1  0  0  0
 38 47  1  0  0  0
 39 64  1  0  0  0
 39 67  2  0  0  0
 40 52  1  0  0  0
 40 53  2  0  0  0
 40 58  1  0  0  0
 41109  1  0  0  0
 41110  1  0  0  0
 41111  1  0  0  0
 41 48  1  0  0  0
 42 43  1  0  0  0
 42 66  1  0  0  0
 42112  1  0  0  0
 42113  1  0  0  0
 43 44  1  0  0  0
 44114  1  0  0  0
 45 46  2  0  0  0
 45115  1  0  0  0
 46116  1  0  0  0
 47117  1  0  0  0
 47118  1  0  0  0
 48 56  1  0  0  0
 48 65  1  0  0  0
 48119  1  0  0  0
 49 50  1  0  0  0
 49 53  1  0  0  0
 49 64  1  0  0  0
 49120  1  0  0  0
 50 51  1  0  0  0
 50121  1  0  0  0
 50122  1  0  0  0
 51 52  1  0  0  0
 51123  1  0  0  0
 51124  1  0  0  0
 52125  1  0  0  0
 52126  1  0  0  0
 53 54  1  0  0  0
 54 55  2  0  0  0
 54127  1  0  0  0
 55 57  1  0  0  0
 55128  1  0  0  0
 56 69  2  0  0  0
 57 58  2  0  0  0
 57129  1  0  0  0
 58130  1  0  0  0
 59 60  1  0  0  0
 59 61  1  0  0  0
 59 62  1  0  0  0
 60131  1  0  0  0
 60132  1  0  0  0
 60133  1  0  0  0
 61134  1  0  0  0
 61135  1  0  0  0
 61136  1  0  0  0
 62137  1  0  0  0
 62138  1  0  0  0
 62139  1  0  0  0
 63 65  1  0  0  0
 63140  1  0  0  0
 63141  1  0  0  0
 63142  1  0  0  0
 64143  1  0  0  0
 65144  1  0  0  0
 68 80  1  0  0  0
 71 72  2  0  0  0
 71 81  1  0  0  0
 71145  1  0  0  0
 72 73  1  0  0  0
 72 78  1  0  0  0
 73 79  1  0  0  0
 73 82  2  0  0  0
 74 81  2  0  0  0
 74 82  1  0  0  0
 74 83  1  0  0  0
 75 77  1  0  0  0
 75 83  1  0  0  0
 75146  1  0  0  0
 75147  1  0  0  0
 76 77  1  0  0  0
 76 83  1  0  0  0
 76148  1  0  0  0
 76149  1  0  0  0
 77 84  1  0  0  0
 77150  1  0  0  0
 78 85  1  0  0  0
 78151  1  0  0  0
 78152  1  0  0  0
 79 80  1  0  0  0
 79153  1  0  0  0
 79154  1  0  0  0
 80155  1  0  0  0
 80156  1  0  0  0
 84157  1  0  0  0
 85158  1  0  0  0
 85159  1  0  0  0
 85160  1  0  0  0
M  CHG  1  85   1
M  ISO  4   1 100  68 101  80 101  84 100
M  END
> <chiral flag>
0

> <version>
0

> <s_m_source_file>
/data/baiqing/PycharmProjects/Reinvent-master-3.2/result/LINK_invent/BTK/process_docking_weight1_custom_sum_contain_oxygen_bond_distance_aromatic_linkinvent_7_9_3/rearranged_h_0197.sdf

> <i_m_source_file_index>
82

> <r_mmod_Potential_Energy-OPLS-2005>
17926.79296875

> <r_mmod_Stretch_Energy-OPLS-2005>
7374.69580078125

> <r_mmod_Bend_Energy-OPLS-2005>
2276.85034179688

> <r_mmod_Torsional_Energy-OPLS-2005>
624.066040039062

> <r_mmod_Improper_Torsional_Energy-OPLS-2005>
116.248138427734

> <r_mmod_Van_der_Waal_Energy-OPLS-2005>
2258.1708984375

> <r_mmod_Electrostatic_Energy-OPLS-2005>
-665.607604980469

> <r_mmod_Solvation_Energy-OPLS-2005>
-608.436218261719

> <b_mmod_Minimization_Converged-OPLS-2005>
0

> <r_mmod_RMS_Derivative-OPLS-2005>
7.21596765518188

$$$$
83
                    3D
 Structure written by MMmdl.
173182  0  0  1  0            999 V2000
  -30.6953  -14.4427   20.6210 C   0  0  0  0  0  0
  -30.4311  -12.2989   19.4126 C   0  0  0  0  0  0
  -29.4989  -12.5113   18.1992 C   0  0  0  0  0  0
  -28.0125  -12.3866   18.6011 C   0  0  0  0  0  0
  -27.6660  -13.1949   19.8793 C   0  0  2  0  0  0
  -28.7052  -12.8956   20.9775 C   0  0  0  0  0  0
  -25.2613  -13.8132   20.5628 C   0  0  0  0  0  0
  -24.1856  -13.0436   20.9131 C   0  0  0  0  0  0
  -24.6386  -11.6887   20.8705 C   0  0  0  0  0  0
  -23.9031  -10.4289   21.0395 C   0  0  0  0  0  0
  -24.3590   -9.4218   21.9182 C   0  0  0  0  0  0
  -23.6269   -8.2255   22.0755 C   0  0  0  0  0  0
  -22.4257   -8.0293   21.3533 C   0  0  0  0  0  0
  -21.9879   -9.0269   20.4641 C   0  0  0  0  0  0
  -22.7197  -10.2150   20.3047 C   0  0  0  0  0  0
  -21.6850   -6.0740   22.5274 C   0  0  0  0  0  0
  -21.4027   -6.5642   23.8208 C   0  0  0  0  0  0
  -21.3660   -5.6789   24.9171 C   0  0  0  0  0  0
  -21.6037   -4.3048   24.7224 C   0  0  0  0  0  0
  -21.8817   -3.8149   23.4349 C   0  0  0  0  0  0
  -21.9187   -4.6967   22.3413 C   0  0  0  0  0  0
  -22.7873  -13.5236   21.1815 C   0  0  0  0  0  0
  -22.1647   -4.2154   21.0984 F   0  0  0  0  0  0
  -21.5619   -3.4532   25.7738 F   0  0  0  0  0  0
  -30.0301  -13.2621   20.4535 N   0  0  0  0  0  0
  -26.3038  -12.9275   20.3330 N   0  0  0  0  0  0
  -25.9307  -11.6446   20.5729 N   0  0  0  0  0  0
  -22.0500  -12.8281   22.0387 N   0  0  0  0  0  0
  -25.4397  -15.1847   20.4015 N   0  0  0  0  0  0
  -31.8221  -14.6218   20.1411 O   0  0  0  0  0  0
  -21.6628   -6.8892   21.4232 O   0  0  0  0  0  0
  -22.3583  -14.5570   20.6689 O   0  0  0  0  0  0
  -24.6126  -31.8728   23.2126 C   0  0  0  0  0  0
  -25.9031  -32.4852   23.8429 C   0  0  1  0  0  0
  -27.2403  -27.4737   20.0656 C   0  0  0  0  0  0
  -25.5917  -33.8652   24.2366 N   0  0  0  0  0  0
  -23.3961  -30.4966   21.5551 C   0  0  2  0  0  0
  -24.8378  -28.9627   20.1241 C   0  0  0  0  0  0
  -22.7371  -29.4682   22.5018 C   0  0  0  0  0  0
  -18.0273  -28.1344   22.8510 C   0  0  0  0  0  0
  -24.1488  -36.7311   23.2628 C   0  0  0  0  0  0
  -25.9228  -30.8440   21.3629 C   0  0  0  0  0  0
  -25.9977  -29.4806   20.7109 C   0  0  0  0  0  0
  -27.1991  -28.7433   20.6790 C   0  0  0  0  0  0
  -26.0562  -26.9581   19.4841 C   0  0  0  0  0  0
  -24.8599  -27.6978   19.5137 C   0  0  0  0  0  0
  -23.6020  -29.8291   20.1705 C   0  0  0  0  0  0
  -25.4119  -36.3130   24.0336 C   0  0  1  0  0  0
  -20.5857  -28.3621   23.1342 C   0  0  2  0  0  0
  -20.6775  -26.9373   22.5416 C   0  0  0  0  0  0
  -19.5754  -26.6349   21.5212 C   0  0  0  0  0  0
  -18.1929  -26.7903   22.1619 C   0  0  0  0  0  0
  -19.1516  -28.8791   23.2941 C   0  0  0  0  0  0
  -18.9438  -30.1403   23.8927 C   0  0  0  0  0  0
  -17.6449  -30.6569   24.0552 C   0  0  0  0  0  0
  -25.9064  -34.9499   23.5152 C   0  0  0  0  0  0
  -16.5344  -29.9076   23.6303 C   0  0  0  0  0  0
  -16.7272  -28.6490   23.0348 C   0  0  0  0  0  0
  -26.4477  -31.6610   25.0736 C   0  0  0  0  0  0
  -25.3745  -31.3692   26.1481 C   0  0  0  0  0  0
  -27.0307  -30.3061   24.6063 C   0  0  0  0  0  0
  -27.6060  -32.4329   25.7514 C   0  0  0  0  0  0
  -27.5592  -37.1822   24.8479 C   0  0  0  0  0  0
  -21.4106  -29.3020   22.3756 N   0  0  0  0  0  0
  -26.4305  -37.3808   23.9426 N   0  0  0  0  0  0
  -24.6612  -31.0857   22.1015 N   0  0  0  0  0  0
  -23.4170  -28.8209   23.3029 O   0  0  0  0  0  0
  -28.4444  -26.8025   20.0485 O   0  0  0  0  0  0
  -26.5573  -34.8949   22.4684 O   0  0  0  0  0  0
  -23.5322  -32.1486   23.7516 O   0  0  0  0  0  0
  -25.9644  -20.3731   21.5922 C   0  0  0  0  0  0
  -25.7266  -21.3215   22.6007 C   0  0  0  0  0  0
  -26.2099  -20.9859   23.8856 C   0  0  0  0  0  0
  -27.1610  -19.0702   23.0459 C   0  0  0  0  0  0
  -29.4513  -17.8825   21.0761 C   0  0  0  0  0  0
  -30.0310  -16.7788   20.1861 C   0  0  0  0  0  0
  -29.3945  -15.8588   22.2740 C   0  0  0  0  0  0
  -28.5474  -17.1076   22.0277 C   0  0  1  0  0  0
  -24.9419  -22.5955   22.2852 C   0  0  0  0  0  0
  -25.9083  -21.7822   25.1464 C   0  0  0  0  0  0
  -28.0384  -17.8402   23.2953 C   0  0  0  0  0  0
  -25.8205  -23.8629   22.2310 C   0  0  0  0  0  0
  -27.9240  -24.8247   21.3610 C   0  0  0  0  0  0
  -28.4332  -25.3748   20.0151 C   0  0  0  0  0  0
  -26.6835  -19.2659   21.8235 N   0  0  0  0  0  0
  -26.9141  -19.8538   24.0930 N   0  0  0  0  0  0
  -29.9297  -15.5190   20.9448 N   0  0  0  0  0  0
  -25.1736  -20.9143   26.0667 N   0  3  0  0  0  0
  -26.8813  -23.7854   21.2026 N   0  3  0  0  0  0
  -31.4721  -12.4142   19.1087 H   0  0  0  0  0  0
  -30.3533  -11.2770   19.7900 H   0  0  0  0  0  0
  -29.7361  -11.7884   17.4165 H   0  0  0  0  0  0
  -29.6763  -13.4989   17.7699 H   0  0  0  0  0  0
  -27.7909  -11.3307   18.7593 H   0  0  0  0  0  0
  -27.3765  -12.7056   17.7734 H   0  0  0  0  0  0
  -27.7302  -14.2520   19.6248 H   0  0  0  0  0  0
  -28.6947  -11.8302   21.2118 H   0  0  0  0  0  0
  -28.4462  -13.3564   21.9190 H   0  0  0  0  0  0
  -25.2737   -9.5717   22.4745 H   0  0  0  0  0  0
  -23.9980   -7.4660   22.7505 H   0  0  0  0  0  0
  -21.0790   -8.8790   19.8968 H   0  0  0  0  0  0
  -22.3637  -10.9698   19.6166 H   0  0  0  0  0  0
  -21.2024   -7.6145   23.9719 H   0  0  0  0  0  0
  -21.1466   -6.0513   25.9070 H   0  0  0  0  0  0
  -22.0593   -2.7610   23.2839 H   0  0  0  0  0  0
  -22.4071  -11.9885   22.4716 H   0  0  0  0  0  0
  -21.1148  -13.1399   22.2633 H   0  0  0  0  0  0
  -24.6865  -15.8520   20.5243 H   0  0  0  0  0  0
  -26.2999  -15.6107   20.0792 H   0  0  0  0  0  0
  -26.7082  -32.5580   23.1182 H   0  0  0  0  0  0
  -25.0140  -33.9847   25.0558 H   0  0  0  0  0  0
  -22.6839  -31.3121   21.4182 H   0  0  0  0  0  0
  -23.3759  -35.9630   23.3313 H   0  0  0  0  0  0
  -24.3586  -36.8891   22.2037 H   0  0  0  0  0  0
  -23.7241  -37.6530   23.6620 H   0  0  0  0  0  0
  -26.0408  -31.6094   20.5947 H   0  0  0  0  0  0
  -26.8097  -30.8924   21.9816 H   0  0  0  0  0  0
  -28.0993  -29.1484   21.1202 H   0  0  0  0  0  0
  -26.0322  -26.0064   18.9766 H   0  0  0  0  0  0
  -23.9672  -27.2968   19.0552 H   0  0  0  0  0  0
  -23.7150  -30.6063   19.4128 H   0  0  0  0  0  0
  -22.7269  -29.2507   19.8690 H   0  0  0  0  0  0
  -25.1297  -36.1996   25.0823 H   0  0  0  0  0  0
  -20.9957  -28.3164   24.1458 H   0  0  0  0  0  0
  -20.5667  -26.2231   23.3589 H   0  0  0  0  0  0
  -21.6648  -26.7428   22.1199 H   0  0  0  0  0  0
  -19.6911  -25.6262   21.1222 H   0  0  0  0  0  0
  -19.6684  -27.3161   20.6739 H   0  0  0  0  0  0
  -17.4201  -26.6646   21.4023 H   0  0  0  0  0  0
  -18.0352  -26.0023   22.8987 H   0  0  0  0  0  0
  -19.7917  -30.7214   24.2291 H   0  0  0  0  0  0
  -17.5011  -31.6245   24.5157 H   0  0  0  0  0  0
  -15.5342  -30.2983   23.7610 H   0  0  0  0  0  0
  -15.8684  -28.0813   22.7056 H   0  0  0  0  0  0
  -24.8956  -32.2837   26.4980 H   0  0  0  0  0  0
  -24.5894  -30.7079   25.7791 H   0  0  0  0  0  0
  -25.8085  -30.8807   27.0207 H   0  0  0  0  0  0
  -26.2844  -29.6866   24.1075 H   0  0  0  0  0  0
  -27.4038  -29.7255   25.4502 H   0  0  0  0  0  0
  -27.8708  -30.4410   23.9244 H   0  0  0  0  0  0
  -27.2659  -33.3585   26.2170 H   0  0  0  0  0  0
  -28.3820  -32.6970   25.0321 H   0  0  0  0  0  0
  -28.0790  -31.8413   26.5354 H   0  0  0  0  0  0
  -28.2627  -38.0096   24.7524 H   0  0  0  0  0  0
  -28.1062  -36.2640   24.6309 H   0  0  0  0  0  0
  -27.2314  -37.1494   25.8877 H   0  0  0  0  0  0
  -20.9234  -29.8813   21.7071 H   0  0  0  0  0  0
  -26.0194  -38.2892   24.1387 H   0  0  0  0  0  0
  -25.6065  -20.5135   20.5823 H   0  0  0  0  0  0
  -28.9334  -18.6534   20.5023 H   0  0  0  0  0  0
  -30.2540  -18.3654   21.6373 H   0  0  0  0  0  0
  -31.0527  -17.0205   19.8932 H   0  0  0  0  0  0
  -29.4480  -16.6847   19.2682 H   0  0  0  0  0  0
  -28.8015  -15.1052   22.7760 H   0  0  0  0  0  0
  -30.2271  -16.0913   22.9381 H   0  0  0  0  0  0
  -27.6638  -16.7837   21.4753 H   0  0  0  0  0  0
  -24.1470  -22.7283   23.0207 H   0  0  0  0  0  0
  -24.4217  -22.4762   21.3317 H   0  0  0  0  0  0
  -25.3317  -22.6836   24.9531 H   0  0  0  0  0  0
  -26.8482  -22.0974   25.5990 H   0  0  0  0  0  0
  -27.4588  -17.1408   23.8960 H   0  0  0  0  0  0
  -28.8846  -18.1331   23.9177 H   0  0  0  0  0  0
  -26.2835  -24.0302   23.2053 H   0  0  0  0  0  0
  -25.1999  -24.7417   22.0395 H   0  0  0  0  0  0
  -27.5379  -25.6467   21.9655 H   0  0  0  0  0  0
  -28.7541  -24.4067   21.9324 H   0  0  0  0  0  0
  -27.8772  -24.9922   19.1612 H   0  0  0  0  0  0
  -29.4557  -25.0353   19.8544 H   0  0  0  0  0  0
  -25.6917  -20.0551   26.1142 H   0  0  0  0  0  0
  -24.2604  -20.7252   25.6963 H   0  0  0  0  0  0
  -25.0959  -21.3327   26.9733 H   0  0  0  0  0  0
  -26.4549  -23.8664   20.2913 H   0  0  0  0  0  0
  -27.3278  -22.8814   21.2451 H   0  0  0  0  0  0
  1 25  1  0  0  0
  1 30  2  0  0  0
  1 87  1  0  0  0
  2  3  1  0  0  0
  2 25  1  0  0  0
  2 90  1  0  0  0
  2 91  1  0  0  0
  3  4  1  0  0  0
  3 92  1  0  0  0
  3 93  1  0  0  0
  4  5  1  0  0  0
  4 94  1  0  0  0
  4 95  1  0  0  0
  5  6  1  0  0  0
  5 26  1  0  0  0
  5 96  1  0  0  0
  6 25  1  0  0  0
  6 97  1  0  0  0
  6 98  1  0  0  0
  7  8  2  0  0  0
  7 26  1  0  0  0
  7 29  1  0  0  0
  8  9  1  0  0  0
  8 22  1  0  0  0
  9 10  1  0  0  0
  9 27  2  0  0  0
 10 11  2  0  0  0
 10 15  1  0  0  0
 11 12  1  0  0  0
 11 99  1  0  0  0
 12 13  2  0  0  0
 12100  1  0  0  0
 13 14  1  0  0  0
 13 31  1  0  0  0
 14 15  2  0  0  0
 14101  1  0  0  0
 15102  1  0  0  0
 16 17  2  0  0  0
 16 21  1  0  0  0
 16 31  1  0  0  0
 17 18  1  0  0  0
 17103  1  0  0  0
 18 19  2  0  0  0
 18104  1  0  0  0
 19 20  1  0  0  0
 19 24  1  0  0  0
 20 21  2  0  0  0
 20105  1  0  0  0
 21 23  1  0  0  0
 22 28  1  0  0  0
 22 32  2  0  0  0
 26 27  1  0  0  0
 28106  1  0  0  0
 28107  1  0  0  0
 29108  1  0  0  0
 29109  1  0  0  0
 33 34  1  0  0  0
 33 66  1  0  0  0
 33 70  2  0  0  0
 34 36  1  0  0  0
 34 59  1  0  0  0
 34110  1  0  0  0
 35 44  2  0  0  0
 35 45  1  0  0  0
 35 68  1  0  0  0
 36 56  1  0  0  0
 36111  1  0  0  0
 37 39  1  0  0  0
 37 47  1  0  0  0
 37 66  1  0  0  0
 37112  1  0  0  0
 38 43  2  0  0  0
 38 46  1  0  0  0
 38 47  1  0  0  0
 39 64  1  0  0  0
 39 67  2  0  0  0
 40 52  1  0  0  0
 40 53  2  0  0  0
 40 58  1  0  0  0
 41113  1  0  0  0
 41114  1  0  0  0
 41115  1  0  0  0
 41 48  1  0  0  0
 42 43  1  0  0  0
 42 66  1  0  0  0
 42116  1  0  0  0
 42117  1  0  0  0
 43 44  1  0  0  0
 44118  1  0  0  0
 45 46  2  0  0  0
 45119  1  0  0  0
 46120  1  0  0  0
 47121  1  0  0  0
 47122  1  0  0  0
 48 56  1  0  0  0
 48 65  1  0  0  0
 48123  1  0  0  0
 49 50  1  0  0  0
 49 53  1  0  0  0
 49 64  1  0  0  0
 49124  1  0  0  0
 50 51  1  0  0  0
 50125  1  0  0  0
 50126  1  0  0  0
 51 52  1  0  0  0
 51127  1  0  0  0
 51128  1  0  0  0
 52129  1  0  0  0
 52130  1  0  0  0
 53 54  1  0  0  0
 54 55  2  0  0  0
 54131  1  0  0  0
 55 57  1  0  0  0
 55132  1  0  0  0
 56 69  2  0  0  0
 57 58  2  0  0  0
 57133  1  0  0  0
 58134  1  0  0  0
 59 60  1  0  0  0
 59 61  1  0  0  0
 59 62  1  0  0  0
 60135  1  0  0  0
 60136  1  0  0  0
 60137  1  0  0  0
 61138  1  0  0  0
 61139  1  0  0  0
 61140  1  0  0  0
 62141  1  0  0  0
 62142  1  0  0  0
 62143  1  0  0  0
 63 65  1  0  0  0
 63144  1  0  0  0
 63145  1  0  0  0
 63146  1  0  0  0
 64147  1  0  0  0
 65148  1  0  0  0
 68 84  1  0  0  0
 71 72  2  0  0  0
 71 85  1  0  0  0
 71149  1  0  0  0
 72 73  1  0  0  0
 72 79  1  0  0  0
 73 80  1  0  0  0
 73 86  2  0  0  0
 74 81  1  0  0  0
 74 85  2  0  0  0
 74 86  1  0  0  0
 75 76  1  0  0  0
 75 78  1  0  0  0
 75150  1  0  0  0
 75151  1  0  0  0
 76 87  1  0  0  0
 76152  1  0  0  0
 76153  1  0  0  0
 77 78  1  0  0  0
 77 87  1  0  0  0
 77154  1  0  0  0
 77155  1  0  0  0
 78 81  1  0  0  0
 78156  1  0  0  0
 79 82  1  0  0  0
 79157  1  0  0  0
 79158  1  0  0  0
 80 88  1  0  0  0
 80159  1  0  0  0
 80160  1  0  0  0
 81161  1  0  0  0
 81162  1  0  0  0
 82 89  1  0  0  0
 82163  1  0  0  0
 82164  1  0  0  0
 83 84  1  0  0  0
 83 89  1  0  0  0
 83165  1  0  0  0
 83166  1  0  0  0
 84167  1  0  0  0
 84168  1  0  0  0
 88169  1  0  0  0
 88170  1  0  0  0
 88171  1  0  0  0
 89172  1  0  0  0
 89173  1  0  0  0
M  CHG  2  88   1  89   1
M  ISO  4   1 100  68 101  84 101  87 100
M  END
> <chiral flag>
0

> <version>
0

> <s_m_source_file>
/data/baiqing/PycharmProjects/Reinvent-master-3.2/result/LINK_invent/BTK/process_docking_weight1_custom_sum_contain_oxygen_bond_distance_aromatic_linkinvent_7_9_3/rearranged_h_0197.sdf

> <i_m_source_file_index>
83

> <r_mmod_Potential_Energy-OPLS-2005>
-720.565673828125

> <r_mmod_Stretch_Energy-OPLS-2005>
36.8898582458496

> <r_mmod_Bend_Energy-OPLS-2005>
146.664016723633

> <r_mmod_Torsional_Energy-OPLS-2005>
346.149932861328

> <r_mmod_Improper_Torsional_Energy-OPLS-2005>
14.1355905532837

> <r_mmod_Van_der_Waal_Energy-OPLS-2005>
161.665557861328

> <r_mmod_Electrostatic_Energy-OPLS-2005>
-467.132995605469

> <r_mmod_Solvation_Energy-OPLS-2005>
-970.068664550781

> <b_mmod_Minimization_Converged-OPLS-2005>
0

> <r_mmod_RMS_Derivative-OPLS-2005>
3.93863821029663

$$$$
84
                    3D
 Structure written by MMmdl.
183193  0  0  1  0            999 V2000
  -30.6892  -14.4498   20.5927 C   0  0  0  0  0  0
  -30.4289  -12.3002   19.4148 C   0  0  0  0  0  0
  -29.4976  -12.5172   18.2027 C   0  0  0  0  0  0
  -28.0131  -12.3864   18.6051 C   0  0  0  0  0  0
  -27.6624  -13.2004   19.8782 C   0  0  2  0  0  0
  -28.7010  -12.9357   20.9895 C   0  0  0  0  0  0
  -25.2578  -13.8150   20.5688 C   0  0  0  0  0  0
  -24.1827  -13.0427   20.9185 C   0  0  0  0  0  0
  -24.6383  -11.6902   20.8742 C   0  0  0  0  0  0
  -23.9058  -10.4288   21.0402 C   0  0  0  0  0  0
  -24.3616   -9.4204   21.9179 C   0  0  0  0  0  0
  -23.6299   -8.2234   22.0748 C   0  0  0  0  0  0
  -22.4285   -8.0269   21.3539 C   0  0  0  0  0  0
  -21.9910   -9.0239   20.4640 C   0  0  0  0  0  0
  -22.7233  -10.2121   20.3055 C   0  0  0  0  0  0
  -21.6851   -6.0739   22.5283 C   0  0  0  0  0  0
  -21.4007   -6.5644   23.8216 C   0  0  0  0  0  0
  -21.3667   -5.6797   24.9179 C   0  0  0  0  0  0
  -21.6055   -4.3062   24.7232 C   0  0  0  0  0  0
  -21.8823   -3.8155   23.4350 C   0  0  0  0  0  0
  -21.9190   -4.6968   22.3405 C   0  0  0  0  0  0
  -22.7854  -13.5219   21.1867 C   0  0  0  0  0  0
  -22.1659   -4.2156   21.0981 F   0  0  0  0  0  0
  -21.5634   -3.4545   25.7743 F   0  0  0  0  0  0
  -30.0344  -13.2634   20.4534 N   0  0  0  0  0  0
  -26.3013  -12.9306   20.3366 N   0  0  0  0  0  0
  -25.9301  -11.6476   20.5755 N   0  0  0  0  0  0
  -22.0498  -12.8195   22.0416 N   0  0  0  0  0  0
  -25.4320  -15.1872   20.4117 N   0  0  0  0  0  0
  -31.8079  -14.6583   20.1086 O   0  0  0  0  0  0
  -21.6640   -6.8877   21.4243 O   0  0  0  0  0  0
  -22.3534  -14.5524   20.6726 O   0  0  0  0  0  0
  -24.6115  -31.8697   23.2114 C   0  0  0  0  0  0
  -25.9016  -32.4835   23.8407 C   0  0  1  0  0  0
  -27.2354  -27.4594   20.1044 C   0  0  0  0  0  0
  -25.5889  -33.8636   24.2336 N   0  0  0  0  0  0
  -23.3993  -30.4922   21.5503 C   0  0  2  0  0  0
  -24.8479  -28.9620   20.1145 C   0  0  0  0  0  0
  -22.7384  -29.4670   22.4997 C   0  0  0  0  0  0
  -18.0261  -28.1379   22.8496 C   0  0  0  0  0  0
  -24.1487  -36.7325   23.2631 C   0  0  0  0  0  0
  -25.9247  -30.8433   21.3621 C   0  0  0  0  0  0
  -26.0052  -29.4795   20.7112 C   0  0  0  0  0  0
  -27.2050  -28.7360   20.7019 C   0  0  0  0  0  0
  -26.0674  -26.9524   19.4946 C   0  0  0  0  0  0
  -24.8735  -27.6964   19.5011 C   0  0  0  0  0  0
  -23.6073  -29.8237   20.1649 C   0  0  0  0  0  0
  -25.4108  -36.3122   24.0334 C   0  0  1  0  0  0
  -20.5846  -28.3669   23.1329 C   0  0  2  0  0  0
  -20.6767  -26.9413   22.5420 C   0  0  0  0  0  0
  -19.5749  -26.6387   21.5217 C   0  0  0  0  0  0
  -18.1919  -26.7927   22.1622 C   0  0  0  0  0  0
  -19.1506  -28.8839   23.2910 C   0  0  0  0  0  0
  -18.9441  -30.1442   23.8926 C   0  0  0  0  0  0
  -17.6447  -30.6593   24.0568 C   0  0  0  0  0  0
  -25.9037  -34.9488   23.5135 C   0  0  0  0  0  0
  -16.5337  -29.9099   23.6325 C   0  0  0  0  0  0
  -16.7253  -28.6510   23.0357 C   0  0  0  0  0  0
  -26.4461  -31.6600   25.0719 C   0  0  0  0  0  0
  -25.3737  -31.3695   26.1471 C   0  0  0  0  0  0
  -27.0295  -30.3046   24.6078 C   0  0  0  0  0  0
  -27.6049  -32.4315   25.7474 C   0  0  0  0  0  0
  -27.5599  -37.1794   24.8441 C   0  0  0  0  0  0
  -21.4114  -29.3037   22.3734 N   0  0  0  0  0  0
  -26.4287  -37.3812   23.9429 N   0  0  0  0  0  0
  -24.6630  -31.0815   22.1006 N   0  0  0  0  0  0
  -23.4170  -28.8210   23.3027 O   0  0  0  0  0  0
  -28.3932  -26.7208   20.1123 O   0  0  0  0  0  0
  -26.5596  -34.8928   22.4692 O   0  0  0  0  0  0
  -23.5315  -32.1442   23.7524 O   0  0  0  0  0  0
  -33.7863  -21.4793   21.8738 C   0  0  0  0  0  0
  -32.6247  -19.5661   22.3984 C   0  0  0  0  0  0
  -32.5716  -22.1952   21.7040 C   0  0  0  0  0  0
  -31.4001  -20.2380   22.1670 C   0  0  0  0  0  0
  -29.5137  -15.7749   22.3251 C   0  0  0  0  0  0
  -29.6945  -16.6195   20.0008 C   0  0  0  0  0  0
  -30.1145  -17.0998   22.8377 C   0  0  0  0  0  0
  -30.2643  -17.9540   20.5282 C   0  0  0  0  0  0
  -31.3962  -23.9213   19.2630 C   0  0  0  0  0  0
  -31.2056  -24.4146   21.5848 C   0  0  0  0  0  0
  -32.8141  -23.8792   19.8427 C   0  0  2  0  0  0
  -32.5828  -23.7100   21.3719 C   0  0  2  0  0  0
  -33.6282  -25.1225   19.4193 C   0  0  0  0  0  0
  -33.4494  -24.2800   23.7793 C   0  0  0  0  0  0
  -30.0426  -19.5863   22.4491 C   0  0  0  0  0  0
  -33.6442  -24.4381   22.2581 C   0  0  0  0  0  0
  -29.1278  -24.4049   20.1634 C   0  0  0  0  0  0
  -28.3029  -25.5008   20.8573 C   0  0  0  0  0  0
  -33.8189  -20.1723   22.2200 N   0  0  0  0  0  0
  -31.3777  -21.5488   21.7978 N   0  0  0  0  0  0
  -29.8973  -15.4947   20.9335 N   0  0  0  0  0  0
  -29.7983  -18.2162   21.9109 N   0  3  0  0  0  0
  -30.5884  -24.6497   20.2565 N   0  3  2  0  0  0
  -31.4729  -12.4115   19.1153 H   0  0  0  0  0  0
  -30.3369  -11.2815   19.7935 H   0  0  0  0  0  0
  -29.7334  -11.8038   17.4125 H   0  0  0  0  0  0
  -29.6765  -13.5082   17.7811 H   0  0  0  0  0  0
  -27.8006  -11.3295   18.7680 H   0  0  0  0  0  0
  -27.3741  -12.6971   17.7779 H   0  0  0  0  0  0
  -27.7151  -14.2554   19.6082 H   0  0  0  0  0  0
  -28.6738  -11.8842   21.2796 H   0  0  0  0  0  0
  -28.4486  -13.4803   21.8963 H   0  0  0  0  0  0
  -25.2756   -9.5681   22.4762 H   0  0  0  0  0  0
  -24.0022   -7.4619   22.7455 H   0  0  0  0  0  0
  -21.0852   -8.8743   19.8938 H   0  0  0  0  0  0
  -22.3680  -10.9658   19.6176 H   0  0  0  0  0  0
  -21.1990   -7.6152   23.9718 H   0  0  0  0  0  0
  -21.1491   -6.0530   25.9080 H   0  0  0  0  0  0
  -22.0597   -2.7617   23.2851 H   0  0  0  0  0  0
  -22.4097  -11.9845   22.4801 H   0  0  0  0  0  0
  -21.1104  -13.1198   22.2637 H   0  0  0  0  0  0
  -24.6639  -15.8422   20.5111 H   0  0  0  0  0  0
  -26.2818  -15.6205   20.0753 H   0  0  0  0  0  0
  -26.7088  -32.5559   23.1181 H   0  0  0  0  0  0
  -25.0044  -33.9809   25.0483 H   0  0  0  0  0  0
  -22.6877  -31.3083   21.4113 H   0  0  0  0  0  0
  -23.3767  -35.9633   23.3247 H   0  0  0  0  0  0
  -24.3599  -36.8993   22.2055 H   0  0  0  0  0  0
  -23.7208  -37.6501   23.6680 H   0  0  0  0  0  0
  -26.0324  -31.6097   20.5940 H   0  0  0  0  0  0
  -26.8146  -30.8984   21.9779 H   0  0  0  0  0  0
  -28.0982  -29.1311   21.1668 H   0  0  0  0  0  0
  -26.0800  -25.9838   19.0152 H   0  0  0  0  0  0
  -23.9861  -27.2956   19.0319 H   0  0  0  0  0  0
  -23.7089  -30.5982   19.4034 H   0  0  0  0  0  0
  -22.7334  -29.2374   19.8746 H   0  0  0  0  0  0
  -25.1276  -36.1983   25.0824 H   0  0  0  0  0  0
  -20.9934  -28.3237   24.1451 H   0  0  0  0  0  0
  -20.5691  -26.2274   23.3598 H   0  0  0  0  0  0
  -21.6638  -26.7475   22.1207 H   0  0  0  0  0  0
  -19.6922  -25.6301   21.1244 H   0  0  0  0  0  0
  -19.6698  -27.3199   20.6748 H   0  0  0  0  0  0
  -17.4195  -26.6673   21.4016 H   0  0  0  0  0  0
  -18.0323  -26.0062   22.9008 H   0  0  0  0  0  0
  -19.7917  -30.7243   24.2324 H   0  0  0  0  0  0
  -17.5005  -31.6277   24.5157 H   0  0  0  0  0  0
  -15.5344  -30.3016   23.7634 H   0  0  0  0  0  0
  -15.8647  -28.0837   22.7076 H   0  0  0  0  0  0
  -24.5876  -30.7094   25.7789 H   0  0  0  0  0  0
  -24.8970  -32.2848   26.4984 H   0  0  0  0  0  0
  -25.8084  -30.8791   27.0186 H   0  0  0  0  0  0
  -26.2832  -29.6806   24.1145 H   0  0  0  0  0  0
  -27.4085  -29.7284   25.4531 H   0  0  0  0  0  0
  -27.8658  -30.4379   23.9214 H   0  0  0  0  0  0
  -27.2683  -33.3604   26.2098 H   0  0  0  0  0  0
  -28.3833  -32.6900   25.0279 H   0  0  0  0  0  0
  -28.0747  -31.8406   26.5349 H   0  0  0  0  0  0
  -28.2543  -38.0166   24.7617 H   0  0  0  0  0  0
  -28.1176  -36.2708   24.6110 H   0  0  0  0  0  0
  -27.2333  -37.1246   25.8840 H   0  0  0  0  0  0
  -20.9265  -29.8751   21.6956 H   0  0  0  0  0  0
  -26.0175  -38.2876   24.1494 H   0  0  0  0  0  0
  -34.7484  -21.9530   21.7477 H   0  0  0  0  0  0
  -32.6620  -18.5418   22.7312 H   0  0  0  0  0  0
  -28.4238  -15.8215   22.3763 H   0  0  0  0  0  0
  -29.8193  -14.9641   22.9898 H   0  0  0  0  0  0
  -30.1228  -16.4051   19.0180 H   0  0  0  0  0  0
  -28.6230  -16.7226   19.8294 H   0  0  0  0  0  0
  -31.1915  -16.9825   22.9499 H   0  0  0  0  0  0
  -29.7211  -17.3105   23.8333 H   0  0  0  0  0  0
  -29.9542  -18.7688   19.8723 H   0  0  0  0  0  0
  -31.3541  -17.9203   20.4972 H   0  0  0  0  0  0
  -31.0142  -22.9038   19.1567 H   0  0  0  0  0  0
  -31.3458  -24.3916   18.2803 H   0  0  0  0  0  0
  -31.3333  -25.4020   22.0287 H   0  0  0  0  0  0
  -30.5534  -23.8764   22.2734 H   0  0  0  0  0  0
  -33.3432  -23.0157   19.4354 H   0  0  0  0  0  0
  -33.1955  -26.0477   19.7998 H   0  0  0  0  0  0
  -33.6739  -25.2107   18.3330 H   0  0  0  0  0  0
  -34.6583  -25.0634   19.7723 H   0  0  0  0  0  0
  -34.2387  -24.8042   24.3183 H   0  0  0  0  0  0
  -33.4787  -23.2385   24.0978 H   0  0  0  0  0  0
  -32.5001  -24.7010   24.1096 H   0  0  0  0  0  0
  -29.2726  -20.2265   22.0160 H   0  0  0  0  0  0
  -29.8606  -19.6120   23.5242 H   0  0  0  0  0  0
  -33.6460  -25.5067   22.0438 H   0  0  0  0  0  0
  -34.6499  -24.1061   22.0011 H   0  0  0  0  0  0
  -28.8299  -24.3649   19.1146 H   0  0  0  0  0  0
  -28.8927  -23.4273   20.5877 H   0  0  0  0  0  0
  -28.6527  -25.6724   21.8756 H   0  0  0  0  0  0
  -27.2748  -25.1478   20.9540 H   0  0  0  0  0  0
  -28.7914  -18.1980   21.8470 H   0  0  0  0  0  0
  -30.7289  -25.6298   20.0528 H   0  0  0  0  0  0
  1 25  1  0  0  0
  1 30  2  0  0  0
  1 91  1  0  0  0
  2  3  1  0  0  0
  2 25  1  0  0  0
  2 94  1  0  0  0
  2 95  1  0  0  0
  3  4  1  0  0  0
  3 96  1  0  0  0
  3 97  1  0  0  0
  4  5  1  0  0  0
  4 98  1  0  0  0
  4 99  1  0  0  0
  5  6  1  0  0  0
  5 26  1  0  0  0
  5100  1  0  0  0
  6 25  1  0  0  0
  6101  1  0  0  0
  6102  1  0  0  0
  7  8  2  0  0  0
  7 26  1  0  0  0
  7 29  1  0  0  0
  8  9  1  0  0  0
  8 22  1  0  0  0
  9 10  1  0  0  0
  9 27  2  0  0  0
 10 11  2  0  0  0
 10 15  1  0  0  0
 11 12  1  0  0  0
 11103  1  0  0  0
 12 13  2  0  0  0
 12104  1  0  0  0
 13 14  1  0  0  0
 13 31  1  0  0  0
 14 15  2  0  0  0
 14105  1  0  0  0
 15106  1  0  0  0
 16 17  2  0  0  0
 16 21  1  0  0  0
 16 31  1  0  0  0
 17 18  1  0  0  0
 17107  1  0  0  0
 18 19  2  0  0  0
 18108  1  0  0  0
 19 20  1  0  0  0
 19 24  1  0  0  0
 20 21  2  0  0  0
 20109  1  0  0  0
 21 23  1  0  0  0
 22 28  1  0  0  0
 22 32  2  0  0  0
 26 27  1  0  0  0
 28110  1  0  0  0
 28111  1  0  0  0
 29112  1  0  0  0
 29113  1  0  0  0
 33 34  1  0  0  0
 33 66  1  0  0  0
 33 70  2  0  0  0
 34 36  1  0  0  0
 34 59  1  0  0  0
 34114  1  0  0  0
 35 44  2  0  0  0
 35 45  1  0  0  0
 35 68  1  0  0  0
 36 56  1  0  0  0
 36115  1  0  0  0
 37 39  1  0  0  0
 37 47  1  0  0  0
 37 66  1  0  0  0
 37116  1  0  0  0
 38 43  2  0  0  0
 38 46  1  0  0  0
 38 47  1  0  0  0
 39 64  1  0  0  0
 39 67  2  0  0  0
 40 52  1  0  0  0
 40 53  2  0  0  0
 40 58  1  0  0  0
 41117  1  0  0  0
 41118  1  0  0  0
 41119  1  0  0  0
 41 48  1  0  0  0
 42 43  1  0  0  0
 42 66  1  0  0  0
 42120  1  0  0  0
 42121  1  0  0  0
 43 44  1  0  0  0
 44122  1  0  0  0
 45 46  2  0  0  0
 45123  1  0  0  0
 46124  1  0  0  0
 47125  1  0  0  0
 47126  1  0  0  0
 48 56  1  0  0  0
 48 65  1  0  0  0
 48127  1  0  0  0
 49 50  1  0  0  0
 49 53  1  0  0  0
 49 64  1  0  0  0
 49128  1  0  0  0
 50 51  1  0  0  0
 50129  1  0  0  0
 50130  1  0  0  0
 51 52  1  0  0  0
 51131  1  0  0  0
 51132  1  0  0  0
 52133  1  0  0  0
 52134  1  0  0  0
 53 54  1  0  0  0
 54 55  2  0  0  0
 54135  1  0  0  0
 55 57  1  0  0  0
 55136  1  0  0  0
 56 69  2  0  0  0
 57 58  2  0  0  0
 57137  1  0  0  0
 58138  1  0  0  0
 59 60  1  0  0  0
 59 61  1  0  0  0
 59 62  1  0  0  0
 60139  1  0  0  0
 60140  1  0  0  0
 60141  1  0  0  0
 61142  1  0  0  0
 61143  1  0  0  0
 61144  1  0  0  0
 62145  1  0  0  0
 62146  1  0  0  0
 62147  1  0  0  0
 63 65  1  0  0  0
 63148  1  0  0  0
 63149  1  0  0  0
 63150  1  0  0  0
 64151  1  0  0  0
 65152  1  0  0  0
 68 88  1  0  0  0
 71 73  2  0  0  0
 71 89  1  0  0  0
 71153  1  0  0  0
 72 74  1  0  0  0
 72 89  2  0  0  0
 72154  1  0  0  0
 73 82  1  0  0  0
 73 90  1  0  0  0
 74 85  1  0  0  0
 74 90  2  0  0  0
 75 77  1  0  0  0
 75 91  1  0  0  0
 75155  1  0  0  0
 75156  1  0  0  0
 76 78  1  0  0  0
 76 91  1  0  0  0
 76157  1  0  0  0
 76158  1  0  0  0
 77 92  1  0  0  0
 77159  1  0  0  0
 77160  1  0  0  0
 78 92  1  0  0  0
 78161  1  0  0  0
 78162  1  0  0  0
 79 81  1  0  0  0
 79 93  1  0  0  0
 79163  1  0  0  0
 79164  1  0  0  0
 80 82  1  0  0  0
 80 93  1  0  0  0
 80165  1  0  0  0
 80166  1  0  0  0
 81 82  1  0  0  0
 81 83  1  0  0  0
 81167  1  0  0  0
 82 86  1  0  0  0
 83168  1  0  0  0
 83169  1  0  0  0
 83170  1  0  0  0
 84 86  1  0  0  0
 84171  1  0  0  0
 84172  1  0  0  0
 84173  1  0  0  0
 85174  1  0  0  0
 85175  1  0  0  0
 85 92  1  0  0  0
 86176  1  0  0  0
 86177  1  0  0  0
 87 88  1  0  0  0
 87178  1  0  0  0
 87179  1  0  0  0
 87 93  1  0  0  0
 88180  1  0  0  0
 88181  1  0  0  0
 92182  1  0  0  0
 93183  1  0  0  0
M  CHG  2  92   1  93   1
M  ISO  4   1 100  68 101  88 101  91 100
M  END
> <chiral flag>
0

> <version>
0

> <s_m_source_file>
/data/baiqing/PycharmProjects/Reinvent-master-3.2/result/LINK_invent/BTK/process_docking_weight1_custom_sum_contain_oxygen_bond_distance_aromatic_linkinvent_7_9_3/rearranged_h_0197.sdf

> <i_m_source_file_index>
84

> <r_mmod_Potential_Energy-OPLS-2005>
149.398315429688

> <r_mmod_Stretch_Energy-OPLS-2005>
44.7942123413086

> <r_mmod_Bend_Energy-OPLS-2005>
134.434432983398

> <r_mmod_Torsional_Energy-OPLS-2005>
510.419586181641

> <r_mmod_Improper_Torsional_Energy-OPLS-2005>
11.8893413543701

> <r_mmod_Van_der_Waal_Energy-OPLS-2005>
165.905364990234

> <r_mmod_Electrostatic_Energy-OPLS-2005>
121.967758178711

> <r_mmod_Solvation_Energy-OPLS-2005>
-850.1220703125

> <b_mmod_Minimization_Converged-OPLS-2005>
0

> <r_mmod_RMS_Derivative-OPLS-2005>
1.78433585166931

$$$$
85
                    3D
 Structure written by MMmdl.
166175  0  0  1  0            999 V2000
  -30.7260  -14.6750   20.4852 C   0  0  0  0  0  0
  -30.4115  -12.4402   19.4401 C   0  0  0  0  0  0
  -29.4897  -12.5027   18.2083 C   0  0  0  0  0  0
  -28.0194  -12.3330   18.6340 C   0  0  0  0  0  0
  -27.6361  -13.2297   19.8436 C   0  0  2  0  0  0
  -28.6946  -13.1640   20.9663 C   0  0  0  0  0  0
  -25.2490  -13.8200   20.5714 C   0  0  0  0  0  0
  -24.1789  -13.0438   20.9229 C   0  0  0  0  0  0
  -24.6378  -11.6917   20.8746 C   0  0  0  0  0  0
  -23.9063  -10.4284   21.0399 C   0  0  0  0  0  0
  -24.3617   -9.4203   21.9182 C   0  0  0  0  0  0
  -23.6294   -8.2230   22.0746 C   0  0  0  0  0  0
  -22.4272   -8.0266   21.3551 C   0  0  0  0  0  0
  -21.9910   -9.0233   20.4646 C   0  0  0  0  0  0
  -22.7232  -10.2120   20.3052 C   0  0  0  0  0  0
  -21.6847   -6.0722   22.5282 C   0  0  0  0  0  0
  -21.4014   -6.5628   23.8215 C   0  0  0  0  0  0
  -21.3663   -5.6785   24.9181 C   0  0  0  0  0  0
  -21.6044   -4.3043   24.7229 C   0  0  0  0  0  0
  -21.8820   -3.8133   23.4355 C   0  0  0  0  0  0
  -21.9199   -4.6948   22.3404 C   0  0  0  0  0  0
  -22.7808  -13.5216   21.1892 C   0  0  0  0  0  0
  -22.1658   -4.2129   21.0984 F   0  0  0  0  0  0
  -21.5633   -3.4532   25.7749 F   0  0  0  0  0  0
  -29.9793  -13.5245   20.3557 N   0  0  0  0  0  0
  -26.2920  -12.9404   20.3312 N   0  0  0  0  0  0
  -25.9307  -11.6551   20.5768 N   0  0  0  0  0  0
  -22.0438  -12.8195   22.0432 N   0  0  0  0  0  0
  -25.4135  -15.1928   20.4084 N   0  0  0  0  0  0
  -31.9368  -14.5953   20.2664 O   0  0  0  0  0  0
  -21.6643   -6.8857   21.4241 O   0  0  0  0  0  0
  -22.3486  -14.5515   20.6733 O   0  0  0  0  0  0
  -24.6249  -31.8603   23.2031 C   0  0  0  0  0  0
  -25.9107  -32.4779   23.8358 C   0  0  1  0  0  0
  -27.2124  -27.3252   20.1239 C   0  0  0  0  0  0
  -25.5930  -33.8583   24.2286 N   0  0  0  0  0  0
  -23.4186  -30.4848   21.5448 C   0  0  2  0  0  0
  -24.8664  -28.9436   20.1056 C   0  0  0  0  0  0
  -22.7475  -29.4631   22.4926 C   0  0  0  0  0  0
  -18.0291  -28.1383   22.8483 C   0  0  0  0  0  0
  -24.1493  -36.7291   23.2637 C   0  0  0  0  0  0
  -25.9594  -30.7950   21.3731 C   0  0  0  0  0  0
  -26.0350  -29.4241   20.7123 C   0  0  0  0  0  0
  -27.2174  -28.6265   20.7108 C   0  0  0  0  0  0
  -26.0302  -26.8961   19.4879 C   0  0  0  0  0  0
  -24.8655  -27.6865   19.4803 C   0  0  0  0  0  0
  -23.6324  -29.8215   20.1581 C   0  0  0  0  0  0
  -25.4114  -36.3087   24.0332 C   0  0  1  0  0  0
  -20.5894  -28.3694   23.1275 C   0  0  2  0  0  0
  -20.6781  -26.9411   22.5411 C   0  0  0  0  0  0
  -19.5760  -26.6384   21.5211 C   0  0  0  0  0  0
  -18.1937  -26.7930   22.1616 C   0  0  0  0  0  0
  -19.1545  -28.8858   23.2879 C   0  0  0  0  0  0
  -18.9462  -30.1461   23.8895 C   0  0  0  0  0  0
  -17.6465  -30.6582   24.0565 C   0  0  0  0  0  0
  -25.9054  -34.9454   23.5107 C   0  0  0  0  0  0
  -16.5357  -29.9078   23.6332 C   0  0  0  0  0  0
  -16.7279  -28.6503   23.0343 C   0  0  0  0  0  0
  -26.4489  -31.6581   25.0723 C   0  0  0  0  0  0
  -25.3725  -31.3725   26.1453 C   0  0  0  0  0  0
  -27.0321  -30.3003   24.6180 C   0  0  0  0  0  0
  -27.6064  -32.4304   25.7482 C   0  0  0  0  0  0
  -27.5591  -37.1792   24.8455 C   0  0  0  0  0  0
  -21.4192  -29.3045   22.3665 N   0  0  0  0  0  0
  -26.4292  -37.3780   23.9418 N   0  0  0  0  0  0
  -24.6868  -31.0618   22.0976 N   0  0  0  0  0  0
  -23.4200  -28.8170   23.3004 O   0  0  0  0  0  0
  -28.2813  -26.4269   20.1743 O   0  0  0  0  0  0
  -26.5621  -34.8920   22.4673 O   0  0  0  0  0  0
  -23.5418  -32.1398   23.7363 O   0  0  0  0  0  0
  -29.9692  -22.4753   19.7842 C   0  0  0  0  0  0
  -27.9546  -22.6634   20.5417 C   0  0  0  0  0  0
  -28.8201  -21.6749   20.0925 C   0  0  0  0  0  0
  -28.8915  -16.4899   20.9656 C   0  0  0  0  0  0
  -31.0413  -17.0807   19.9750 C   0  0  0  0  0  0
  -28.8712  -18.0213   21.4031 C   0  0  2  0  0  0
  -30.3233  -18.3605   19.4167 C   0  0  2  0  0  0
  -27.5070  -18.3890   22.0235 C   0  0  0  0  0  0
  -32.3230  -18.8194   17.7671 C   0  0  0  0  0  0
  -28.5390  -20.1390   19.8435 C   0  0  0  0  0  0
  -31.3399  -19.3696   18.8147 C   0  0  0  0  0  0
  -28.0395  -25.2557   20.9951 C   0  0  0  0  0  0
  -29.8183  -23.7843   20.0275 N   0  0  0  0  0  0
  -28.5517  -23.9356   20.4791 N   0  0  0  0  0  0
  -30.1683  -15.9580   20.4260 N   0  0  0  0  0  0
  -29.4463  -19.0422   20.4310 N   0  3  1  0  0  0
  -31.4498  -12.5335   19.1167 H   0  0  0  0  0  0
  -30.3415  -11.4678   19.9276 H   0  0  0  0  0  0
  -29.7630  -11.7286   17.4902 H   0  0  0  0  0  0
  -29.6201  -13.4570   17.6942 H   0  0  0  0  0  0
  -27.8740  -11.2835   18.8915 H   0  0  0  0  0  0
  -27.3563  -12.5330   17.7918 H   0  0  0  0  0  0
  -27.6254  -14.2473   19.4603 H   0  0  0  0  0  0
  -28.7465  -12.1601   21.3878 H   0  0  0  0  0  0
  -28.4395  -13.8116   21.8012 H   0  0  0  0  0  0
  -25.2755   -9.5681   22.4759 H   0  0  0  0  0  0
  -24.0008   -7.4617   22.7455 H   0  0  0  0  0  0
  -21.0838   -8.8750   19.8945 H   0  0  0  0  0  0
  -22.3689  -10.9655   19.6156 H   0  0  0  0  0  0
  -21.2003   -7.6140   23.9725 H   0  0  0  0  0  0
  -21.1484   -6.0508   25.9090 H   0  0  0  0  0  0
  -22.0599   -2.7588   23.2865 H   0  0  0  0  0  0
  -22.4054  -11.9895   22.4892 H   0  0  0  0  0  0
  -21.1051  -13.1216   22.2591 H   0  0  0  0  0  0
  -24.6363  -15.8376   20.5088 H   0  0  0  0  0  0
  -26.2497  -15.6314   20.0495 H   0  0  0  0  0  0
  -26.7178  -32.5451   23.1110 H   0  0  0  0  0  0
  -25.0080  -33.9728   25.0435 H   0  0  0  0  0  0
  -22.7128  -31.3056   21.4024 H   0  0  0  0  0  0
  -23.3766  -35.9610   23.3269 H   0  0  0  0  0  0
  -24.3597  -36.8939   22.2057 H   0  0  0  0  0  0
  -23.7228  -37.6479   23.6674 H   0  0  0  0  0  0
  -26.0913  -31.5620   20.6086 H   0  0  0  0  0  0
  -26.8389  -30.8406   22.0031 H   0  0  0  0  0  0
  -28.1138  -28.9847   21.1974 H   0  0  0  0  0  0
  -25.9995  -25.9227   19.0188 H   0  0  0  0  0  0
  -23.9705  -27.3137   19.0002 H   0  0  0  0  0  0
  -23.7469  -30.5990   19.4018 H   0  0  0  0  0  0
  -22.7535  -29.2479   19.8584 H   0  0  0  0  0  0
  -25.1294  -36.1927   25.0823 H   0  0  0  0  0  0
  -20.9995  -28.3271   24.1396 H   0  0  0  0  0  0
  -20.5670  -26.2305   23.3620 H   0  0  0  0  0  0
  -21.6650  -26.7436   22.1204 H   0  0  0  0  0  0
  -19.6914  -25.6291   21.1249 H   0  0  0  0  0  0
  -19.6699  -27.3194   20.6738 H   0  0  0  0  0  0
  -17.4210  -26.6691   21.4012 H   0  0  0  0  0  0
  -18.0328  -26.0067   22.9009 H   0  0  0  0  0  0
  -19.7942  -30.7286   24.2249 H   0  0  0  0  0  0
  -17.5013  -31.6263   24.5170 H   0  0  0  0  0  0
  -15.5349  -30.2975   23.7660 H   0  0  0  0  0  0
  -15.8682  -28.0823   22.7040 H   0  0  0  0  0  0
  -24.5908  -30.7059   25.7787 H   0  0  0  0  0  0
  -24.8900  -32.2888   26.4866 H   0  0  0  0  0  0
  -25.8045  -30.8917   27.0238 H   0  0  0  0  0  0
  -26.2893  -29.6757   24.1209 H   0  0  0  0  0  0
  -27.4018  -29.7257   25.4680 H   0  0  0  0  0  0
  -27.8761  -30.4278   23.9400 H   0  0  0  0  0  0
  -27.2701  -33.3613   26.2057 H   0  0  0  0  0  0
  -28.3872  -32.6844   25.0300 H   0  0  0  0  0  0
  -28.0735  -31.8426   26.5395 H   0  0  0  0  0  0
  -28.2575  -38.0122   24.7552 H   0  0  0  0  0  0
  -28.1123  -36.2661   24.6210 H   0  0  0  0  0  0
  -27.2327  -37.1347   25.8861 H   0  0  0  0  0  0
  -20.9359  -29.8763   21.6874 H   0  0  0  0  0  0
  -26.0171  -38.2849   24.1443 H   0  0  0  0  0  0
  -30.9149  -22.1557   19.3718 H   0  0  0  0  0  0
  -26.9374  -22.5645   20.8959 H   0  0  0  0  0  0
  -28.1208  -16.3281   20.2136 H   0  0  0  0  0  0
  -28.6079  -15.9075   21.8393 H   0  0  0  0  0  0
  -31.7079  -17.3548   20.7955 H   0  0  0  0  0  0
  -31.6877  -16.7104   19.1802 H   0  0  0  0  0  0
  -29.5722  -18.0777   22.2372 H   0  0  0  0  0  0
  -29.6779  -18.0185   18.6057 H   0  0  0  0  0  0
  -26.6923  -18.2833   21.3070 H   0  0  0  0  0  0
  -27.4995  -19.4075   22.4160 H   0  0  0  0  0  0
  -27.2732  -17.7274   22.8588 H   0  0  0  0  0  0
  -32.8648  -19.6375   17.2902 H   0  0  0  0  0  0
  -31.8122  -18.2648   16.9803 H   0  0  0  0  0  0
  -33.0741  -18.1685   18.2143 H   0  0  0  0  0  0
  -28.5149  -19.9793   18.7649 H   0  0  0  0  0  0
  -27.5008  -19.9397   20.0918 H   0  0  0  0  0  0
  -31.9120  -19.8430   19.6134 H   0  0  0  0  0  0
  -30.7914  -20.1669   18.3157 H   0  0  0  0  0  0
  -28.5186  -25.4308   21.9601 H   0  0  0  0  0  0
  -26.9769  -25.1221   21.2044 H   0  0  0  0  0  0
  -30.0783  -19.5620   21.0212 H   0  0  0  0  0  0
  1 25  1  0  0  0
  1 30  2  0  0  0
  1 85  1  0  0  0
  2  3  1  0  0  0
  2 25  1  0  0  0
  2 87  1  0  0  0
  2 88  1  0  0  0
  3  4  1  0  0  0
  3 89  1  0  0  0
  3 90  1  0  0  0
  4  5  1  0  0  0
  4 91  1  0  0  0
  4 92  1  0  0  0
  5  6  1  0  0  0
  5 26  1  0  0  0
  5 93  1  0  0  0
  6 25  1  0  0  0
  6 94  1  0  0  0
  6 95  1  0  0  0
  7  8  2  0  0  0
  7 26  1  0  0  0
  7 29  1  0  0  0
  8  9  1  0  0  0
  8 22  1  0  0  0
  9 10  1  0  0  0
  9 27  2  0  0  0
 10 11  2  0  0  0
 10 15  1  0  0  0
 11 12  1  0  0  0
 11 96  1  0  0  0
 12 13  2  0  0  0
 12 97  1  0  0  0
 13 14  1  0  0  0
 13 31  1  0  0  0
 14 15  2  0  0  0
 14 98  1  0  0  0
 15 99  1  0  0  0
 16 17  2  0  0  0
 16 21  1  0  0  0
 16 31  1  0  0  0
 17 18  1  0  0  0
 17100  1  0  0  0
 18 19  2  0  0  0
 18101  1  0  0  0
 19 20  1  0  0  0
 19 24  1  0  0  0
 20 21  2  0  0  0
 20102  1  0  0  0
 21 23  1  0  0  0
 22 28  1  0  0  0
 22 32  2  0  0  0
 26 27  1  0  0  0
 28103  1  0  0  0
 28104  1  0  0  0
 29105  1  0  0  0
 29106  1  0  0  0
 33 34  1  0  0  0
 33 66  1  0  0  0
 33 70  2  0  0  0
 34 36  1  0  0  0
 34 59  1  0  0  0
 34107  1  0  0  0
 35 44  2  0  0  0
 35 45  1  0  0  0
 35 68  1  0  0  0
 36 56  1  0  0  0
 36108  1  0  0  0
 37 39  1  0  0  0
 37 47  1  0  0  0
 37 66  1  0  0  0
 37109  1  0  0  0
 38 43  2  0  0  0
 38 46  1  0  0  0
 38 47  1  0  0  0
 39 64  1  0  0  0
 39 67  2  0  0  0
 40 52  1  0  0  0
 40 53  2  0  0  0
 40 58  1  0  0  0
 41110  1  0  0  0
 41111  1  0  0  0
 41112  1  0  0  0
 41 48  1  0  0  0
 42 43  1  0  0  0
 42 66  1  0  0  0
 42113  1  0  0  0
 42114  1  0  0  0
 43 44  1  0  0  0
 44115  1  0  0  0
 45 46  2  0  0  0
 45116  1  0  0  0
 46117  1  0  0  0
 47118  1  0  0  0
 47119  1  0  0  0
 48 56  1  0  0  0
 48 65  1  0  0  0
 48120  1  0  0  0
 49 50  1  0  0  0
 49 53  1  0  0  0
 49 64  1  0  0  0
 49121  1  0  0  0
 50 51  1  0  0  0
 50122  1  0  0  0
 50123  1  0  0  0
 51 52  1  0  0  0
 51124  1  0  0  0
 51125  1  0  0  0
 52126  1  0  0  0
 52127  1  0  0  0
 53 54  1  0  0  0
 54 55  2  0  0  0
 54128  1  0  0  0
 55 57  1  0  0  0
 55129  1  0  0  0
 56 69  2  0  0  0
 57 58  2  0  0  0
 57130  1  0  0  0
 58131  1  0  0  0
 59 60  1  0  0  0
 59 61  1  0  0  0
 59 62  1  0  0  0
 60132  1  0  0  0
 60133  1  0  0  0
 60134  1  0  0  0
 61135  1  0  0  0
 61136  1  0  0  0
 61137  1  0  0  0
 62138  1  0  0  0
 62139  1  0  0  0
 62140  1  0  0  0
 63 65  1  0  0  0
 63141  1  0  0  0
 63142  1  0  0  0
 63143  1  0  0  0
 64144  1  0  0  0
 65145  1  0  0  0
 68 82  1  0  0  0
 71 73  1  0  0  0
 71 83  2  0  0  0
 71146  1  0  0  0
 72 73  2  0  0  0
 72 84  1  0  0  0
 72147  1  0  0  0
 73 80  1  0  0  0
 74 76  1  0  0  0
 74 85  1  0  0  0
 74148  1  0  0  0
 74149  1  0  0  0
 75 77  1  0  0  0
 75 85  1  0  0  0
 75150  1  0  0  0
 75151  1  0  0  0
 76 78  1  0  0  0
 76 86  1  0  0  0
 76152  1  0  0  0
 77 81  1  0  0  0
 77 86  1  0  0  0
 77153  1  0  0  0
 78154  1  0  0  0
 78155  1  0  0  0
 78156  1  0  0  0
 79 81  1  0  0  0
 79157  1  0  0  0
 79158  1  0  0  0
 79159  1  0  0  0
 80160  1  0  0  0
 80161  1  0  0  0
 80 86  1  0  0  0
 81162  1  0  0  0
 81163  1  0  0  0
 82 84  1  0  0  0
 82164  1  0  0  0
 82165  1  0  0  0
 83 84  1  0  0  0
 86166  1  0  0  0
M  CHG  1  86   1
M  ISO  4   1 100  68 101  82 101  85 100
M  END
> <chiral flag>
0

> <version>
0

> <s_m_source_file>
/data/baiqing/PycharmProjects/Reinvent-master-3.2/result/LINK_invent/BTK/process_docking_weight1_custom_sum_contain_oxygen_bond_distance_aromatic_linkinvent_7_9_3/rearranged_h_0197.sdf

> <i_m_source_file_index>
85

> <r_mmod_Potential_Energy-OPLS-2005>
257.651184082031

> <r_mmod_Stretch_Energy-OPLS-2005>
94.2285385131836

> <r_mmod_Bend_Energy-OPLS-2005>
190.824966430664

> <r_mmod_Torsional_Energy-OPLS-2005>
407.31982421875

> <r_mmod_Improper_Torsional_Energy-OPLS-2005>
14.1487188339233

> <r_mmod_Van_der_Waal_Energy-OPLS-2005>
139.474761962891

> <r_mmod_Electrostatic_Energy-OPLS-2005>
-193.676879882812

> <r_mmod_Solvation_Energy-OPLS-2005>
-464.685760498047

> <b_mmod_Minimization_Converged-OPLS-2005>
0

> <r_mmod_RMS_Derivative-OPLS-2005>
2.24330139160156

$$$$
86
                    3D
 Structure written by MMmdl.
169178  0  0  1  0            999 V2000
  -30.6679  -14.4950   20.5949 C   0  0  0  0  0  0
  -30.4355  -12.3323   19.4162 C   0  0  0  0  0  0
  -29.4996  -12.5222   18.2016 C   0  0  0  0  0  0
  -28.0164  -12.3828   18.6083 C   0  0  0  0  0  0
  -27.6631  -13.2004   19.8808 C   0  0  2  0  0  0
  -28.7066  -12.9274   20.9851 C   0  0  0  0  0  0
  -25.2603  -13.8150   20.5701 C   0  0  0  0  0  0
  -24.1841  -13.0442   20.9185 C   0  0  0  0  0  0
  -24.6379  -11.6901   20.8732 C   0  0  0  0  0  0
  -23.9036  -10.4299   21.0402 C   0  0  0  0  0  0
  -24.3597   -9.4217   21.9179 C   0  0  0  0  0  0
  -23.6291   -8.2240   22.0744 C   0  0  0  0  0  0
  -22.4276   -8.0264   21.3535 C   0  0  0  0  0  0
  -21.9900   -9.0236   20.4645 C   0  0  0  0  0  0
  -22.7212  -10.2124   20.3055 C   0  0  0  0  0  0
  -21.6847   -6.0729   22.5281 C   0  0  0  0  0  0
  -21.4005   -6.5637   23.8217 C   0  0  0  0  0  0
  -21.3666   -5.6788   24.9182 C   0  0  0  0  0  0
  -21.6049   -4.3053   24.7229 C   0  0  0  0  0  0
  -21.8817   -3.8142   23.4354 C   0  0  0  0  0  0
  -21.9194   -4.6955   22.3410 C   0  0  0  0  0  0
  -22.7877  -13.5251   21.1843 C   0  0  0  0  0  0
  -22.1664   -4.2145   21.0985 F   0  0  0  0  0  0
  -21.5639   -3.4533   25.7744 F   0  0  0  0  0  0
  -30.0248  -13.2986   20.4497 N   0  0  0  0  0  0
  -26.3029  -12.9299   20.3388 N   0  0  0  0  0  0
  -25.9300  -11.6463   20.5756 N   0  0  0  0  0  0
  -22.0490  -12.8264   22.0404 N   0  0  0  0  0  0
  -25.4364  -15.1860   20.4114 N   0  0  0  0  0  0
  -31.7916  -14.6866   20.1134 O   0  0  0  0  0  0
  -21.6639   -6.8865   21.4243 O   0  0  0  0  0  0
  -22.3587  -14.5558   20.6680 O   0  0  0  0  0  0
  -24.6124  -31.8689   23.2108 C   0  0  0  0  0  0
  -25.9013  -32.4832   23.8402 C   0  0  1  0  0  0
  -27.2410  -27.4416   20.1006 C   0  0  0  0  0  0
  -25.5850  -33.8632   24.2326 N   0  0  0  0  0  0
  -23.4017  -30.4901   21.5504 C   0  0  2  0  0  0
  -24.8531  -28.9564   20.1171 C   0  0  0  0  0  0
  -22.7410  -29.4648   22.4996 C   0  0  0  0  0  0
  -18.0266  -28.1387   22.8494 C   0  0  0  0  0  0
  -24.1479  -36.7338   23.2638 C   0  0  0  0  0  0
  -25.9299  -30.8346   21.3670 C   0  0  0  0  0  0
  -26.0099  -29.4672   20.7204 C   0  0  0  0  0  0
  -27.2068  -28.7144   20.7195 C   0  0  0  0  0  0
  -26.0740  -26.9509   19.4832 C   0  0  0  0  0  0
  -24.8788  -27.6946   19.4974 C   0  0  0  0  0  0
  -23.6128  -29.8198   20.1660 C   0  0  0  0  0  0
  -25.4100  -36.3130   24.0337 C   0  0  1  0  0  0
  -20.5856  -28.3662   23.1331 C   0  0  2  0  0  0
  -20.6762  -26.9403   22.5425 C   0  0  0  0  0  0
  -19.5738  -26.6388   21.5227 C   0  0  0  0  0  0
  -18.1913  -26.7936   22.1629 C   0  0  0  0  0  0
  -19.1517  -28.8840   23.2910 C   0  0  0  0  0  0
  -18.9444  -30.1446   23.8916 C   0  0  0  0  0  0
  -17.6450  -30.6591   24.0559 C   0  0  0  0  0  0
  -25.9022  -34.9489   23.5138 C   0  0  0  0  0  0
  -16.5341  -29.9092   23.6324 C   0  0  0  0  0  0
  -16.7256  -28.6511   23.0344 C   0  0  0  0  0  0
  -26.4442  -31.6609   25.0729 C   0  0  0  0  0  0
  -25.3702  -31.3737   26.1476 C   0  0  0  0  0  0
  -27.0252  -30.3038   24.6110 C   0  0  0  0  0  0
  -27.6028  -32.4326   25.7472 C   0  0  0  0  0  0
  -27.5586  -37.1820   24.8453 C   0  0  0  0  0  0
  -21.4138  -29.3025   22.3739 N   0  0  0  0  0  0
  -26.4295  -37.3806   23.9402 N   0  0  0  0  0  0
  -24.6656  -31.0790   22.1013 N   0  0  0  0  0  0
  -23.4197  -28.8195   23.3029 O   0  0  0  0  0  0
  -28.3682  -26.6507   20.0387 O   0  0  0  0  0  0
  -26.5613  -34.8935   22.4716 O   0  0  0  0  0  0
  -23.5316  -32.1432   23.7510 O   0  0  0  0  0  0
  -30.1949  -20.1557   21.0049 C   0  0  0  0  0  0
  -29.1462  -19.2956   20.8016 C   0  0  0  0  0  0
  -29.7021  -21.4516   20.6596 C   0  0  0  0  0  0
  -29.2844  -17.3431   22.4636 C   0  0  0  0  0  0
  -29.4117  -15.8203   22.3194 C   0  0  0  0  0  0
  -29.9497  -16.8584   20.2535 C   0  0  0  0  0  0
  -29.0190  -17.8013   21.0383 C   0  0  2  0  0  0
  -25.8047  -20.8100   19.5559 C   0  0  0  0  0  0
  -31.1223  -25.3756   22.2741 C   0  0  0  0  0  0
  -30.4121  -22.7917   20.7156 C   0  0  0  0  0  0
  -26.7394  -19.6659   19.9909 C   0  0  0  0  0  0
  -29.0264  -26.3967   21.2787 C   0  0  0  0  0  0
  -30.0933  -25.2746   21.1244 C   0  0  2  0  0  0
  -28.4398  -21.3925   20.2651 N   0  0  0  0  0  0
  -28.0937  -20.0829   20.3478 N   0  0  0  0  0  0
  -29.8886  -15.5573   20.9510 N   0  0  0  0  0  0
  -29.4863  -23.9072   21.0463 N   0  3  0  0  0  0
  -31.4761  -12.4616   19.1130 H   0  0  0  0  0  0
  -30.3667  -11.3137   19.8001 H   0  0  0  0  0  0
  -29.7443  -11.7990   17.4219 H   0  0  0  0  0  0
  -29.6662  -13.5072   17.7613 H   0  0  0  0  0  0
  -27.8206  -11.3247   18.7845 H   0  0  0  0  0  0
  -27.3696  -12.6767   17.7811 H   0  0  0  0  0  0
  -27.7173  -14.2567   19.6153 H   0  0  0  0  0  0
  -28.7051  -11.8671   21.2411 H   0  0  0  0  0  0
  -28.4585  -13.4196   21.9174 H   0  0  0  0  0  0
  -25.2737   -9.5708   22.4752 H   0  0  0  0  0  0
  -24.0010   -7.4635   22.7456 H   0  0  0  0  0  0
  -21.0830   -8.8741   19.8960 H   0  0  0  0  0  0
  -22.3654  -10.9654   19.6161 H   0  0  0  0  0  0
  -21.1981   -7.6138   23.9722 H   0  0  0  0  0  0
  -21.1497   -6.0516   25.9087 H   0  0  0  0  0  0
  -22.0593   -2.7600   23.2854 H   0  0  0  0  0  0
  -22.4083  -11.9934   22.4824 H   0  0  0  0  0  0
  -21.1093  -13.1295   22.2545 H   0  0  0  0  0  0
  -24.6735  -15.8453   20.5177 H   0  0  0  0  0  0
  -26.2965  -15.6177   20.1006 H   0  0  0  0  0  0
  -26.7094  -32.5552   23.1180 H   0  0  0  0  0  0
  -24.9929  -33.9783   25.0420 H   0  0  0  0  0  0
  -22.6891  -31.3053   21.4096 H   0  0  0  0  0  0
  -23.3738  -35.9673   23.3306 H   0  0  0  0  0  0
  -24.3573  -36.8950   22.2053 H   0  0  0  0  0  0
  -23.7240  -37.6547   23.6650 H   0  0  0  0  0  0
  -26.0388  -31.5981   20.5961 H   0  0  0  0  0  0
  -26.8185  -30.8937   21.9832 H   0  0  0  0  0  0
  -28.0971  -29.1214   21.1776 H   0  0  0  0  0  0
  -26.0889  -25.9855   18.9978 H   0  0  0  0  0  0
  -23.9918  -27.2967   19.0244 H   0  0  0  0  0  0
  -23.7155  -30.5909   19.4014 H   0  0  0  0  0  0
  -22.7395  -29.2330   19.8752 H   0  0  0  0  0  0
  -25.1288  -36.2004   25.0834 H   0  0  0  0  0  0
  -20.9942  -28.3226   24.1454 H   0  0  0  0  0  0
  -20.5671  -26.2271   23.3606 H   0  0  0  0  0  0
  -21.6630  -26.7449   22.1208 H   0  0  0  0  0  0
  -19.6887  -25.6303   21.1239 H   0  0  0  0  0  0
  -19.6685  -27.3211   20.6771 H   0  0  0  0  0  0
  -17.4193  -26.6691   21.4023 H   0  0  0  0  0  0
  -18.0293  -26.0080   22.9021 H   0  0  0  0  0  0
  -19.7920  -30.7250   24.2304 H   0  0  0  0  0  0
  -17.5004  -31.6270   24.5158 H   0  0  0  0  0  0
  -15.5342  -30.2996   23.7639 H   0  0  0  0  0  0
  -15.8657  -28.0832   22.7051 H   0  0  0  0  0  0
  -24.5843  -30.7125   25.7805 H   0  0  0  0  0  0
  -24.8932  -32.2909   26.4943 H   0  0  0  0  0  0
  -25.8027  -30.8871   27.0227 H   0  0  0  0  0  0
  -26.2793  -29.6844   24.1115 H   0  0  0  0  0  0
  -27.3943  -29.7239   25.4579 H   0  0  0  0  0  0
  -27.8666  -30.4338   23.9301 H   0  0  0  0  0  0
  -27.2642  -33.3596   26.2112 H   0  0  0  0  0  0
  -28.3787  -32.6947   25.0266 H   0  0  0  0  0  0
  -28.0756  -31.8424   26.5333 H   0  0  0  0  0  0
  -28.2606  -38.0118   24.7511 H   0  0  0  0  0  0
  -28.1087  -36.2656   24.6267 H   0  0  0  0  0  0
  -27.2308  -37.1455   25.8855 H   0  0  0  0  0  0
  -20.9302  -29.8740   21.6952 H   0  0  0  0  0  0
  -26.0199  -38.2887   24.1412 H   0  0  0  0  0  0
  -31.1784  -19.8952   21.3682 H   0  0  0  0  0  0
  -30.2262  -17.7623   22.8215 H   0  0  0  0  0  0
  -28.4980  -17.6424   23.1582 H   0  0  0  0  0  0
  -28.4134  -15.4078   22.4536 H   0  0  0  0  0  0
  -30.0641  -15.3892   23.0806 H   0  0  0  0  0  0
  -30.9749  -17.2330   20.2764 H   0  0  0  0  0  0
  -29.6485  -16.7692   19.2086 H   0  0  0  0  0  0
  -27.9999  -17.4950   20.7994 H   0  0  0  0  0  0
  -24.8208  -20.4248   19.2904 H   0  0  0  0  0  0
  -26.1964  -21.3383   18.6860 H   0  0  0  0  0  0
  -25.6668  -21.5362   20.3581 H   0  0  0  0  0  0
  -31.5265  -26.3859   22.3507 H   0  0  0  0  0  0
  -31.9800  -24.7208   22.1263 H   0  0  0  0  0  0
  -30.6750  -25.1342   23.2389 H   0  0  0  0  0  0
  -30.8969  -22.9958   19.7608 H   0  0  0  0  0  0
  -31.2051  -22.7356   21.4595 H   0  0  0  0  0  0
  -26.8150  -18.9308   19.1884 H   0  0  0  0  0  0
  -26.3041  -19.1541   20.8508 H   0  0  0  0  0  0
  -29.5147  -27.3213   21.5886 H   0  0  0  0  0  0
  -28.3065  -26.1418   22.0586 H   0  0  0  0  0  0
  -30.6243  -25.4620   20.1899 H   0  0  0  0  0  0
  -29.0255  -23.6621   21.9079 H   0  0  0  0  0  0
  -28.7775  -23.8843   20.3278 H   0  0  0  0  0  0
  1 25  1  0  0  0
  1 30  2  0  0  0
  1 86  1  0  0  0
  2  3  1  0  0  0
  2 25  1  0  0  0
  2 88  1  0  0  0
  2 89  1  0  0  0
  3  4  1  0  0  0
  3 90  1  0  0  0
  3 91  1  0  0  0
  4  5  1  0  0  0
  4 92  1  0  0  0
  4 93  1  0  0  0
  5  6  1  0  0  0
  5 26  1  0  0  0
  5 94  1  0  0  0
  6 25  1  0  0  0
  6 95  1  0  0  0
  6 96  1  0  0  0
  7  8  2  0  0  0
  7 26  1  0  0  0
  7 29  1  0  0  0
  8  9  1  0  0  0
  8 22  1  0  0  0
  9 10  1  0  0  0
  9 27  2  0  0  0
 10 11  2  0  0  0
 10 15  1  0  0  0
 11 12  1  0  0  0
 11 97  1  0  0  0
 12 13  2  0  0  0
 12 98  1  0  0  0
 13 14  1  0  0  0
 13 31  1  0  0  0
 14 15  2  0  0  0
 14 99  1  0  0  0
 15100  1  0  0  0
 16 17  2  0  0  0
 16 21  1  0  0  0
 16 31  1  0  0  0
 17 18  1  0  0  0
 17101  1  0  0  0
 18 19  2  0  0  0
 18102  1  0  0  0
 19 20  1  0  0  0
 19 24  1  0  0  0
 20 21  2  0  0  0
 20103  1  0  0  0
 21 23  1  0  0  0
 22 28  1  0  0  0
 22 32  2  0  0  0
 26 27  1  0  0  0
 28104  1  0  0  0
 28105  1  0  0  0
 29106  1  0  0  0
 29107  1  0  0  0
 33 34  1  0  0  0
 33 66  1  0  0  0
 33 70  2  0  0  0
 34 36  1  0  0  0
 34 59  1  0  0  0
 34108  1  0  0  0
 35 44  2  0  0  0
 35 45  1  0  0  0
 35 68  1  0  0  0
 36 56  1  0  0  0
 36109  1  0  0  0
 37 39  1  0  0  0
 37 47  1  0  0  0
 37 66  1  0  0  0
 37110  1  0  0  0
 38 43  2  0  0  0
 38 46  1  0  0  0
 38 47  1  0  0  0
 39 64  1  0  0  0
 39 67  2  0  0  0
 40 52  1  0  0  0
 40 53  2  0  0  0
 40 58  1  0  0  0
 41111  1  0  0  0
 41112  1  0  0  0
 41113  1  0  0  0
 41 48  1  0  0  0
 42 43  1  0  0  0
 42 66  1  0  0  0
 42114  1  0  0  0
 42115  1  0  0  0
 43 44  1  0  0  0
 44116  1  0  0  0
 45 46  2  0  0  0
 45117  1  0  0  0
 46118  1  0  0  0
 47119  1  0  0  0
 47120  1  0  0  0
 48 56  1  0  0  0
 48 65  1  0  0  0
 48121  1  0  0  0
 49 50  1  0  0  0
 49 53  1  0  0  0
 49 64  1  0  0  0
 49122  1  0  0  0
 50 51  1  0  0  0
 50123  1  0  0  0
 50124  1  0  0  0
 51 52  1  0  0  0
 51125  1  0  0  0
 51126  1  0  0  0
 52127  1  0  0  0
 52128  1  0  0  0
 53 54  1  0  0  0
 54 55  2  0  0  0
 54129  1  0  0  0
 55 57  1  0  0  0
 55130  1  0  0  0
 56 69  2  0  0  0
 57 58  2  0  0  0
 57131  1  0  0  0
 58132  1  0  0  0
 59 60  1  0  0  0
 59 61  1  0  0  0
 59 62  1  0  0  0
 60133  1  0  0  0
 60134  1  0  0  0
 60135  1  0  0  0
 61136  1  0  0  0
 61137  1  0  0  0
 61138  1  0  0  0
 62139  1  0  0  0
 62140  1  0  0  0
 62141  1  0  0  0
 63 65  1  0  0  0
 63142  1  0  0  0
 63143  1  0  0  0
 63144  1  0  0  0
 64145  1  0  0  0
 65146  1  0  0  0
 68 82  1  0  0  0
 71 72  2  0  0  0
 71 73  1  0  0  0
 71147  1  0  0  0
 72 85  1  0  0  0
 72 77  1  0  0  0
 73 80  1  0  0  0
 73 84  2  0  0  0
 74 75  1  0  0  0
 74 77  1  0  0  0
 74148  1  0  0  0
 74149  1  0  0  0
 75 86  1  0  0  0
 75150  1  0  0  0
 75151  1  0  0  0
 76 77  1  0  0  0
 76 86  1  0  0  0
 76152  1  0  0  0
 76153  1  0  0  0
 77154  1  0  0  0
 78 81  1  0  0  0
 78155  1  0  0  0
 78156  1  0  0  0
 78157  1  0  0  0
 79158  1  0  0  0
 79159  1  0  0  0
 79160  1  0  0  0
 79 83  1  0  0  0
 80 87  1  0  0  0
 80161  1  0  0  0
 80162  1  0  0  0
 81 85  1  0  0  0
 81163  1  0  0  0
 81164  1  0  0  0
 82 83  1  0  0  0
 82165  1  0  0  0
 82166  1  0  0  0
 83 87  1  0  0  0
 83167  1  0  0  0
 84 85  1  0  0  0
 87168  1  0  0  0
 87169  1  0  0  0
M  CHG  1  87   1
M  ISO  4   1 100  68 101  82 101  86 100
M  END
> <chiral flag>
0

> <version>
0

> <s_m_source_file>
/data/baiqing/PycharmProjects/Reinvent-master-3.2/result/LINK_invent/BTK/process_docking_weight1_custom_sum_contain_oxygen_bond_distance_aromatic_linkinvent_7_9_3/rearranged_h_0197.sdf

> <i_m_source_file_index>
86

> <r_mmod_Potential_Energy-OPLS-2005>
-42.8098640441895

> <r_mmod_Stretch_Energy-OPLS-2005>
39.7837677001953

> <r_mmod_Bend_Energy-OPLS-2005>
130.011001586914

> <r_mmod_Torsional_Energy-OPLS-2005>
350.092346191406

> <r_mmod_Improper_Torsional_Energy-OPLS-2005>
12.0036268234253

> <r_mmod_Van_der_Waal_Energy-OPLS-2005>
125.010147094727

> <r_mmod_Electrostatic_Energy-OPLS-2005>
-307.919158935547

> <r_mmod_Solvation_Energy-OPLS-2005>
-404.762664794922

> <b_mmod_Minimization_Converged-OPLS-2005>
0

> <r_mmod_RMS_Derivative-OPLS-2005>
1.64104473590851

$$$$
87
                    3D
 Structure written by MMmdl.
176186  0  0  1  0            999 V2000
  -30.6787  -14.5527   20.4281 C   0  0  0  0  0  0
  -30.4278  -12.3043   19.4450 C   0  0  0  0  0  0
  -29.4960  -12.3565   18.2159 C   0  0  0  0  0  0
  -28.0102  -12.2860   18.6344 C   0  0  0  0  0  0
  -27.6416  -13.1955   19.8380 C   0  0  2  0  0  0
  -28.6926  -13.0667   20.9566 C   0  0  0  0  0  0
  -25.2481  -13.8076   20.5650 C   0  0  0  0  0  0
  -24.1790  -13.0385   20.9235 C   0  0  0  0  0  0
  -24.6341  -11.6863   20.8804 C   0  0  0  0  0  0
  -23.9002  -10.4277   21.0434 C   0  0  0  0  0  0
  -24.3571   -9.4183   21.9186 C   0  0  0  0  0  0
  -23.6278   -8.2205   22.0703 C   0  0  0  0  0  0
  -22.4259   -8.0241   21.3505 C   0  0  0  0  0  0
  -21.9893   -9.0215   20.4606 C   0  0  0  0  0  0
  -22.7185  -10.2120   20.3058 C   0  0  0  0  0  0
  -21.6837   -6.0714   22.5262 C   0  0  0  0  0  0
  -21.4013   -6.5623   23.8197 C   0  0  0  0  0  0
  -21.3655   -5.6781   24.9167 C   0  0  0  0  0  0
  -21.6045   -4.3044   24.7215 C   0  0  0  0  0  0
  -21.8839   -3.8133   23.4339 C   0  0  0  0  0  0
  -21.9214   -4.6951   22.3394 C   0  0  0  0  0  0
  -22.7796  -13.5138   21.1899 C   0  0  0  0  0  0
  -22.1680   -4.2137   21.0971 F   0  0  0  0  0  0
  -21.5646   -3.4537   25.7739 F   0  0  0  0  0  0
  -30.0103  -13.3646   20.3764 N   0  0  0  0  0  0
  -26.2924  -12.9267   20.3275 N   0  0  0  0  0  0
  -25.9262  -11.6456   20.5850 N   0  0  0  0  0  0
  -22.0478  -12.8157   22.0492 N   0  0  0  0  0  0
  -25.4047  -15.1765   20.3981 N   0  0  0  0  0  0
  -31.8921  -14.6222   20.2364 O   0  0  0  0  0  0
  -21.6614   -6.8849   21.4216 O   0  0  0  0  0  0
  -22.3446  -14.5425   20.6711 O   0  0  0  0  0  0
  -24.6112  -31.8707   23.2111 C   0  0  0  0  0  0
  -25.9016  -32.4832   23.8406 C   0  0  1  0  0  0
  -27.2354  -27.4521   20.1055 C   0  0  0  0  0  0
  -25.5877  -33.8628   24.2326 N   0  0  0  0  0  0
  -23.3993  -30.4908   21.5514 C   0  0  2  0  0  0
  -24.8471  -28.9575   20.1168 C   0  0  0  0  0  0
  -22.7379  -29.4652   22.5002 C   0  0  0  0  0  0
  -18.0255  -28.1354   22.8495 C   0  0  0  0  0  0
  -24.1488  -36.7344   23.2639 C   0  0  0  0  0  0
  -25.9242  -30.8422   21.3595 C   0  0  0  0  0  0
  -26.0045  -29.4763   20.7107 C   0  0  0  0  0  0
  -27.2038  -28.7297   20.7039 C   0  0  0  0  0  0
  -26.0661  -26.9428   19.5029 C   0  0  0  0  0  0
  -24.8722  -27.6883   19.5076 C   0  0  0  0  0  0
  -23.6072  -29.8202   20.1659 C   0  0  0  0  0  0
  -25.4108  -36.3131   24.0339 C   0  0  1  0  0  0
  -20.5849  -28.3643   23.1335 C   0  0  2  0  0  0
  -20.6741  -26.9381   22.5413 C   0  0  0  0  0  0
  -19.5723  -26.6365   21.5205 C   0  0  0  0  0  0
  -18.1908  -26.7902   22.1627 C   0  0  0  0  0  0
  -19.1501  -28.8815   23.2915 C   0  0  0  0  0  0
  -18.9434  -30.1426   23.8914 C   0  0  0  0  0  0
  -17.6437  -30.6569   24.0561 C   0  0  0  0  0  0
  -25.9028  -34.9487   23.5128 C   0  0  0  0  0  0
  -16.5324  -29.9080   23.6312 C   0  0  0  0  0  0
  -16.7248  -28.6489   23.0350 C   0  0  0  0  0  0
  -26.4449  -31.6593   25.0716 C   0  0  0  0  0  0
  -25.3714  -31.3715   26.1466 C   0  0  0  0  0  0
  -27.0262  -30.3048   24.6035 C   0  0  0  0  0  0
  -27.6036  -32.4302   25.7472 C   0  0  0  0  0  0
  -27.5582  -37.1825   24.8457 C   0  0  0  0  0  0
  -21.4111  -29.3040   22.3749 N   0  0  0  0  0  0
  -26.4294  -37.3812   23.9398 N   0  0  0  0  0  0
  -24.6643  -31.0793   22.1012 N   0  0  0  0  0  0
  -23.4167  -28.8177   23.3021 O   0  0  0  0  0  0
  -28.3951  -26.7164   20.0839 O   0  0  0  0  0  0
  -26.5597  -34.8931   22.4701 O   0  0  0  0  0  0
  -23.5309  -32.1453   23.7513 O   0  0  0  0  0  0
  -31.0613  -23.9010   19.3418 C   0  0  0  0  0  0
  -29.5117  -23.2691   20.7549 C   0  0  0  0  0  0
  -30.5602  -22.7590   20.0293 C   0  0  0  0  0  0
  -28.8231  -17.1356   18.5720 C   0  0  0  0  0  0
  -28.2803  -17.2745   19.9857 C   0  0  0  0  0  0
  -29.7141  -15.9192   18.6723 C   0  0  0  0  0  0
  -28.9162  -16.4022   22.3184 C   0  0  0  0  0  0
  -30.7183  -17.8172   22.7119 C   0  0  0  0  0  0
  -29.4315  -16.8282   20.9071 C   0  0  2  0  0  0
  -30.4553  -18.0322   21.2004 C   0  0  2  0  0  0
  -31.7967  -17.9460   20.4402 C   0  0  0  0  0  0
  -28.8744  -20.5973   19.0272 C   0  0  0  0  0  0
  -31.1118  -21.3427   19.8955 C   0  0  0  0  0  0
  -29.8764  -19.5164   21.0943 C   0  0  0  0  0  0
  -28.3860  -25.5708   20.9028 C   0  0  0  0  0  0
  -30.3663  -25.0005   19.5851 N   0  0  0  0  0  0
  -29.3871  -24.6130   20.4360 N   0  0  0  0  0  0
  -29.9111  -15.6409   20.1069 N   0  0  0  0  0  0
  -29.4321  -17.3855   23.2734 N   0  3  0  0  0  0
  -30.1044  -20.2384   19.7983 N   0  3  1  0  0  0
  -31.4675  -12.4048   19.1280 H   0  0  0  0  0  0
  -30.3497  -11.3275   19.9263 H   0  0  0  0  0  0
  -29.7129  -11.5098   17.5651 H   0  0  0  0  0  0
  -29.7039  -13.2214   17.5948 H   0  0  0  0  0  0
  -27.8196  -11.2490   18.9141 H   0  0  0  0  0  0
  -27.3569  -12.4771   17.7813 H   0  0  0  0  0  0
  -27.6435  -14.2191   19.4744 H   0  0  0  0  0  0
  -28.6857  -12.0575   21.3697 H   0  0  0  0  0  0
  -28.4377  -13.7197   21.7842 H   0  0  0  0  0  0
  -25.2733   -9.5689   22.4727 H   0  0  0  0  0  0
  -23.9976   -7.4603   22.7428 H   0  0  0  0  0  0
  -21.0814   -8.8737   19.8926 H   0  0  0  0  0  0
  -22.3622  -10.9639   19.6157 H   0  0  0  0  0  0
  -21.1984   -7.6132   23.9679 H   0  0  0  0  0  0
  -21.1437   -6.0521   25.9059 H   0  0  0  0  0  0
  -22.0618   -2.7583   23.2853 H   0  0  0  0  0  0
  -22.4064  -11.9783   22.4870 H   0  0  0  0  0  0
  -21.1104  -13.1192   22.2720 H   0  0  0  0  0  0
  -24.6148  -15.8065   20.4768 H   0  0  0  0  0  0
  -26.2183  -15.6004   19.9738 H   0  0  0  0  0  0
  -26.7081  -32.5568   23.1173 H   0  0  0  0  0  0
  -24.9985  -33.9773   25.0438 H   0  0  0  0  0  0
  -22.6885  -31.3087   21.4116 H   0  0  0  0  0  0
  -23.3730  -35.9694   23.3323 H   0  0  0  0  0  0
  -24.3558  -36.8935   22.2041 H   0  0  0  0  0  0
  -23.7243  -37.6562   23.6632 H   0  0  0  0  0  0
  -26.0177  -31.6077   20.5886 H   0  0  0  0  0  0
  -26.8200  -30.9072   21.9659 H   0  0  0  0  0  0
  -28.0991  -29.1251   21.1625 H   0  0  0  0  0  0
  -26.0818  -25.9717   19.0274 H   0  0  0  0  0  0
  -23.9824  -27.2820   19.0464 H   0  0  0  0  0  0
  -23.7150  -30.5953   19.4074 H   0  0  0  0  0  0
  -22.7342  -29.2379   19.8689 H   0  0  0  0  0  0
  -25.1278  -36.2022   25.0830 H   0  0  0  0  0  0
  -20.9931  -28.3179   24.1455 H   0  0  0  0  0  0
  -20.5633  -26.2238   23.3584 H   0  0  0  0  0  0
  -21.6617  -26.7419   22.1226 H   0  0  0  0  0  0
  -19.6894  -25.6277   21.1234 H   0  0  0  0  0  0
  -19.6672  -27.3192   20.6746 H   0  0  0  0  0  0
  -17.4179  -26.6657   21.4027 H   0  0  0  0  0  0
  -18.0320  -26.0020   22.9005 H   0  0  0  0  0  0
  -19.7905  -30.7245   24.2299 H   0  0  0  0  0  0
  -17.4988  -31.6245   24.5165 H   0  0  0  0  0  0
  -15.5325  -30.3004   23.7604 H   0  0  0  0  0  0
  -15.8646  -28.0813   22.7066 H   0  0  0  0  0  0
  -24.5859  -30.7101   25.7797 H   0  0  0  0  0  0
  -24.8956  -32.2887   26.4946 H   0  0  0  0  0  0
  -25.8067  -30.8847   27.0202 H   0  0  0  0  0  0
  -26.2801  -29.6834   24.1067 H   0  0  0  0  0  0
  -27.4029  -29.7245   25.4462 H   0  0  0  0  0  0
  -27.8632  -30.4383   23.9180 H   0  0  0  0  0  0
  -27.2656  -33.3566   26.2123 H   0  0  0  0  0  0
  -28.3812  -32.6913   25.0290 H   0  0  0  0  0  0
  -28.0735  -31.8384   26.5326 H   0  0  0  0  0  0
  -28.2624  -38.0103   24.7491 H   0  0  0  0  0  0
  -28.1067  -36.2635   24.6326 H   0  0  0  0  0  0
  -27.2287  -37.1521   25.8856 H   0  0  0  0  0  0
  -20.9253  -29.8809   21.7029 H   0  0  0  0  0  0
  -26.0207  -38.2904   24.1393 H   0  0  0  0  0  0
  -31.8972  -23.9601   18.6581 H   0  0  0  0  0  0
  -28.8168  -22.7903   21.4299 H   0  0  0  0  0  0
  -29.4434  -17.9700   18.2662 H   0  0  0  0  0  0
  -28.0306  -17.0099   17.8317 H   0  0  0  0  0  0
  -27.4661  -16.5667   20.0883 H   0  0  0  0  0  0
  -27.8249  -18.2372   20.1827 H   0  0  0  0  0  0
  -30.6564  -16.0594   18.1365 H   0  0  0  0  0  0
  -29.1835  -15.1155   18.1772 H   0  0  0  0  0  0
  -29.3286  -15.4506   22.6435 H   0  0  0  0  0  0
  -27.8289  -16.3314   22.3850 H   0  0  0  0  0  0
  -31.1427  -18.6796   23.2273 H   0  0  0  0  0  0
  -31.4282  -17.0017   22.8578 H   0  0  0  0  0  0
  -32.4705  -18.7533   20.7264 H   0  0  0  0  0  0
  -31.6624  -17.9913   19.3609 H   0  0  0  0  0  0
  -32.3350  -17.0280   20.6651 H   0  0  0  0  0  0
  -28.7016  -19.9029   18.2095 H   0  0  0  0  0  0
  -28.9394  -21.5631   18.5307 H   0  0  0  0  0  0
  -27.9733  -20.6170   19.6410 H   0  0  0  0  0  0
  -31.8583  -21.1278   20.6624 H   0  0  0  0  0  0
  -31.6790  -21.2831   18.9661 H   0  0  0  0  0  0
  -30.3415  -20.1357   21.8592 H   0  0  0  0  0  0
  -28.8347  -19.5721   21.4072 H   0  0  0  0  0  0
  -28.6275  -25.8493   21.9292 H   0  0  0  0  0  0
  -27.4173  -25.0679   20.9066 H   0  0  0  0  0  0
  -29.5396  -16.9881   24.1937 H   0  0  0  0  0  0
  -28.7930  -18.1583   23.3494 H   0  0  0  0  0  0
  -30.5780  -19.5508   19.2308 H   0  0  0  0  0  0
  1 25  1  0  0  0
  1 30  2  0  0  0
  1 88  1  0  0  0
  2  3  1  0  0  0
  2 25  1  0  0  0
  2 91  1  0  0  0
  2 92  1  0  0  0
  3  4  1  0  0  0
  3 93  1  0  0  0
  3 94  1  0  0  0
  4  5  1  0  0  0
  4 95  1  0  0  0
  4 96  1  0  0  0
  5  6  1  0  0  0
  5 26  1  0  0  0
  5 97  1  0  0  0
  6 25  1  0  0  0
  6 98  1  0  0  0
  6 99  1  0  0  0
  7  8  2  0  0  0
  7 26  1  0  0  0
  7 29  1  0  0  0
  8  9  1  0  0  0
  8 22  1  0  0  0
  9 10  1  0  0  0
  9 27  2  0  0  0
 10 11  2  0  0  0
 10 15  1  0  0  0
 11 12  1  0  0  0
 11100  1  0  0  0
 12 13  2  0  0  0
 12101  1  0  0  0
 13 14  1  0  0  0
 13 31  1  0  0  0
 14 15  2  0  0  0
 14102  1  0  0  0
 15103  1  0  0  0
 16 17  2  0  0  0
 16 21  1  0  0  0
 16 31  1  0  0  0
 17 18  1  0  0  0
 17104  1  0  0  0
 18 19  2  0  0  0
 18105  1  0  0  0
 19 20  1  0  0  0
 19 24  1  0  0  0
 20 21  2  0  0  0
 20106  1  0  0  0
 21 23  1  0  0  0
 22 28  1  0  0  0
 22 32  2  0  0  0
 26 27  1  0  0  0
 28107  1  0  0  0
 28108  1  0  0  0
 29109  1  0  0  0
 29110  1  0  0  0
 33 34  1  0  0  0
 33 66  1  0  0  0
 33 70  2  0  0  0
 34 36  1  0  0  0
 34 59  1  0  0  0
 34111  1  0  0  0
 35 44  2  0  0  0
 35 45  1  0  0  0
 35 68  1  0  0  0
 36 56  1  0  0  0
 36112  1  0  0  0
 37 39  1  0  0  0
 37 47  1  0  0  0
 37 66  1  0  0  0
 37113  1  0  0  0
 38 43  2  0  0  0
 38 46  1  0  0  0
 38 47  1  0  0  0
 39 64  1  0  0  0
 39 67  2  0  0  0
 40 52  1  0  0  0
 40 53  2  0  0  0
 40 58  1  0  0  0
 41114  1  0  0  0
 41115  1  0  0  0
 41116  1  0  0  0
 41 48  1  0  0  0
 42 43  1  0  0  0
 42 66  1  0  0  0
 42117  1  0  0  0
 42118  1  0  0  0
 43 44  1  0  0  0
 44119  1  0  0  0
 45 46  2  0  0  0
 45120  1  0  0  0
 46121  1  0  0  0
 47122  1  0  0  0
 47123  1  0  0  0
 48 56  1  0  0  0
 48 65  1  0  0  0
 48124  1  0  0  0
 49 50  1  0  0  0
 49 53  1  0  0  0
 49 64  1  0  0  0
 49125  1  0  0  0
 50 51  1  0  0  0
 50126  1  0  0  0
 50127  1  0  0  0
 51 52  1  0  0  0
 51128  1  0  0  0
 51129  1  0  0  0
 52130  1  0  0  0
 52131  1  0  0  0
 53 54  1  0  0  0
 54 55  2  0  0  0
 54132  1  0  0  0
 55 57  1  0  0  0
 55133  1  0  0  0
 56 69  2  0  0  0
 57 58  2  0  0  0
 57134  1  0  0  0
 58135  1  0  0  0
 59 60  1  0  0  0
 59 61  1  0  0  0
 59 62  1  0  0  0
 60136  1  0  0  0
 60137  1  0  0  0
 60138  1  0  0  0
 61139  1  0  0  0
 61140  1  0  0  0
 61141  1  0  0  0
 62142  1  0  0  0
 62143  1  0  0  0
 62144  1  0  0  0
 63 65  1  0  0  0
 63145  1  0  0  0
 63146  1  0  0  0
 63147  1  0  0  0
 64148  1  0  0  0
 65149  1  0  0  0
 68 85  1  0  0  0
 71 73  1  0  0  0
 71 86  2  0  0  0
 71150  1  0  0  0
 72 73  2  0  0  0
 72 87  1  0  0  0
 72151  1  0  0  0
 73 83  1  0  0  0
 74 75  1  0  0  0
 74 76  1  0  0  0
 74152  1  0  0  0
 74153  1  0  0  0
 75154  1  0  0  0
 75155  1  0  0  0
 75 79  1  0  0  0
 76 88  1  0  0  0
 76156  1  0  0  0
 76157  1  0  0  0
 77 79  1  0  0  0
 77 89  1  0  0  0
 77158  1  0  0  0
 77159  1  0  0  0
 78 80  1  0  0  0
 78 89  1  0  0  0
 78160  1  0  0  0
 78161  1  0  0  0
 79 80  1  0  0  0
 79 88  1  0  0  0
 80 81  1  0  0  0
 80 84  1  0  0  0
 81162  1  0  0  0
 81163  1  0  0  0
 81164  1  0  0  0
 82165  1  0  0  0
 82166  1  0  0  0
 82167  1  0  0  0
 82 90  1  0  0  0
 83 90  1  0  0  0
 83168  1  0  0  0
 83169  1  0  0  0
 84 90  1  0  0  0
 84170  1  0  0  0
 84171  1  0  0  0
 85 87  1  0  0  0
 85172  1  0  0  0
 85173  1  0  0  0
 86 87  1  0  0  0
 89174  1  0  0  0
 89175  1  0  0  0
 90176  1  0  0  0
M  CHG  2  89   1  90   1
M  ISO  4   1 100  68 101  85 101  88 100
M  END
> <chiral flag>
0

> <version>
0

> <s_m_source_file>
/data/baiqing/PycharmProjects/Reinvent-master-3.2/result/LINK_invent/BTK/process_docking_weight1_custom_sum_contain_oxygen_bond_distance_aromatic_linkinvent_7_9_3/rearranged_h_0197.sdf

> <i_m_source_file_index>
87

> <r_mmod_Potential_Energy-OPLS-2005>
169.275833129883

> <r_mmod_Stretch_Energy-OPLS-2005>
58.7838973999023

> <r_mmod_Bend_Energy-OPLS-2005>
197.370208740234

> <r_mmod_Torsional_Energy-OPLS-2005>
550.002868652344

> <r_mmod_Improper_Torsional_Energy-OPLS-2005>
20.7709159851074

> <r_mmod_Van_der_Waal_Energy-OPLS-2005>
136.763549804688

> <r_mmod_Electrostatic_Energy-OPLS-2005>
195.300430297852

> <r_mmod_Solvation_Energy-OPLS-2005>
-1021.62054443359

> <b_mmod_Minimization_Converged-OPLS-2005>
0

> <r_mmod_RMS_Derivative-OPLS-2005>
4.45798873901367

$$$$
88
                    3D
 Structure written by MMmdl.
180191  0  0  1  0            999 V2000
  -30.7626  -14.4063   20.6501 C   0  0  0  0  0  0
  -30.4150  -12.2993   19.4157 C   0  0  0  0  0  0
  -29.4920  -12.5276   18.2040 C   0  0  0  0  0  0
  -28.0150  -12.3787   18.6124 C   0  0  0  0  0  0
  -27.6653  -13.2027   19.8788 C   0  0  2  0  0  0
  -28.7032  -12.9605   21.0007 C   0  0  0  0  0  0
  -25.2602  -13.8165   20.5678 C   0  0  0  0  0  0
  -24.1839  -13.0455   20.9164 C   0  0  0  0  0  0
  -24.6378  -11.6914   20.8729 C   0  0  0  0  0  0
  -23.9034  -10.4305   21.0409 C   0  0  0  0  0  0
  -24.3581   -9.4226   21.9187 C   0  0  0  0  0  0
  -23.6275   -8.2252   22.0744 C   0  0  0  0  0  0
  -22.4254   -8.0280   21.3539 C   0  0  0  0  0  0
  -21.9888   -9.0254   20.4642 C   0  0  0  0  0  0
  -22.7205  -10.2144   20.3057 C   0  0  0  0  0  0
  -21.6849   -6.0742   22.5275 C   0  0  0  0  0  0
  -21.4016   -6.5638   23.8215 C   0  0  0  0  0  0
  -21.3662   -5.6776   24.9170 C   0  0  0  0  0  0
  -21.6040   -4.3041   24.7213 C   0  0  0  0  0  0
  -21.8817   -3.8142   23.4322 C   0  0  0  0  0  0
  -21.9198   -4.6973   22.3393 C   0  0  0  0  0  0
  -22.7868  -13.5273   21.1828 C   0  0  0  0  0  0
  -22.1663   -4.2168   21.0965 F   0  0  0  0  0  0
  -21.5634   -3.4513   25.7720 F   0  0  0  0  0  0
  -30.0448  -13.2621   20.4695 N   0  0  0  0  0  0
  -26.3031  -12.9316   20.3355 N   0  0  0  0  0  0
  -25.9295  -11.6482   20.5729 N   0  0  0  0  0  0
  -22.0463  -12.8306   22.0385 N   0  0  0  0  0  0
  -25.4335  -15.1884   20.4110 N   0  0  0  0  0  0
  -31.8028  -14.6301   20.0226 O   0  0  0  0  0  0
  -21.6622   -6.8877   21.4233 O   0  0  0  0  0  0
  -22.3575  -14.5580   20.6656 O   0  0  0  0  0  0
  -24.6123  -31.8697   23.2116 C   0  0  0  0  0  0
  -25.9024  -32.4837   23.8409 C   0  0  1  0  0  0
  -27.2496  -27.4711   20.0820 C   0  0  0  0  0  0
  -25.5894  -33.8633   24.2345 N   0  0  0  0  0  0
  -23.4000  -30.4927   21.5510 C   0  0  2  0  0  0
  -24.8520  -28.9649   20.1143 C   0  0  0  0  0  0
  -22.7402  -29.4664   22.5002 C   0  0  0  0  0  0
  -18.0268  -28.1369   22.8494 C   0  0  0  0  0  0
  -24.1486  -36.7320   23.2640 C   0  0  0  0  0  0
  -25.9263  -30.8482   21.3593 C   0  0  0  0  0  0
  -26.0108  -29.4861   20.7056 C   0  0  0  0  0  0
  -27.2156  -28.7477   20.6915 C   0  0  0  0  0  0
  -26.0707  -26.9533   19.5111 C   0  0  0  0  0  0
  -24.8744  -27.6941   19.5158 C   0  0  0  0  0  0
  -23.6084  -29.8231   20.1663 C   0  0  0  0  0  0
  -25.4106  -36.3121   24.0343 C   0  0  1  0  0  0
  -20.5857  -28.3653   23.1323 C   0  0  2  0  0  0
  -20.6754  -26.9392   22.5417 C   0  0  0  0  0  0
  -19.5736  -26.6382   21.5207 C   0  0  0  0  0  0
  -18.1916  -26.7916   22.1623 C   0  0  0  0  0  0
  -19.1516  -28.8825   23.2904 C   0  0  0  0  0  0
  -18.9447  -30.1436   23.8907 C   0  0  0  0  0  0
  -17.6452  -30.6581   24.0558 C   0  0  0  0  0  0
  -25.9029  -34.9484   23.5142 C   0  0  0  0  0  0
  -16.5341  -29.9082   23.6328 C   0  0  0  0  0  0
  -16.7257  -28.6498   23.0350 C   0  0  0  0  0  0
  -26.4475  -31.6607   25.0722 C   0  0  0  0  0  0
  -25.3765  -31.3710   26.1492 C   0  0  0  0  0  0
  -27.0289  -30.3050   24.6066 C   0  0  0  0  0  0
  -27.6068  -32.4315   25.7461 C   0  0  0  0  0  0
  -27.5580  -37.1814   24.8468 C   0  0  0  0  0  0
  -21.4129  -29.3025   22.3737 N   0  0  0  0  0  0
  -26.4299  -37.3796   23.9403 N   0  0  0  0  0  0
  -24.6641  -31.0827   22.1004 N   0  0  0  0  0  0
  -23.4186  -28.8210   23.3035 O   0  0  0  0  0  0
  -28.3455  -26.6393   20.0564 O   0  0  0  0  0  0
  -26.5581  -34.8930   22.4694 O   0  0  0  0  0  0
  -23.5313  -32.1430   23.7531 O   0  0  0  0  0  0
  -29.8758  -17.5351   19.1083 C   0  0  0  0  0  0
  -29.7993  -18.5864   18.2425 C   0  0  0  0  0  0
  -29.8940  -19.7364   19.0812 C   0  0  0  0  0  0
  -28.2995  -18.9265   16.1352 C   0  0  0  0  0  0
  -28.7353  -17.4803   16.1214 C   0  0  0  0  0  0
  -28.5571  -21.9033   19.0947 C   0  0  0  0  0  0
  -31.0374  -22.0379   19.0479 C   0  0  0  0  0  0
  -31.1543  -16.4427   22.0389 C   0  0  0  0  0  0
  -29.1288  -16.0245   21.7299 C   0  0  0  0  0  0
  -28.4653  -23.2965   18.4373 C   0  0  0  0  0  0
  -30.9506  -23.4434   18.4082 C   0  0  0  0  0  0
  -29.6203  -18.5325   16.7510 C   0  0  0  0  0  0
  -29.8305  -21.1839   18.6358 C   0  0  1  0  0  0
  -29.9593  -17.3031   21.6229 C   0  0  0  0  0  0
  -30.3980  -27.8105   17.5857 C   0  0  0  0  0  0
  -29.5582  -25.4432   17.9410 C   0  0  0  0  0  0
  -29.6627  -27.1564   19.9208 C   0  0  0  0  0  0
  -30.2927  -26.6519   18.5931 C   0  0  2  0  0  0
  -29.9884  -19.4044   20.3680 N   0  0  0  0  0  0
  -29.9516  -18.0465   20.3840 N   0  0  0  0  0  0
  -30.3807  -15.2537   21.6341 N   0  0  0  0  0  0
  -29.6634  -24.1520   18.6871 N   0  3  1  0  0  0
  -31.4599  -12.3856   19.1122 H   0  0  0  0  0  0
  -30.3079  -11.2800   19.7897 H   0  0  0  0  0  0
  -29.7340  -11.8232   17.4067 H   0  0  0  0  0  0
  -29.6637  -13.5237   17.7936 H   0  0  0  0  0  0
  -27.8241  -11.3205   18.7935 H   0  0  0  0  0  0
  -27.3655  -12.6679   17.7857 H   0  0  0  0  0  0
  -27.7129  -14.2506   19.5877 H   0  0  0  0  0  0
  -28.6706  -11.9193   21.3216 H   0  0  0  0  0  0
  -28.4551  -13.5314   21.8946 H   0  0  0  0  0  0
  -25.2742   -9.5717   22.4749 H   0  0  0  0  0  0
  -24.0002   -7.4642   22.7451 H   0  0  0  0  0  0
  -21.0827   -8.8766   19.8946 H   0  0  0  0  0  0
  -22.3668  -10.9670   19.6151 H   0  0  0  0  0  0
  -21.2004   -7.6145   23.9729 H   0  0  0  0  0  0
  -21.1483   -6.0497   25.9077 H   0  0  0  0  0  0
  -22.0598   -2.7611   23.2799 H   0  0  0  0  0  0
  -22.4028  -11.9970   22.4821 H   0  0  0  0  0  0
  -21.1075  -13.1369   22.2513 H   0  0  0  0  0  0
  -24.6693  -15.8448   20.5256 H   0  0  0  0  0  0
  -26.2826  -15.6258   20.0785 H   0  0  0  0  0  0
  -26.7099  -32.5573   23.1180 H   0  0  0  0  0  0
  -25.0064  -33.9799   25.0504 H   0  0  0  0  0  0
  -22.6872  -31.3085   21.4121 H   0  0  0  0  0  0
  -23.3737  -35.9670   23.3341 H   0  0  0  0  0  0
  -24.3575  -36.8886   22.2048 H   0  0  0  0  0  0
  -23.7257  -37.6549   23.6617 H   0  0  0  0  0  0
  -26.0317  -31.6174   20.5927 H   0  0  0  0  0  0
  -26.8160  -30.9043   21.9744 H   0  0  0  0  0  0
  -28.0966  -29.1514   21.1684 H   0  0  0  0  0  0
  -26.0795  -25.9712   19.0604 H   0  0  0  0  0  0
  -23.9819  -27.2814   19.0661 H   0  0  0  0  0  0
  -23.7060  -30.5957   19.4032 H   0  0  0  0  0  0
  -22.7367  -29.2340   19.8765 H   0  0  0  0  0  0
  -25.1283  -36.1993   25.0835 H   0  0  0  0  0  0
  -20.9951  -28.3211   24.1440 H   0  0  0  0  0  0
  -20.5652  -26.2259   23.3600 H   0  0  0  0  0  0
  -21.6624  -26.7436   22.1213 H   0  0  0  0  0  0
  -19.6900  -25.6298   21.1223 H   0  0  0  0  0  0
  -19.6679  -27.3200   20.6745 H   0  0  0  0  0  0
  -17.4190  -26.6667   21.4020 H   0  0  0  0  0  0
  -18.0320  -26.0052   22.9011 H   0  0  0  0  0  0
  -19.7923  -30.7238   24.2286 H   0  0  0  0  0  0
  -17.5013  -31.6263   24.5156 H   0  0  0  0  0  0
  -15.5345  -30.2987   23.7646 H   0  0  0  0  0  0
  -15.8658  -28.0820   22.7063 H   0  0  0  0  0  0
  -24.5875  -30.7136   25.7824 H   0  0  0  0  0  0
  -24.9037  -32.2875   26.5028 H   0  0  0  0  0  0
  -25.8131  -30.8792   27.0192 H   0  0  0  0  0  0
  -26.2800  -29.6805   24.1176 H   0  0  0  0  0  0
  -27.4128  -29.7292   25.4498 H   0  0  0  0  0  0
  -27.8612  -30.4372   23.9147 H   0  0  0  0  0  0
  -27.2705  -33.3602   26.2073 H   0  0  0  0  0  0
  -28.3847  -32.6893   25.0265 H   0  0  0  0  0  0
  -28.0770  -31.8418   26.5338 H   0  0  0  0  0  0
  -28.2627  -38.0087   24.7484 H   0  0  0  0  0  0
  -28.1044  -36.2611   24.6326 H   0  0  0  0  0  0
  -27.2293  -37.1514   25.8874 H   0  0  0  0  0  0
  -20.9288  -29.8753   21.6967 H   0  0  0  0  0  0
  -26.0196  -38.2882   24.1382 H   0  0  0  0  0  0
  -29.8386  -16.4733   18.9170 H   0  0  0  0  0  0
  -27.4915  -19.2043   16.8091 H   0  0  0  0  0  0
  -28.3242  -19.4653   15.1908 H   0  0  0  0  0  0
  -29.0534  -17.0617   15.1684 H   0  0  0  0  0  0
  -28.2023  -16.7933   16.7762 H   0  0  0  0  0  0
  -27.6803  -21.3160   18.8194 H   0  0  0  0  0  0
  -28.5378  -21.9871   20.1834 H   0  0  0  0  0  0
  -31.0928  -22.1171   20.1352 H   0  0  0  0  0  0
  -31.9610  -21.5522   18.7297 H   0  0  0  0  0  0
  -31.3648  -16.4797   23.1093 H   0  0  0  0  0  0
  -32.0556  -16.6597   21.4639 H   0  0  0  0  0  0
  -28.4266  -15.9020   20.9076 H   0  0  0  0  0  0
  -28.6228  -15.9200   22.6921 H   0  0  0  0  0  0
  -27.5734  -23.8055   18.8079 H   0  0  0  0  0  0
  -28.3258  -23.1775   17.3613 H   0  0  0  0  0  0
  -31.0780  -23.3411   17.3296 H   0  0  0  0  0  0
  -31.7861  -24.0510   18.7573 H   0  0  0  0  0  0
  -30.5231  -18.8099   16.2096 H   0  0  0  0  0  0
  -29.8138  -21.1758   17.5447 H   0  0  0  0  0  0
  -29.6879  -18.0082   22.4108 H   0  0  0  0  0  0
  -30.8575  -27.4890   16.6507 H   0  0  0  0  0  0
  -31.0123  -28.6198   17.9803 H   0  0  0  0  0  0
  -29.4184  -28.2254   17.3499 H   0  0  0  0  0  0
  -29.9279  -25.2864   16.9262 H   0  0  0  0  0  0
  -28.5101  -25.7120   17.8021 H   0  0  0  0  0  0
  -29.7182  -28.2429   19.9912 H   0  0  0  0  0  0
  -30.2419  -26.7748   20.7622 H   0  0  0  0  0  0
  -31.3200  -26.3561   18.8061 H   0  0  0  0  0  0
  -29.6410  -24.3786   19.6709 H   0  0  0  0  0  0
  1 25  1  0  0  0
  1 30  2  0  0  0
  1 91  1  0  0  0
  2  3  1  0  0  0
  2 25  1  0  0  0
  2 93  1  0  0  0
  2 94  1  0  0  0
  3  4  1  0  0  0
  3 95  1  0  0  0
  3 96  1  0  0  0
  4  5  1  0  0  0
  4 97  1  0  0  0
  4 98  1  0  0  0
  5  6  1  0  0  0
  5 26  1  0  0  0
  5 99  1  0  0  0
  6 25  1  0  0  0
  6100  1  0  0  0
  6101  1  0  0  0
  7  8  2  0  0  0
  7 26  1  0  0  0
  7 29  1  0  0  0
  8  9  1  0  0  0
  8 22  1  0  0  0
  9 10  1  0  0  0
  9 27  2  0  0  0
 10 11  2  0  0  0
 10 15  1  0  0  0
 11 12  1  0  0  0
 11102  1  0  0  0
 12 13  2  0  0  0
 12103  1  0  0  0
 13 14  1  0  0  0
 13 31  1  0  0  0
 14 15  2  0  0  0
 14104  1  0  0  0
 15105  1  0  0  0
 16 17  2  0  0  0
 16 21  1  0  0  0
 16 31  1  0  0  0
 17 18  1  0  0  0
 17106  1  0  0  0
 18 19  2  0  0  0
 18107  1  0  0  0
 19 20  1  0  0  0
 19 24  1  0  0  0
 20 21  2  0  0  0
 20108  1  0  0  0
 21 23  1  0  0  0
 22 28  1  0  0  0
 22 32  2  0  0  0
 26 27  1  0  0  0
 28109  1  0  0  0
 28110  1  0  0  0
 29111  1  0  0  0
 29112  1  0  0  0
 33 34  1  0  0  0
 33 66  1  0  0  0
 33 70  2  0  0  0
 34 36  1  0  0  0
 34 59  1  0  0  0
 34113  1  0  0  0
 35 44  2  0  0  0
 35 45  1  0  0  0
 35 68  1  0  0  0
 36 56  1  0  0  0
 36114  1  0  0  0
 37 39  1  0  0  0
 37 47  1  0  0  0
 37 66  1  0  0  0
 37115  1  0  0  0
 38 43  2  0  0  0
 38 46  1  0  0  0
 38 47  1  0  0  0
 39 64  1  0  0  0
 39 67  2  0  0  0
 40 52  1  0  0  0
 40 53  2  0  0  0
 40 58  1  0  0  0
 41116  1  0  0  0
 41117  1  0  0  0
 41118  1  0  0  0
 41 48  1  0  0  0
 42 43  1  0  0  0
 42 66  1  0  0  0
 42119  1  0  0  0
 42120  1  0  0  0
 43 44  1  0  0  0
 44121  1  0  0  0
 45 46  2  0  0  0
 45122  1  0  0  0
 46123  1  0  0  0
 47124  1  0  0  0
 47125  1  0  0  0
 48 56  1  0  0  0
 48 65  1  0  0  0
 48126  1  0  0  0
 49 50  1  0  0  0
 49 53  1  0  0  0
 49 64  1  0  0  0
 49127  1  0  0  0
 50 51  1  0  0  0
 50128  1  0  0  0
 50129  1  0  0  0
 51 52  1  0  0  0
 51130  1  0  0  0
 51131  1  0  0  0
 52132  1  0  0  0
 52133  1  0  0  0
 53 54  1  0  0  0
 54 55  2  0  0  0
 54134  1  0  0  0
 55 57  1  0  0  0
 55135  1  0  0  0
 56 69  2  0  0  0
 57 58  2  0  0  0
 57136  1  0  0  0
 58137  1  0  0  0
 59 60  1  0  0  0
 59 61  1  0  0  0
 59 62  1  0  0  0
 60138  1  0  0  0
 60139  1  0  0  0
 60140  1  0  0  0
 61141  1  0  0  0
 61142  1  0  0  0
 61143  1  0  0  0
 62144  1  0  0  0
 62145  1  0  0  0
 62146  1  0  0  0
 63 65  1  0  0  0
 63147  1  0  0  0
 63148  1  0  0  0
 63149  1  0  0  0
 64150  1  0  0  0
 65151  1  0  0  0
 68 87  1  0  0  0
 71 72  2  0  0  0
 71 90  1  0  0  0
 71152  1  0  0  0
 72 73  1  0  0  0
 72 82  1  0  0  0
 73 89  2  0  0  0
 73 83  1  0  0  0
 74 75  1  0  0  0
 74 82  1  0  0  0
 74153  1  0  0  0
 74154  1  0  0  0
 75 82  1  0  0  0
 75155  1  0  0  0
 75156  1  0  0  0
 76 80  1  0  0  0
 76 83  1  0  0  0
 76157  1  0  0  0
 76158  1  0  0  0
 77 81  1  0  0  0
 77 83  1  0  0  0
 77159  1  0  0  0
 77160  1  0  0  0
 78 84  1  0  0  0
 78 91  1  0  0  0
 78161  1  0  0  0
 78162  1  0  0  0
 79 84  1  0  0  0
 79 91  1  0  0  0
 79163  1  0  0  0
 79164  1  0  0  0
 80 92  1  0  0  0
 80165  1  0  0  0
 80166  1  0  0  0
 81 92  1  0  0  0
 81167  1  0  0  0
 81168  1  0  0  0
 82169  1  0  0  0
 83170  1  0  0  0
 84 90  1  0  0  0
 84171  1  0  0  0
 85172  1  0  0  0
 85173  1  0  0  0
 85174  1  0  0  0
 85 88  1  0  0  0
 86 88  1  0  0  0
 86175  1  0  0  0
 86176  1  0  0  0
 86 92  1  0  0  0
 87 88  1  0  0  0
 87177  1  0  0  0
 87178  1  0  0  0
 88179  1  0  0  0
 89 90  1  0  0  0
 92180  1  0  0  0
M  CHG  1  92   1
M  ISO  4   1 100  68 101  87 101  91 100
M  END
> <chiral flag>
0

> <version>
0

> <s_m_source_file>
/data/baiqing/PycharmProjects/Reinvent-master-3.2/result/LINK_invent/BTK/process_docking_weight1_custom_sum_contain_oxygen_bond_distance_aromatic_linkinvent_7_9_3/rearranged_h_0197.sdf

> <i_m_source_file_index>
88

> <r_mmod_Potential_Energy-OPLS-2005>
-59.798656463623

> <r_mmod_Stretch_Energy-OPLS-2005>
38.688720703125

> <r_mmod_Bend_Energy-OPLS-2005>
125.480743408203

> <r_mmod_Torsional_Energy-OPLS-2005>
349.2744140625

> <r_mmod_Improper_Torsional_Energy-OPLS-2005>
9.08194255828857

> <r_mmod_Van_der_Waal_Energy-OPLS-2005>
122.731430053711

> <r_mmod_Electrostatic_Energy-OPLS-2005>
-294.338775634766

> <r_mmod_Solvation_Energy-OPLS-2005>
-419.239624023438

> <b_mmod_Minimization_Converged-OPLS-2005>
0

> <r_mmod_RMS_Derivative-OPLS-2005>
2.21049284934998

$$$$
89
                    3D
 Structure written by MMmdl.
165174  0  0  1  0            999 V2000
  -28.0123  -17.1104   20.7905 C   0  0  0  0  0  0
  -29.6284  -14.5710   19.7326 C   0  0  0  0  0  0
  -29.3923  -13.3448   18.6644 C   0  0  0  0  0  0
  -28.2258  -12.4378   19.0438 C   0  0  0  0  0  0
  -27.3638  -13.3676   19.8807 C   0  0  2  0  0  0
  -28.0041  -14.1392   21.0674 C   0  0  0  0  0  0
  -25.0856  -13.8046   20.5556 C   0  0  0  0  0  0
  -24.0682  -13.0091   20.9390 C   0  0  0  0  0  0
  -24.5683  -11.6687   20.8901 C   0  0  0  0  0  0
  -23.8680  -10.4070   21.0528 C   0  0  0  0  0  0
  -24.3414   -9.4056   21.9255 C   0  0  0  0  0  0
  -23.6183   -8.2058   22.0761 C   0  0  0  0  0  0
  -22.4171   -8.0101   21.3537 C   0  0  0  0  0  0
  -21.9724   -9.0016   20.4632 C   0  0  0  0  0  0
  -22.6947  -10.1920   20.3085 C   0  0  0  0  0  0
  -21.6796   -6.0642   22.5296 C   0  0  0  0  0  0
  -21.3968   -6.5583   23.8217 C   0  0  0  0  0  0
  -21.3641   -5.6755   24.9191 C   0  0  0  0  0  0
  -21.6045   -4.3019   24.7257 C   0  0  0  0  0  0
  -21.8828   -3.8090   23.4388 C   0  0  0  0  0  0
  -21.9181   -4.6887   22.3433 C   0  0  0  0  0  0
  -22.6850  -13.4876   21.2115 C   0  0  0  0  0  0
  -22.1660   -4.2081   21.1011 F   0  0  0  0  0  0
  -21.5640   -3.4517   25.7777 F   0  0  0  0  0  0
  -28.3800  -15.4762   20.4711 N   0  0  0  0  0  0
  -26.1128  -12.9321   20.3017 N   0  0  0  0  0  0
  -25.8516  -11.6413   20.5649 N   0  0  0  0  0  0
  -21.9655  -12.7923   22.0783 N   0  0  0  0  0  0
  -25.2157  -15.1848   20.3777 N   0  0  0  0  0  0
  -29.3426  -17.1366   20.6652 O   0  0  0  0  0  0
  -21.6555   -6.8722   21.4235 O   0  0  0  0  0  0
  -22.2634  -14.5226   20.6951 O   0  0  0  0  0  0
  -24.6371  -32.0142   23.0093 C   0  0  0  0  0  0
  -25.9189  -32.5359   23.7596 C   0  0  1  0  0  0
  -26.7923  -27.4796   20.8308 C   0  0  0  0  0  0
  -25.5877  -33.8914   24.1966 N   0  0  0  0  0  0
  -23.5318  -30.5146   21.2566 C   0  0  2  0  0  0
  -25.0001  -29.1783   19.7493 C   0  0  0  0  0  0
  -23.6476  -29.2211   22.0562 C   0  0  0  0  0  0
  -18.5311  -26.8284   23.0891 C   0  0  0  0  0  0
  -24.1420  -36.7593   23.2652 C   0  0  0  0  0  0
  -25.9968  -31.0866   21.1064 C   0  0  0  0  0  0
  -26.1001  -29.6973   20.4645 C   0  0  0  0  0  0
  -27.1277  -28.8326   20.8534 C   0  0  0  0  0  0
  -25.9514  -26.9588   19.8242 C   0  0  0  0  0  0
  -24.9756  -27.8332   19.3212 C   0  0  0  0  0  0
  -23.7381  -30.0202   19.8123 C   0  0  0  0  0  0
  -25.4062  -36.3370   24.0301 C   0  0  1  0  0  0
  -22.2221  -27.0038   23.0687 C   0  0  2  0  0  0
  -22.3623  -25.9303   21.0005 C   0  0  0  0  0  0
  -20.2758  -25.0217   20.2600 C   0  0  0  0  0  0
  -18.5007  -25.5977   21.5510 C   0  0  0  0  0  0
  -19.9346  -27.2778   23.9799 C   0  0  0  0  0  0
  -19.3585  -28.5699   24.6330 C   0  0  0  0  0  0
  -18.2363  -29.4871   24.3616 C   0  0  0  0  0  0
  -25.9051  -34.9847   23.4966 C   0  0  0  0  0  0
  -17.1785  -29.0663   23.5607 C   0  0  0  0  0  0
  -17.3422  -27.7502   23.0244 C   0  0  0  0  0  0
  -26.4353  -31.6880   25.0046 C   0  0  0  0  0  0
  -25.3405  -31.3630   26.0453 C   0  0  0  0  0  0
  -27.1015  -30.3693   24.5505 C   0  0  0  0  0  0
  -27.5630  -32.4611   25.7385 C   0  0  0  0  0  0
  -27.5573  -37.1931   24.8427 C   0  0  0  0  0  0
  -22.9624  -28.0582   22.0374 N   0  0  0  0  0  0
  -26.4242  -37.4057   23.9456 N   0  0  0  0  0  0
  -24.6947  -31.3793   21.7712 N   0  0  0  0  0  0
  -24.4779  -29.3250   22.8679 O   0  0  0  0  0  0
  -26.7266  -26.9706   22.1313 O   0  0  0  0  0  0
  -26.5679  -34.9403   22.4566 O   0  0  0  0  0  0
  -23.5613  -32.1537   23.6107 O   0  0  0  0  0  0
  -19.9586  -28.4565   21.1946 C   0  0  0  0  0  0
  -20.6592  -28.6607   22.2310 C   0  0  0  0  0  0
  -24.8359  -19.3490   21.4305 C   0  0  0  0  0  0
  -26.1369  -20.4855   21.3406 C   0  0  0  0  0  0
  -24.2011  -21.4030   21.4615 C   0  0  0  0  0  0
  -19.3227  -29.3104   20.1285 C   0  0  0  0  0  0
  -21.4935  -22.6197   23.1036 C   0  0  0  0  0  0
  -21.6096  -29.4343   23.6768 C   0  0  0  0  0  0
  -24.3389  -27.7049   24.5573 C   0  0  0  0  0  0
  -25.3524  -26.9207   23.1256 C   0  0  0  0  0  0
  -22.3660  -23.5298   22.2382 C   0  0  2  0  0  0
  -20.3227  -27.0825   21.1879 N   0  0  0  0  0  0
  -20.4647  -27.2737   21.6786 N   0  0  0  0  0  0
  -20.7074  -25.5483   22.3781 N   0  0  0  0  0  0
  -26.5979  -18.6149   21.0614 N   0  0  0  0  0  0
  -22.8859  -28.7423   24.6996 N   0  3  0  0  0  0
  -30.1910  -15.3098   19.1603 H   0  0  0  0  0  0
  -30.3723  -14.2712   20.4768 H   0  0  0  0  0  0
  -30.3068  -12.7667   18.5240 H   0  0  0  0  0  0
  -29.1713  -13.7891   17.6924 H   0  0  0  0  0  0
  -28.5641  -11.5930   19.6455 H   0  0  0  0  0  0
  -27.7020  -12.0488   18.1700 H   0  0  0  0  0  0
  -27.0876  -14.0964   19.1112 H   0  0  0  0  0  0
  -28.7626  -13.5677   21.6113 H   0  0  0  0  0  0
  -27.2888  -14.3769   21.8571 H   0  0  0  0  0  0
  -25.2536   -9.5631   22.4844 H   0  0  0  0  0  0
  -23.9924   -7.4444   22.7461 H   0  0  0  0  0  0
  -21.0664   -8.8478   19.8934 H   0  0  0  0  0  0
  -22.3369  -10.9475   19.6229 H   0  0  0  0  0  0
  -21.1932   -7.6089   23.9702 H   0  0  0  0  0  0
  -21.1465   -6.0492   25.9095 H   0  0  0  0  0  0
  -22.0633   -2.7554   23.2904 H   0  0  0  0  0  0
  -22.3365  -11.9596   22.5114 H   0  0  0  0  0  0
  -21.0306  -13.0949   22.3140 H   0  0  0  0  0  0
  -24.3719  -15.7484   20.3871 H   0  0  0  0  0  0
  -25.9217  -15.5460   19.7520 H   0  0  0  0  0  0
  -26.7666  -32.6313   23.0893 H   0  0  0  0  0  0
  -24.9700  -33.9800   24.9906 H   0  0  0  0  0  0
  -22.5751  -31.0257   21.3619 H   0  0  0  0  0  0
  -23.3676  -35.9930   23.3278 H   0  0  0  0  0  0
  -24.3494  -36.9329   22.2081 H   0  0  0  0  0  0
  -23.7167  -37.6764   23.6748 H   0  0  0  0  0  0
  -26.1685  -31.8415   20.3383 H   0  0  0  0  0  0
  -26.8529  -31.1448   21.7660 H   0  0  0  0  0  0
  -27.8173  -29.1825   21.6092 H   0  0  0  0  0  0
  -25.7817  -25.8960   19.7321 H   0  0  0  0  0  0
  -24.1389  -27.4402   18.7619 H   0  0  0  0  0  0
  -23.8432  -30.8658   19.1308 H   0  0  0  0  0  0
  -22.8787  -29.4489   19.4595 H   0  0  0  0  0  0
  -25.1253  -36.2147   25.0786 H   0  0  0  0  0  0
  -22.7592  -26.2741   23.6722 H   0  0  0  0  0  0
  -23.2344  -25.2893   20.8797 H   0  0  0  0  0  0
  -22.5956  -26.6505   20.2118 H   0  0  0  0  0  0
  -20.3398  -23.9336   20.2204 H   0  0  0  0  0  0
  -20.0970  -25.3292   19.2287 H   0  0  0  0  0  0
  -17.7440  -25.9956   20.8727 H   0  0  0  0  0  0
  -18.0550  -24.6741   21.9222 H   0  0  0  0  0  0
  -19.9508  -28.9126   25.4686 H   0  0  0  0  0  0
  -18.1533  -30.4205   24.9013 H   0  0  0  0  0  0
  -16.2984  -29.6684   23.3797 H   0  0  0  0  0  0
  -16.5431  -27.4224   22.3759 H   0  0  0  0  0  0
  -25.7491  -30.8426   26.9123 H   0  0  0  0  0  0
  -24.5723  -30.7238   25.6165 H   0  0  0  0  0  0
  -24.8494  -32.2677   26.4054 H   0  0  0  0  0  0
  -27.4795  -29.7983   25.3995 H   0  0  0  0  0  0
  -27.9507  -30.5671   23.8961 H   0  0  0  0  0  0
  -26.4453  -29.7111   24.0029 H   0  0  0  0  0  0
  -27.1992  -33.3736   26.2119 H   0  0  0  0  0  0
  -28.3617  -32.7476   25.0523 H   0  0  0  0  0  0
  -28.0143  -31.8614   26.5303 H   0  0  0  0  0  0
  -28.2561  -38.0266   24.7606 H   0  0  0  0  0  0
  -28.1088  -36.2829   24.6045 H   0  0  0  0  0  0
  -27.2329  -37.1372   25.8831 H   0  0  0  0  0  0
  -22.3813  -28.0047   21.2044 H   0  0  0  0  0  0
  -26.0152  -38.3099   24.1660 H   0  0  0  0  0  0
  -24.1372  -18.8676   20.7434 H   0  0  0  0  0  0
  -24.5118  -18.9470   22.3950 H   0  0  0  0  0  0
  -26.6500  -20.8131   22.2501 H   0  0  0  0  0  0
  -26.6612  -21.0658   20.5772 H   0  0  0  0  0  0
  -24.0033  -21.5153   20.3960 H   0  0  0  0  0  0
  -19.9264  -30.1895   19.9059 H   0  0  0  0  0  0
  -18.3371  -29.6555   20.4433 H   0  0  0  0  0  0
  -19.1981  -28.7509   19.2015 H   0  0  0  0  0  0
  -22.0921  -21.8643   23.6127 H   0  0  0  0  0  0
  -20.7542  -22.1060   22.4891 H   0  0  0  0  0  0
  -20.9601  -23.1929   23.8618 H   0  0  0  0  0  0
  -21.0297  -30.0933   24.3133 H   0  0  0  0  0  0
  -21.9726  -30.3811   23.3113 H   0  0  0  0  0  0
  -25.0880  -28.2110   25.1643 H   0  0  0  0  0  0
  -24.0945  -26.8659   25.2077 H   0  0  0  0  0  0
  -25.7368  -26.0912   23.7161 H   0  0  0  0  0  0
  -24.6724  -26.3744   22.4826 H   0  0  0  0  0  0
  -23.0802  -23.9893   22.9228 H   0  0  0  0  0  0
  -22.3816  -28.3493   25.4794 H   0  0  0  0  0  0
  -23.2894  -29.5852   25.0774 H   0  0  0  0  0  0
  1 25  1  0  0  0
  1 30  2  0  0  0
  1 85  1  0  0  0
  2  3  1  0  0  0
  2 25  1  0  0  0
  2 87  1  0  0  0
  2 88  1  0  0  0
  3  4  1  0  0  0
  3 89  1  0  0  0
  3 90  1  0  0  0
  4  5  1  0  0  0
  4 91  1  0  0  0
  4 92  1  0  0  0
  5  6  1  0  0  0
  5 26  1  0  0  0
  5 93  1  0  0  0
  6 25  1  0  0  0
  6 94  1  0  0  0
  6 95  1  0  0  0
  7  8  2  0  0  0
  7 26  1  0  0  0
  7 29  1  0  0  0
  8  9  1  0  0  0
  8 22  1  0  0  0
  9 10  1  0  0  0
  9 27  2  0  0  0
 10 11  2  0  0  0
 10 15  1  0  0  0
 11 12  1  0  0  0
 11 96  1  0  0  0
 12 13  2  0  0  0
 12 97  1  0  0  0
 13 14  1  0  0  0
 13 31  1  0  0  0
 14 15  2  0  0  0
 14 98  1  0  0  0
 15 99  1  0  0  0
 16 17  2  0  0  0
 16 21  1  0  0  0
 16 31  1  0  0  0
 17 18  1  0  0  0
 17100  1  0  0  0
 18 19  2  0  0  0
 18101  1  0  0  0
 19 20  1  0  0  0
 19 24  1  0  0  0
 20 21  2  0  0  0
 20102  1  0  0  0
 21 23  1  0  0  0
 22 28  1  0  0  0
 22 32  2  0  0  0
 26 27  1  0  0  0
 28103  1  0  0  0
 28104  1  0  0  0
 29105  1  0  0  0
 29106  1  0  0  0
 33 34  1  0  0  0
 33 66  1  0  0  0
 33 70  2  0  0  0
 34 36  1  0  0  0
 34 59  1  0  0  0
 34107  1  0  0  0
 35 44  2  0  0  0
 35 45  1  0  0  0
 35 68  1  0  0  0
 36 56  1  0  0  0
 36108  1  0  0  0
 37 39  1  0  0  0
 37 47  1  0  0  0
 37 66  1  0  0  0
 37109  1  0  0  0
 38 43  2  0  0  0
 38 46  1  0  0  0
 38 47  1  0  0  0
 39 64  1  0  0  0
 39 67  2  0  0  0
 40 52  1  0  0  0
 40 53  2  0  0  0
 40 58  1  0  0  0
 41110  1  0  0  0
 41111  1  0  0  0
 41112  1  0  0  0
 41 48  1  0  0  0
 42 43  1  0  0  0
 42 66  1  0  0  0
 42113  1  0  0  0
 42114  1  0  0  0
 43 44  1  0  0  0
 44115  1  0  0  0
 45 46  2  0  0  0
 45116  1  0  0  0
 46117  1  0  0  0
 47118  1  0  0  0
 47119  1  0  0  0
 48 56  1  0  0  0
 48 65  1  0  0  0
 48120  1  0  0  0
 49 50  1  0  0  0
 49 53  1  0  0  0
 49 64  1  0  0  0
 49121  1  0  0  0
 50 51  1  0  0  0
 50122  1  0  0  0
 50123  1  0  0  0
 51 52  1  0  0  0
 51124  1  0  0  0
 51125  1  0  0  0
 52126  1  0  0  0
 52127  1  0  0  0
 53 54  1  0  0  0
 54 55  2  0  0  0
 54128  1  0  0  0
 55 57  1  0  0  0
 55129  1  0  0  0
 56 69  2  0  0  0
 57 58  2  0  0  0
 57130  1  0  0  0
 58131  1  0  0  0
 59 60  1  0  0  0
 59 61  1  0  0  0
 59 62  1  0  0  0
 60132  1  0  0  0
 60133  1  0  0  0
 60134  1  0  0  0
 61135  1  0  0  0
 61136  1  0  0  0
 61137  1  0  0  0
 62138  1  0  0  0
 62139  1  0  0  0
 62140  1  0  0  0
 63 65  1  0  0  0
 63141  1  0  0  0
 63142  1  0  0  0
 63143  1  0  0  0
 64144  1  0  0  0
 65145  1  0  0  0
 68 80  1  0  0  0
 71 72  1  0  0  0
 71 76  1  0  0  0
 71 82  2  0  0  0
 72 78  1  0  0  0
 72 83  2  0  0  0
 73 85  1  0  0  0
 73146  1  0  0  0
 73147  1  0  0  0
 73 75  1  0  0  0
 74 75  1  0  0  0
 74 85  1  0  0  0
 74148  1  0  0  0
 74149  1  0  0  0
 75 81  1  0  0  0
 75150  1  0  0  0
 76151  1  0  0  0
 76152  1  0  0  0
 76153  1  0  0  0
 77154  1  0  0  0
 77155  1  0  0  0
 77156  1  0  0  0
 77 81  1  0  0  0
 78 86  1  0  0  0
 78157  1  0  0  0
 78158  1  0  0  0
 79 80  1  0  0  0
 79 86  1  0  0  0
 79159  1  0  0  0
 79160  1  0  0  0
 80161  1  0  0  0
 80162  1  0  0  0
 81 84  1  0  0  0
 81163  1  0  0  0
 82 84  1  0  0  0
 83 84  1  0  0  0
 86164  1  0  0  0
 86165  1  0  0  0
M  CHG  1  86   1
M  ISO  4   1 100  68 101  80 101  85 100
M  END
> <chiral flag>
0

> <version>
0

> <s_m_source_file>
/data/baiqing/PycharmProjects/Reinvent-master-3.2/result/LINK_invent/BTK/process_docking_weight1_custom_sum_contain_oxygen_bond_distance_aromatic_linkinvent_7_9_3/rearranged_h_0197.sdf

> <i_m_source_file_index>
89

> <r_mmod_Potential_Energy-OPLS-2005>
30674.341796875

> <r_mmod_Stretch_Energy-OPLS-2005>
13265.7216796875

> <r_mmod_Bend_Energy-OPLS-2005>
4907.19677734375

> <r_mmod_Torsional_Energy-OPLS-2005>
688.439147949219

> <r_mmod_Improper_Torsional_Energy-OPLS-2005>
84.3563385009766

> <r_mmod_Van_der_Waal_Energy-OPLS-2005>
3330.98950195312

> <r_mmod_Electrostatic_Energy-OPLS-2005>
-331.746154785156

> <r_mmod_Solvation_Energy-OPLS-2005>
-429.791046142578

> <b_mmod_Minimization_Converged-OPLS-2005>
0

> <r_mmod_RMS_Derivative-OPLS-2005>
4.26836919784546

$$$$
90
                    3D
 Structure written by MMmdl.
159168  0  0  1  0            999 V2000
  -30.6422  -14.8114   20.4493 C   0  0  0  0  0  0
  -30.4349  -12.5095   19.4604 C   0  0  0  0  0  0
  -29.5025  -12.5000   18.2300 C   0  0  0  0  0  0
  -28.0392  -12.2754   18.6593 C   0  0  0  0  0  0
  -27.6291  -13.1890   19.8390 C   0  0  2  0  0  0
  -28.6921  -13.1944   20.9669 C   0  0  0  0  0  0
  -25.2468  -13.8048   20.5663 C   0  0  0  0  0  0
  -24.1751  -13.0356   20.9225 C   0  0  0  0  0  0
  -24.6320  -11.6831   20.8796 C   0  0  0  0  0  0
  -23.9006  -10.4238   21.0447 C   0  0  0  0  0  0
  -24.3578   -9.4157   21.9209 C   0  0  0  0  0  0
  -23.6260   -8.2197   22.0765 C   0  0  0  0  0  0
  -22.4241   -8.0249   21.3550 C   0  0  0  0  0  0
  -21.9872   -9.0226   20.4657 C   0  0  0  0  0  0
  -22.7194  -10.2099   20.3076 C   0  0  0  0  0  0
  -21.6837   -6.0712   22.5280 C   0  0  0  0  0  0
  -21.4000   -6.5625   23.8211 C   0  0  0  0  0  0
  -21.3646   -5.6782   24.9174 C   0  0  0  0  0  0
  -21.6045   -4.3047   24.7225 C   0  0  0  0  0  0
  -21.8823   -3.8136   23.4346 C   0  0  0  0  0  0
  -21.9189   -4.6947   22.3400 C   0  0  0  0  0  0
  -22.7789  -13.5200   21.1870 C   0  0  0  0  0  0
  -22.1668   -4.2139   21.0978 F   0  0  0  0  0  0
  -21.5625   -3.4531   25.7734 F   0  0  0  0  0  0
  -29.9717  -13.5966   20.3611 N   0  0  0  0  0  0
  -26.2868  -12.9170   20.3293 N   0  0  0  0  0  0
  -25.9236  -11.6374   20.5818 N   0  0  0  0  0  0
  -22.0419  -12.8224   22.0439 N   0  0  0  0  0  0
  -25.4061  -15.1765   20.3963 N   0  0  0  0  0  0
  -31.8548  -14.8173   20.2167 O   0  0  0  0  0  0
  -21.6615   -6.8843   21.4235 O   0  0  0  0  0  0
  -22.3508  -14.5517   20.6711 O   0  0  0  0  0  0
  -24.6336  -31.8556   23.1981 C   0  0  0  0  0  0
  -25.9154  -32.4756   23.8330 C   0  0  1  0  0  0
  -27.2270  -27.2525   20.1117 C   0  0  0  0  0  0
  -25.5942  -33.8558   24.2249 N   0  0  0  0  0  0
  -23.4297  -30.4807   21.5426 C   0  0  2  0  0  0
  -24.8758  -28.9308   20.1102 C   0  0  0  0  0  0
  -22.7511  -29.4612   22.4904 C   0  0  0  0  0  0
  -18.0297  -28.1395   22.8484 C   0  0  0  0  0  0
  -24.1489  -36.7282   23.2640 C   0  0  0  0  0  0
  -25.9784  -30.7642   21.3815 C   0  0  0  0  0  0
  -26.0492  -29.3874   20.7199 C   0  0  0  0  0  0
  -27.2206  -28.5609   20.7134 C   0  0  0  0  0  0
  -26.0137  -26.8661   19.4888 C   0  0  0  0  0  0
  -24.8640  -27.6767   19.4877 C   0  0  0  0  0  0
  -23.6479  -29.8186   20.1580 C   0  0  0  0  0  0
  -25.4115  -36.3072   24.0326 C   0  0  1  0  0  0
  -20.5902  -28.3710   23.1262 C   0  0  2  0  0  0
  -20.6786  -26.9426   22.5411 C   0  0  0  0  0  0
  -19.5758  -26.6385   21.5220 C   0  0  0  0  0  0
  -18.1936  -26.7935   22.1629 C   0  0  0  0  0  0
  -19.1552  -28.8865   23.2869 C   0  0  0  0  0  0
  -18.9473  -30.1463   23.8894 C   0  0  0  0  0  0
  -17.6472  -30.6592   24.0562 C   0  0  0  0  0  0
  -25.9062  -34.9444   23.5093 C   0  0  0  0  0  0
  -16.5363  -29.9093   23.6332 C   0  0  0  0  0  0
  -16.7282  -28.6510   23.0352 C   0  0  0  0  0  0
  -26.4503  -31.6585   25.0729 C   0  0  0  0  0  0
  -25.3710  -31.3756   26.1438 C   0  0  0  0  0  0
  -27.0358  -30.2995   24.6239 C   0  0  0  0  0  0
  -27.6051  -32.4336   25.7504 C   0  0  0  0  0  0
  -27.5578  -37.1802   24.8463 C   0  0  0  0  0  0
  -21.4219  -29.3055   22.3645 N   0  0  0  0  0  0
  -26.4290  -37.3772   23.9408 N   0  0  0  0  0  0
  -24.6995  -31.0514   22.0961 N   0  0  0  0  0  0
  -23.4206  -28.8149   23.3006 O   0  0  0  0  0  0
  -28.3463  -26.3768   20.1910 O   0  0  0  0  0  0
  -26.5635  -34.8925   22.4664 O   0  0  0  0  0  0
  -23.5485  -32.1378   23.7273 O   0  0  0  0  0  0
  -28.5289  -20.4425   18.0915 C   0  0  0  0  0  0
  -28.0441  -21.5576   17.3824 C   0  0  0  0  0  0
  -28.9882  -20.9053   19.3004 C   0  0  0  0  0  0
  -28.2785  -17.8337   20.4101 C   0  0  0  0  0  0
  -28.5629  -16.3207   20.3202 C   0  0  0  0  0  0
  -30.5862  -17.4450   20.6784 C   0  0  0  0  0  0
  -29.5839  -18.5003   20.0238 C   0  0  2  0  0  0
  -27.4445  -21.6034   16.0077 C   0  0  0  0  0  0
  -28.8327  -23.5823   20.1906 C   0  0  0  0  0  0
  -28.4185  -25.0274   19.5153 C   0  0  0  0  0  0
  -28.1716  -22.6562   18.0824 N   0  0  0  0  0  0
  -28.7224  -22.3467   19.2871 N   0  0  0  0  0  0
  -29.9773  -16.0464   20.6073 N   0  0  0  0  0  0
  -29.5873  -20.0101   20.2722 N   0  0  0  0  0  0
  -31.4679  -12.6484   19.1353 H   0  0  0  0  0  0
  -30.4127  -11.5454   19.9725 H   0  0  0  0  0  0
  -29.8091  -11.7242   17.5270 H   0  0  0  0  0  0
  -29.5868  -13.4474   17.6940 H   0  0  0  0  0  0
  -27.9324  -11.2302   18.9526 H   0  0  0  0  0  0
  -27.3697  -12.4268   17.8109 H   0  0  0  0  0  0
  -27.5706  -14.1622   19.3797 H   0  0  0  0  0  0
  -28.7749  -12.2028   21.4154 H   0  0  0  0  0  0
  -28.4195  -13.8599   21.7852 H   0  0  0  0  0  0
  -25.2723   -9.5634   22.4781 H   0  0  0  0  0  0
  -23.9969   -7.4578   22.7469 H   0  0  0  0  0  0
  -21.0809   -8.8756   19.8953 H   0  0  0  0  0  0
  -22.3678  -10.9651   19.6193 H   0  0  0  0  0  0
  -21.1998   -7.6136   23.9715 H   0  0  0  0  0  0
  -21.1464   -6.0508   25.9077 H   0  0  0  0  0  0
  -22.0615   -2.7597   23.2855 H   0  0  0  0  0  0
  -22.4024  -11.9882   22.4834 H   0  0  0  0  0  0
  -21.1038  -13.1272   22.2632 H   0  0  0  0  0  0
  -24.6336  -15.8228   20.5115 H   0  0  0  0  0  0
  -26.2490  -15.6225   20.0624 H   0  0  0  0  0  0
  -26.7220  -32.5402   23.1073 H   0  0  0  0  0  0
  -25.0069  -33.9680   25.0383 H   0  0  0  0  0  0
  -22.7270  -31.3036   21.3981 H   0  0  0  0  0  0
  -23.3757  -35.9611   23.3301 H   0  0  0  0  0  0
  -24.3576  -36.8907   22.2055 H   0  0  0  0  0  0
  -23.7238  -37.6481   23.6666 H   0  0  0  0  0  0
  -26.1237  -31.5261   20.6141 H   0  0  0  0  0  0
  -26.8539  -30.8088   22.0173 H   0  0  0  0  0  0
  -28.1166  -28.9091   21.2075 H   0  0  0  0  0  0
  -25.8718  -25.9124   19.0128 H   0  0  0  0  0  0
  -23.9620  -27.3155   19.0137 H   0  0  0  0  0  0
  -23.7749  -30.5963   19.4042 H   0  0  0  0  0  0
  -22.7653  -29.2552   19.8506 H   0  0  0  0  0  0
  -25.1300  -36.1917   25.0819 H   0  0  0  0  0  0
  -20.9998  -28.3299   24.1383 H   0  0  0  0  0  0
  -20.5694  -26.2323   23.3621 H   0  0  0  0  0  0
  -21.6655  -26.7446   22.1204 H   0  0  0  0  0  0
  -19.6919  -25.6291   21.1258 H   0  0  0  0  0  0
  -19.6691  -27.3189   20.6745 H   0  0  0  0  0  0
  -17.4205  -26.6679   21.4032 H   0  0  0  0  0  0
  -18.0331  -26.0080   22.9029 H   0  0  0  0  0  0
  -19.7947  -30.7279   24.2267 H   0  0  0  0  0  0
  -17.5027  -31.6274   24.5164 H   0  0  0  0  0  0
  -15.5365  -30.2996   23.7655 H   0  0  0  0  0  0
  -15.8681  -28.0828   22.7072 H   0  0  0  0  0  0
  -24.5886  -30.7102   25.7764 H   0  0  0  0  0  0
  -24.8900  -32.2937   26.4823 H   0  0  0  0  0  0
  -25.8008  -30.8957   27.0236 H   0  0  0  0  0  0
  -26.2954  -29.6736   24.1237 H   0  0  0  0  0  0
  -27.3997  -29.7267   25.4779 H   0  0  0  0  0  0
  -27.8852  -30.4256   23.9522 H   0  0  0  0  0  0
  -27.2645  -33.3642   26.2054 H   0  0  0  0  0  0
  -28.3873  -32.6880   25.0341 H   0  0  0  0  0  0
  -28.0701  -31.8478   26.5441 H   0  0  0  0  0  0
  -28.2600  -38.0095   24.7513 H   0  0  0  0  0  0
  -28.1073  -36.2629   24.6289 H   0  0  0  0  0  0
  -27.2299  -37.1452   25.8867 H   0  0  0  0  0  0
  -20.9404  -29.8774   21.6845 H   0  0  0  0  0  0
  -26.0169  -38.2850   24.1404 H   0  0  0  0  0  0
  -28.5271  -19.4298   17.7187 H   0  0  0  0  0  0
  -28.0138  -18.0957   21.4360 H   0  0  0  0  0  0
  -27.4475  -18.1343   19.7705 H   0  0  0  0  0  0
  -28.3787  -16.0289   19.2875 H   0  0  0  0  0  0
  -27.8993  -15.7923   20.9977 H   0  0  0  0  0  0
  -30.7567  -17.6812   21.7295 H   0  0  0  0  0  0
  -31.5577  -17.4738   20.1827 H   0  0  0  0  0  0
  -29.7394  -18.3467   18.9566 H   0  0  0  0  0  0
  -27.0398  -20.6315   15.7226 H   0  0  0  0  0  0
  -28.1915  -21.8791   15.2630 H   0  0  0  0  0  0
  -26.6302  -22.3261   15.9474 H   0  0  0  0  0  0
  -28.1966  -23.4006   21.0571 H   0  0  0  0  0  0
  -29.8545  -23.6315   20.5664 H   0  0  0  0  0  0
  -27.5031  -24.8463   18.9736 H   0  0  0  0  0  0
  -29.1455  -25.1930   18.7182 H   0  0  0  0  0  0
  -29.8999  -20.3523   21.1768 H   0  0  0  0  0  0
  1 25  1  0  0  0
  1 30  2  0  0  0
  1 83  1  0  0  0
  2  3  1  0  0  0
  2 25  1  0  0  0
  2 85  1  0  0  0
  2 86  1  0  0  0
  3  4  1  0  0  0
  3 87  1  0  0  0
  3 88  1  0  0  0
  4  5  1  0  0  0
  4 89  1  0  0  0
  4 90  1  0  0  0
  5  6  1  0  0  0
  5 26  1  0  0  0
  5 91  1  0  0  0
  6 25  1  0  0  0
  6 92  1  0  0  0
  6 93  1  0  0  0
  7  8  2  0  0  0
  7 26  1  0  0  0
  7 29  1  0  0  0
  8  9  1  0  0  0
  8 22  1  0  0  0
  9 10  1  0  0  0
  9 27  2  0  0  0
 10 11  2  0  0  0
 10 15  1  0  0  0
 11 12  1  0  0  0
 11 94  1  0  0  0
 12 13  2  0  0  0
 12 95  1  0  0  0
 13 14  1  0  0  0
 13 31  1  0  0  0
 14 15  2  0  0  0
 14 96  1  0  0  0
 15 97  1  0  0  0
 16 17  2  0  0  0
 16 21  1  0  0  0
 16 31  1  0  0  0
 17 18  1  0  0  0
 17 98  1  0  0  0
 18 19  2  0  0  0
 18 99  1  0  0  0
 19 20  1  0  0  0
 19 24  1  0  0  0
 20 21  2  0  0  0
 20100  1  0  0  0
 21 23  1  0  0  0
 22 28  1  0  0  0
 22 32  2  0  0  0
 26 27  1  0  0  0
 28101  1  0  0  0
 28102  1  0  0  0
 29103  1  0  0  0
 29104  1  0  0  0
 33 34  1  0  0  0
 33 66  1  0  0  0
 33 70  2  0  0  0
 34 36  1  0  0  0
 34 59  1  0  0  0
 34105  1  0  0  0
 35 44  2  0  0  0
 35 45  1  0  0  0
 35 68  1  0  0  0
 36 56  1  0  0  0
 36106  1  0  0  0
 37 39  1  0  0  0
 37 47  1  0  0  0
 37 66  1  0  0  0
 37107  1  0  0  0
 38 43  2  0  0  0
 38 46  1  0  0  0
 38 47  1  0  0  0
 39 64  1  0  0  0
 39 67  2  0  0  0
 40 52  1  0  0  0
 40 53  2  0  0  0
 40 58  1  0  0  0
 41108  1  0  0  0
 41109  1  0  0  0
 41110  1  0  0  0
 41 48  1  0  0  0
 42 43  1  0  0  0
 42 66  1  0  0  0
 42111  1  0  0  0
 42112  1  0  0  0
 43 44  1  0  0  0
 44113  1  0  0  0
 45 46  2  0  0  0
 45114  1  0  0  0
 46115  1  0  0  0
 47116  1  0  0  0
 47117  1  0  0  0
 48 56  1  0  0  0
 48 65  1  0  0  0
 48118  1  0  0  0
 49 50  1  0  0  0
 49 53  1  0  0  0
 49 64  1  0  0  0
 49119  1  0  0  0
 50 51  1  0  0  0
 50120  1  0  0  0
 50121  1  0  0  0
 51 52  1  0  0  0
 51122  1  0  0  0
 51123  1  0  0  0
 52124  1  0  0  0
 52125  1  0  0  0
 53 54  1  0  0  0
 54 55  2  0  0  0
 54126  1  0  0  0
 55 57  1  0  0  0
 55127  1  0  0  0
 56 69  2  0  0  0
 57 58  2  0  0  0
 57128  1  0  0  0
 58129  1  0  0  0
 59 60  1  0  0  0
 59 61  1  0  0  0
 59 62  1  0  0  0
 60130  1  0  0  0
 60131  1  0  0  0
 60132  1  0  0  0
 61133  1  0  0  0
 61134  1  0  0  0
 61135  1  0  0  0
 62136  1  0  0  0
 62137  1  0  0  0
 62138  1  0  0  0
 63 65  1  0  0  0
 63139  1  0  0  0
 63140  1  0  0  0
 63141  1  0  0  0
 64142  1  0  0  0
 65143  1  0  0  0
 68 80  1  0  0  0
 71 72  1  0  0  0
 71 73  2  0  0  0
 71144  1  0  0  0
 72 78  1  0  0  0
 72 81  2  0  0  0
 73 82  1  0  0  0
 73 84  1  0  0  0
 74 75  1  0  0  0
 74 77  1  0  0  0
 74145  1  0  0  0
 74146  1  0  0  0
 75 83  1  0  0  0
 75147  1  0  0  0
 75148  1  0  0  0
 76 77  1  0  0  0
 76 83  1  0  0  0
 76149  1  0  0  0
 76150  1  0  0  0
 77 84  1  0  0  0
 77151  1  0  0  0
 78152  1  0  0  0
 78153  1  0  0  0
 78154  1  0  0  0
 79 80  1  0  0  0
 79 82  1  0  0  0
 79155  1  0  0  0
 79156  1  0  0  0
 80157  1  0  0  0
 80158  1  0  0  0
 81 82  1  0  0  0
 84159  1  0  0  0
M  ISO  4   1 100  68 101  80 101  83 100
M  END
> <chiral flag>
0

> <version>
0

> <s_m_source_file>
/data/baiqing/PycharmProjects/Reinvent-master-3.2/result/LINK_invent/BTK/process_docking_weight1_custom_sum_contain_oxygen_bond_distance_aromatic_linkinvent_7_9_3/rearranged_h_0197.sdf

> <i_m_source_file_index>
90

> <r_mmod_Potential_Energy-OPLS-2005>
365.320709228516

> <r_mmod_Stretch_Energy-OPLS-2005>
147.729934692383

> <r_mmod_Bend_Energy-OPLS-2005>
275.922790527344

> <r_mmod_Torsional_Energy-OPLS-2005>
304.550231933594

> <r_mmod_Improper_Torsional_Energy-OPLS-2005>
4.93812942504883

> <r_mmod_Van_der_Waal_Energy-OPLS-2005>
140.933242797852

> <r_mmod_Electrostatic_Energy-OPLS-2005>
-386.794769287109

> <r_mmod_Solvation_Energy-OPLS-2005>
-226.320205688477

> <b_mmod_Minimization_Converged-OPLS-2005>
0

> <r_mmod_RMS_Derivative-OPLS-2005>
1.26955413818359

$$$$
91
                    3D
 Structure written by MMmdl.
160169  0  0  1  0            999 V2000
  -30.4715  -15.0449   20.4546 C   0  0  0  0  0  0
  -30.4640  -12.6628   19.4909 C   0  0  0  0  0  0
  -29.5278  -12.5495   18.2603 C   0  0  0  0  0  0
  -28.0649  -12.3151   18.6849 C   0  0  0  0  0  0
  -27.6403  -13.2384   19.8529 C   0  0  2  0  0  0
  -28.6901  -13.2259   20.9807 C   0  0  0  0  0  0
  -25.2524  -13.8182   20.5727 C   0  0  0  0  0  0
  -24.1810  -13.0422   20.9183 C   0  0  0  0  0  0
  -24.6412  -11.6906   20.8743 C   0  0  0  0  0  0
  -23.9078  -10.4294   21.0400 C   0  0  0  0  0  0
  -24.3626   -9.4199   21.9174 C   0  0  0  0  0  0
  -23.6293   -8.2237   22.0755 C   0  0  0  0  0  0
  -22.4280   -8.0278   21.3525 C   0  0  0  0  0  0
  -21.9906   -9.0259   20.4628 C   0  0  0  0  0  0
  -22.7249  -10.2134   20.3035 C   0  0  0  0  0  0
  -21.6866   -6.0721   22.5258 C   0  0  0  0  0  0
  -21.4035   -6.5626   23.8191 C   0  0  0  0  0  0
  -21.3649   -5.6776   24.9149 C   0  0  0  0  0  0
  -21.6043   -4.3040   24.7206 C   0  0  0  0  0  0
  -21.8825   -3.8127   23.4332 C   0  0  0  0  0  0
  -21.9203   -4.6945   22.3386 C   0  0  0  0  0  0
  -22.7837  -13.5204   21.1838 C   0  0  0  0  0  0
  -22.1668   -4.2125   21.0966 F   0  0  0  0  0  0
  -21.5622   -3.4525   25.7718 F   0  0  0  0  0  0
  -29.9442  -13.7387   20.3954 N   0  0  0  0  0  0
  -26.2960  -12.9388   20.3333 N   0  0  0  0  0  0
  -25.9355  -11.6530   20.5803 N   0  0  0  0  0  0
  -22.0496  -12.8189   22.0401 N   0  0  0  0  0  0
  -25.4242  -15.1911   20.4201 N   0  0  0  0  0  0
  -31.6366  -15.1699   20.0544 O   0  0  0  0  0  0
  -21.6650   -6.8865   21.4220 O   0  0  0  0  0  0
  -22.3525  -14.5518   20.6702 O   0  0  0  0  0  0
  -24.6484  -31.8351   23.1827 C   0  0  0  0  0  0
  -25.9231  -32.4655   23.8221 C   0  0  1  0  0  0
  -27.2275  -27.0775   20.1633 C   0  0  0  0  0  0
  -25.5953  -33.8461   24.2142 N   0  0  0  0  0  0
  -23.4549  -30.4476   21.5322 C   0  0  2  0  0  0
  -24.9038  -28.8519   20.1246 C   0  0  0  0  0  0
  -22.7597  -29.4457   22.4889 C   0  0  0  0  0  0
  -18.0287  -28.1393   22.8423 C   0  0  0  0  0  0
  -24.1497  -36.7212   23.2644 C   0  0  0  0  0  0
  -26.0126  -30.6897   21.3871 C   0  0  0  0  0  0
  -26.0838  -29.2904   20.7375 C   0  0  0  0  0  0
  -27.2453  -28.4238   20.7306 C   0  0  0  0  0  0
  -26.0158  -26.7379   19.5285 C   0  0  0  0  0  0
  -24.8864  -27.5907   19.5051 C   0  0  0  0  0  0
  -23.6877  -29.7648   20.1571 C   0  0  0  0  0  0
  -25.4113  -36.2986   24.0326 C   0  0  1  0  0  0
  -20.5899  -28.3685   23.1252 C   0  0  2  0  0  0
  -20.6788  -26.9400   22.5388 C   0  0  0  0  0  0
  -19.5772  -26.6344   21.5200 C   0  0  0  0  0  0
  -18.1937  -26.7913   22.1585 C   0  0  0  0  0  0
  -19.1546  -28.8857   23.2823 C   0  0  0  0  0  0
  -18.9476  -30.1453   23.8843 C   0  0  0  0  0  0
  -17.6483  -30.6578   24.0530 C   0  0  0  0  0  0
  -25.9069  -34.9381   23.5026 C   0  0  0  0  0  0
  -16.5370  -29.9056   23.6345 C   0  0  0  0  0  0
  -16.7273  -28.6496   23.0314 C   0  0  0  0  0  0
  -26.4563  -31.6530   25.0673 C   0  0  0  0  0  0
  -25.3736  -31.3723   26.1363 C   0  0  0  0  0  0
  -27.0444  -30.2932   24.6235 C   0  0  0  0  0  0
  -27.6055  -32.4335   25.7471 C   0  0  0  0  0  0
  -27.5555  -37.1743   24.8474 C   0  0  0  0  0  0
  -21.4283  -29.3020   22.3653 N   0  0  0  0  0  0
  -26.4262  -37.3712   23.9427 N   0  0  0  0  0  0
  -24.7267  -31.0131   22.0906 N   0  0  0  0  0  0
  -23.4220  -28.8000   23.3056 O   0  0  0  0  0  0
  -28.3252  -26.1309   20.0991 O   0  0  0  0  0  0
  -26.5654  -34.8904   22.4603 O   0  0  0  0  0  0
  -23.5591  -32.1265   23.7000 O   0  0  0  0  0  0
  -31.0996  -20.5136   18.6817 C   0  0  0  0  0  0
  -30.7527  -19.2850   19.2793 C   0  0  0  0  0  0
  -30.3510  -21.7067   18.8896 C   0  0  0  0  0  0
  -29.6441  -19.2123   20.1247 C   0  0  0  0  0  0
  -29.2318  -21.7186   19.7665 C   0  0  0  0  0  0
  -29.4771  -17.6533   22.2725 C   0  0  0  0  0  0
  -29.1096  -16.1783   22.1682 C   0  0  0  0  0  0
  -29.2171  -17.7535   20.7884 C   0  0  2  0  0  0
  -26.8033  -22.6582   19.6668 C   0  0  0  0  0  0
  -30.9554  -22.6864   16.8128 C   0  0  0  0  0  0
  -28.3831  -24.6111   20.5571 C   0  0  0  0  0  0
  -28.2711  -23.1132   19.7240 C   0  0  1  0  0  0
  -28.9242  -20.4430   20.3589 N   0  0  0  0  0  0
  -29.6275  -16.1703   20.7843 N   0  0  0  0  0  0
  -30.6637  -22.8556   18.1985 O   0  0  0  0  0  0
  -31.4799  -12.8737   19.1522 H   0  0  0  0  0  0
  -30.5312  -11.7104   20.0190 H   0  0  0  0  0  0
  -29.8565  -11.7396   17.6081 H   0  0  0  0  0  0
  -29.5901  -13.4653   17.6713 H   0  0  0  0  0  0
  -27.9777  -11.2730   18.9958 H   0  0  0  0  0  0
  -27.3904  -12.4341   17.8368 H   0  0  0  0  0  0
  -27.6140  -14.2498   19.4449 H   0  0  0  0  0  0
  -28.8257  -12.2154   21.3708 H   0  0  0  0  0  0
  -28.3549  -13.8112   21.8309 H   0  0  0  0  0  0
  -25.2762   -9.5680   22.4750 H   0  0  0  0  0  0
  -23.9981   -7.4637   22.7508 H   0  0  0  0  0  0
  -21.0817   -8.8795   19.8950 H   0  0  0  0  0  0
  -22.3709  -10.9677   19.6152 H   0  0  0  0  0  0
  -21.2051   -7.6140   23.9683 H   0  0  0  0  0  0
  -21.1458   -6.0508   25.9042 H   0  0  0  0  0  0
  -22.0623   -2.7591   23.2839 H   0  0  0  0  0  0
  -22.4131  -11.9840   22.4759 H   0  0  0  0  0  0
  -21.1130  -13.1227   22.2655 H   0  0  0  0  0  0
  -24.6586  -15.8475   20.5261 H   0  0  0  0  0  0
  -26.2803  -15.6287   20.1045 H   0  0  0  0  0  0
  -26.7275  -32.5246   23.0917 H   0  0  0  0  0  0
  -25.0178  -33.9598   25.0348 H   0  0  0  0  0  0
  -22.7597  -31.2743   21.3665 H   0  0  0  0  0  0
  -23.3788  -35.9523   23.3278 H   0  0  0  0  0  0
  -24.3568  -36.8853   22.2056 H   0  0  0  0  0  0
  -23.7243  -37.6393   23.6713 H   0  0  0  0  0  0
  -26.1626  -31.4342   20.6056 H   0  0  0  0  0  0
  -26.8896  -30.7501   22.0203 H   0  0  0  0  0  0
  -28.1568  -28.7627   21.2019 H   0  0  0  0  0  0
  -25.9369  -25.7787   19.0384 H   0  0  0  0  0  0
  -23.9852  -27.2493   19.0138 H   0  0  0  0  0  0
  -23.8410  -30.5353   19.4010 H   0  0  0  0  0  0
  -22.8009  -29.2150   19.8373 H   0  0  0  0  0  0
  -25.1308  -36.1777   25.0827 H   0  0  0  0  0  0
  -20.9952  -28.3238   24.1394 H   0  0  0  0  0  0
  -20.5674  -26.2302   23.3588 H   0  0  0  0  0  0
  -21.6645  -26.7390   22.1183 H   0  0  0  0  0  0
  -19.6965  -25.6256   21.1215 H   0  0  0  0  0  0
  -19.6723  -27.3167   20.6752 H   0  0  0  0  0  0
  -17.4207  -26.6626   21.3995 H   0  0  0  0  0  0
  -18.0330  -26.0089   22.9010 H   0  0  0  0  0  0
  -19.7980  -30.7253   24.2188 H   0  0  0  0  0  0
  -17.5058  -31.6262   24.5120 H   0  0  0  0  0  0
  -15.5370  -30.2934   23.7756 H   0  0  0  0  0  0
  -15.8658  -28.0824   22.7036 H   0  0  0  0  0  0
  -24.5954  -30.7038   25.7667 H   0  0  0  0  0  0
  -24.8911  -32.2928   26.4680 H   0  0  0  0  0  0
  -25.8021  -30.8949   27.0183 H   0  0  0  0  0  0
  -26.3072  -29.6635   24.1252 H   0  0  0  0  0  0
  -27.4131  -29.7233   25.4764 H   0  0  0  0  0  0
  -27.8938  -30.4212   23.9523 H   0  0  0  0  0  0
  -27.2628  -33.3694   26.1912 H   0  0  0  0  0  0
  -28.3950  -32.6776   25.0350 H   0  0  0  0  0  0
  -28.0649  -31.8544   26.5498 H   0  0  0  0  0  0
  -28.2519  -38.0084   24.7505 H   0  0  0  0  0  0
  -28.1094  -36.2580   24.6306 H   0  0  0  0  0  0
  -27.2272  -37.1391   25.8884 H   0  0  0  0  0  0
  -20.9553  -29.8752   21.6816 H   0  0  0  0  0  0
  -26.0104  -38.2763   24.1478 H   0  0  0  0  0  0
  -31.9550  -20.5176   18.0208 H   0  0  0  0  0  0
  -31.3322  -18.3970   19.0711 H   0  0  0  0  0  0
  -30.5231  -17.8275   22.5295 H   0  0  0  0  0  0
  -28.8082  -18.2599   22.8840 H   0  0  0  0  0  0
  -28.0322  -16.0029   22.2395 H   0  0  0  0  0  0
  -29.6564  -15.5621   22.8860 H   0  0  0  0  0  0
  -28.1393  -17.7941   20.6169 H   0  0  0  0  0  0
  -26.6532  -21.9294   18.8676 H   0  0  0  0  0  0
  -26.1198  -23.4870   19.4863 H   0  0  0  0  0  0
  -26.5143  -22.1828   20.6030 H   0  0  0  0  0  0
  -30.8219  -23.6360   16.2969 H   0  0  0  0  0  0
  -30.2843  -21.9627   16.3433 H   0  0  0  0  0  0
  -31.9858  -22.3703   16.6509 H   0  0  0  0  0  0
  -29.3770  -24.5663   21.0033 H   0  0  0  0  0  0
  -27.7302  -24.5367   21.4268 H   0  0  0  0  0  0
  -28.4400  -23.4606   18.7058 H   0  0  0  0  0  0
  1 25  1  0  0  0
  1 30  2  0  0  0
  1 84  1  0  0  0
  2  3  1  0  0  0
  2 25  1  0  0  0
  2 86  1  0  0  0
  2 87  1  0  0  0
  3  4  1  0  0  0
  3 88  1  0  0  0
  3 89  1  0  0  0
  4  5  1  0  0  0
  4 90  1  0  0  0
  4 91  1  0  0  0
  5  6  1  0  0  0
  5 26  1  0  0  0
  5 92  1  0  0  0
  6 25  1  0  0  0
  6 93  1  0  0  0
  6 94  1  0  0  0
  7  8  2  0  0  0
  7 26  1  0  0  0
  7 29  1  0  0  0
  8  9  1  0  0  0
  8 22  1  0  0  0
  9 10  1  0  0  0
  9 27  2  0  0  0
 10 11  2  0  0  0
 10 15  1  0  0  0
 11 12  1  0  0  0
 11 95  1  0  0  0
 12 13  2  0  0  0
 12 96  1  0  0  0
 13 14  1  0  0  0
 13 31  1  0  0  0
 14 15  2  0  0  0
 14 97  1  0  0  0
 15 98  1  0  0  0
 16 17  2  0  0  0
 16 21  1  0  0  0
 16 31  1  0  0  0
 17 18  1  0  0  0
 17 99  1  0  0  0
 18 19  2  0  0  0
 18100  1  0  0  0
 19 20  1  0  0  0
 19 24  1  0  0  0
 20 21  2  0  0  0
 20101  1  0  0  0
 21 23  1  0  0  0
 22 28  1  0  0  0
 22 32  2  0  0  0
 26 27  1  0  0  0
 28102  1  0  0  0
 28103  1  0  0  0
 29104  1  0  0  0
 29105  1  0  0  0
 33 34  1  0  0  0
 33 66  1  0  0  0
 33 70  2  0  0  0
 34 36  1  0  0  0
 34 59  1  0  0  0
 34106  1  0  0  0
 35 44  2  0  0  0
 35 45  1  0  0  0
 35 68  1  0  0  0
 36 56  1  0  0  0
 36107  1  0  0  0
 37 39  1  0  0  0
 37 47  1  0  0  0
 37 66  1  0  0  0
 37108  1  0  0  0
 38 43  2  0  0  0
 38 46  1  0  0  0
 38 47  1  0  0  0
 39 64  1  0  0  0
 39 67  2  0  0  0
 40 52  1  0  0  0
 40 53  2  0  0  0
 40 58  1  0  0  0
 41109  1  0  0  0
 41110  1  0  0  0
 41111  1  0  0  0
 41 48  1  0  0  0
 42 43  1  0  0  0
 42 66  1  0  0  0
 42112  1  0  0  0
 42113  1  0  0  0
 43 44  1  0  0  0
 44114  1  0  0  0
 45 46  2  0  0  0
 45115  1  0  0  0
 46116  1  0  0  0
 47117  1  0  0  0
 47118  1  0  0  0
 48 56  1  0  0  0
 48 65  1  0  0  0
 48119  1  0  0  0
 49 50  1  0  0  0
 49 53  1  0  0  0
 49 64  1  0  0  0
 49120  1  0  0  0
 50 51  1  0  0  0
 50121  1  0  0  0
 50122  1  0  0  0
 51 52  1  0  0  0
 51123  1  0  0  0
 51124  1  0  0  0
 52125  1  0  0  0
 52126  1  0  0  0
 53 54  1  0  0  0
 54 55  2  0  0  0
 54127  1  0  0  0
 55 57  1  0  0  0
 55128  1  0  0  0
 56 69  2  0  0  0
 57 58  2  0  0  0
 57129  1  0  0  0
 58130  1  0  0  0
 59 60  1  0  0  0
 59 61  1  0  0  0
 59 62  1  0  0  0
 60131  1  0  0  0
 60132  1  0  0  0
 60133  1  0  0  0
 61134  1  0  0  0
 61135  1  0  0  0
 61136  1  0  0  0
 62137  1  0  0  0
 62138  1  0  0  0
 62139  1  0  0  0
 63 65  1  0  0  0
 63140  1  0  0  0
 63141  1  0  0  0
 63142  1  0  0  0
 64143  1  0  0  0
 65144  1  0  0  0
 68 81  1  0  0  0
 71 72  2  0  0  0
 71 73  1  0  0  0
 71145  1  0  0  0
 72 74  1  0  0  0
 72146  1  0  0  0
 73 75  2  0  0  0
 73 85  1  0  0  0
 74 83  2  0  0  0
 74 78  1  0  0  0
 75 82  1  0  0  0
 75 83  1  0  0  0
 76 77  1  0  0  0
 76 78  1  0  0  0
 76147  1  0  0  0
 76148  1  0  0  0
 77 84  1  0  0  0
 77149  1  0  0  0
 77150  1  0  0  0
 78 84  1  0  0  0
 78151  1  0  0  0
 79152  1  0  0  0
 79153  1  0  0  0
 79154  1  0  0  0
 79 82  1  0  0  0
 80 85  1  0  0  0
 80155  1  0  0  0
 80156  1  0  0  0
 80157  1  0  0  0
 81 82  1  0  0  0
 81158  1  0  0  0
 81159  1  0  0  0
 82160  1  0  0  0
M  ISO  4   1 100  68 101  81 101  84 100
M  END
> <chiral flag>
0

> <version>
0

> <s_m_source_file>
/data/baiqing/PycharmProjects/Reinvent-master-3.2/result/LINK_invent/BTK/process_docking_weight1_custom_sum_contain_oxygen_bond_distance_aromatic_linkinvent_7_9_3/rearranged_h_0197.sdf

> <i_m_source_file_index>
91

> <r_mmod_Potential_Energy-OPLS-2005>
773.408386230469

> <r_mmod_Stretch_Energy-OPLS-2005>
352.201446533203

> <r_mmod_Bend_Energy-OPLS-2005>
461.075439453125

> <r_mmod_Torsional_Energy-OPLS-2005>
281.762603759766

> <r_mmod_Improper_Torsional_Energy-OPLS-2005>
9.83380126953125

> <r_mmod_Van_der_Waal_Energy-OPLS-2005>
132.402145385742

> <r_mmod_Electrostatic_Energy-OPLS-2005>
-487.288177490234

> <r_mmod_Solvation_Energy-OPLS-2005>
-218.864379882812

> <b_mmod_Minimization_Converged-OPLS-2005>
0

> <r_mmod_RMS_Derivative-OPLS-2005>
3.68724584579468

$$$$
92
                    3D
 Structure written by MMmdl.
169178  0  0  1  0            999 V2000
  -30.7136  -14.4590   20.6133 C   0  0  0  0  0  0
  -30.4246  -12.3124   19.4219 C   0  0  0  0  0  0
  -29.4967  -12.5122   18.2053 C   0  0  0  0  0  0
  -28.0162  -12.3699   18.6123 C   0  0  0  0  0  0
  -27.6617  -13.2035   19.8722 C   0  0  2  0  0  0
  -28.6990  -12.9657   20.9890 C   0  0  0  0  0  0
  -25.2594  -13.8153   20.5667 C   0  0  0  0  0  0
  -24.1840  -13.0439   20.9164 C   0  0  0  0  0  0
  -24.6387  -11.6902   20.8720 C   0  0  0  0  0  0
  -23.9049  -10.4294   21.0395 C   0  0  0  0  0  0
  -24.3605   -9.4214   21.9174 C   0  0  0  0  0  0
  -23.6288   -8.2248   22.0749 C   0  0  0  0  0  0
  -22.4270   -8.0280   21.3543 C   0  0  0  0  0  0
  -21.9898   -9.0250   20.4645 C   0  0  0  0  0  0
  -22.7220  -10.2132   20.3050 C   0  0  0  0  0  0
  -21.6854   -6.0732   22.5278 C   0  0  0  0  0  0
  -21.4014   -6.5637   23.8212 C   0  0  0  0  0  0
  -21.3659   -5.6789   24.9174 C   0  0  0  0  0  0
  -21.6045   -4.3052   24.7224 C   0  0  0  0  0  0
  -21.8819   -3.8142   23.4345 C   0  0  0  0  0  0
  -21.9192   -4.6960   22.3401 C   0  0  0  0  0  0
  -22.7867  -13.5248   21.1837 C   0  0  0  0  0  0
  -22.1661   -4.2145   21.0978 F   0  0  0  0  0  0
  -21.5630   -3.4536   25.7737 F   0  0  0  0  0  0
  -30.0319  -13.2887   20.4526 N   0  0  0  0  0  0
  -26.3019  -12.9313   20.3331 N   0  0  0  0  0  0
  -25.9307  -11.6478   20.5729 N   0  0  0  0  0  0
  -22.0506  -12.8247   22.0399 N   0  0  0  0  0  0
  -25.4339  -15.1869   20.4095 N   0  0  0  0  0  0
  -31.8166  -14.6550   20.0911 O   0  0  0  0  0  0
  -21.6641   -6.8873   21.4239 O   0  0  0  0  0  0
  -22.3553  -14.5554   20.6683 O   0  0  0  0  0  0
  -24.6146  -31.8679   23.2096 C   0  0  0  0  0  0
  -25.9039  -32.4822   23.8393 C   0  0  1  0  0  0
  -27.2339  -27.4347   20.1015 C   0  0  0  0  0  0
  -25.5896  -33.8621   24.2327 N   0  0  0  0  0  0
  -23.4026  -30.4909   21.5504 C   0  0  2  0  0  0
  -24.8495  -28.9555   20.1167 C   0  0  0  0  0  0
  -22.7408  -29.4656   22.4992 C   0  0  0  0  0  0
  -18.0271  -28.1376   22.8492 C   0  0  0  0  0  0
  -24.1487  -36.7317   23.2638 C   0  0  0  0  0  0
  -25.9311  -30.8353   21.3610 C   0  0  0  0  0  0
  -26.0105  -29.4696   20.7085 C   0  0  0  0  0  0
  -27.2088  -28.7191   20.6918 C   0  0  0  0  0  0
  -26.0563  -26.9335   19.5054 C   0  0  0  0  0  0
  -24.8673  -27.6869   19.5112 C   0  0  0  0  0  0
  -23.6109  -29.8217   20.1658 C   0  0  0  0  0  0
  -25.4107  -36.3112   24.0339 C   0  0  1  0  0  0
  -20.5861  -28.3662   23.1321 C   0  0  2  0  0  0
  -20.6762  -26.9400   22.5417 C   0  0  0  0  0  0
  -19.5743  -26.6384   21.5212 C   0  0  0  0  0  0
  -18.1921  -26.7922   22.1623 C   0  0  0  0  0  0
  -19.1520  -28.8835   23.2903 C   0  0  0  0  0  0
  -18.9448  -30.1443   23.8910 C   0  0  0  0  0  0
  -17.6450  -30.6584   24.0564 C   0  0  0  0  0  0
  -25.9032  -34.9476   23.5130 C   0  0  0  0  0  0
  -16.5342  -29.9085   23.6326 C   0  0  0  0  0  0
  -16.7260  -28.6502   23.0347 C   0  0  0  0  0  0
  -26.4469  -31.6599   25.0719 C   0  0  0  0  0  0
  -25.3741  -31.3697   26.1473 C   0  0  0  0  0  0
  -27.0297  -30.3043   24.6083 C   0  0  0  0  0  0
  -27.6050  -32.4313   25.7479 C   0  0  0  0  0  0
  -27.5582  -37.1811   24.8464 C   0  0  0  0  0  0
  -21.4136  -29.3029   22.3730 N   0  0  0  0  0  0
  -26.4294  -37.3795   23.9407 N   0  0  0  0  0  0
  -24.6678  -31.0786   22.0991 N   0  0  0  0  0  0
  -23.4184  -28.8198   23.3030 O   0  0  0  0  0  0
  -28.3942  -26.6915   20.0904 O   0  0  0  0  0  0
  -26.5595  -34.8927   22.4691 O   0  0  0  0  0  0
  -23.5340  -32.1426   23.7496 O   0  0  0  0  0  0
  -28.5003  -24.1653   18.4784 C   0  0  0  0  0  0
  -28.8315  -24.2465   19.8386 C   0  0  0  0  0  0
  -29.0202  -23.0914   17.7631 C   0  0  0  0  0  0
  -30.0780  -22.3208   19.6384 C   0  0  0  0  0  0
  -29.6813  -17.2008   22.8166 C   0  0  0  0  0  0
  -29.9276  -15.7031   22.5924 C   0  0  0  0  0  0
  -30.0219  -16.8375   20.5043 C   0  0  0  0  0  0
  -30.3630  -17.8508   21.6146 C   0  0  1  0  0  0
  -29.6023  -22.1167   15.5792 C   0  0  0  0  0  0
  -29.9627  -20.1201   22.5552 C   0  0  0  0  0  0
  -28.3055  -25.3913   20.7073 C   0  0  0  0  0  0
  -31.1618  -21.4026   20.2031 C   0  0  0  0  0  0
  -30.8880  -19.8642   20.2398 C   0  0  0  0  0  0
  -29.6168  -23.3032   20.4162 N   0  0  0  0  0  0
  -29.8055  -22.1732   18.3461 N   0  0  0  0  0  0
  -30.0125  -15.4992   21.1367 N   0  0  0  0  0  0
  -28.7370  -22.9515   16.4046 N   0  0  0  0  0  0
  -30.0175  -19.2890   21.3222 N   0  3  1  0  0  0
  -31.4691  -12.4147   19.1208 H   0  0  0  0  0  0
  -30.3296  -11.2979   19.8126 H   0  0  0  0  0  0
  -29.7402  -11.7905   17.4243 H   0  0  0  0  0  0
  -29.6648  -13.4994   17.7719 H   0  0  0  0  0  0
  -27.8252  -11.3134   18.8033 H   0  0  0  0  0  0
  -27.3675  -12.6486   17.7811 H   0  0  0  0  0  0
  -27.7118  -14.2545   19.5872 H   0  0  0  0  0  0
  -28.6781  -11.9227   21.3088 H   0  0  0  0  0  0
  -28.4338  -13.5364   21.8731 H   0  0  0  0  0  0
  -25.2753   -9.5696   22.4743 H   0  0  0  0  0  0
  -23.9999   -7.4642   22.7468 H   0  0  0  0  0  0
  -21.0828   -8.8764   19.8958 H   0  0  0  0  0  0
  -22.3670  -10.9666   19.6157 H   0  0  0  0  0  0
  -21.2008   -7.6146   23.9716 H   0  0  0  0  0  0
  -21.1482   -6.0519   25.9078 H   0  0  0  0  0  0
  -22.0599   -2.7605   23.2847 H   0  0  0  0  0  0
  -22.4109  -11.9906   22.4792 H   0  0  0  0  0  0
  -21.1126  -13.1280   22.2600 H   0  0  0  0  0  0
  -24.6729  -15.8474   20.5245 H   0  0  0  0  0  0
  -26.2964  -15.6238   20.1106 H   0  0  0  0  0  0
  -26.7111  -32.5537   23.1159 H   0  0  0  0  0  0
  -25.0053  -33.9783   25.0476 H   0  0  0  0  0  0
  -22.6914  -31.3076   21.4109 H   0  0  0  0  0  0
  -23.3745  -35.9655   23.3309 H   0  0  0  0  0  0
  -24.3581  -36.8921   22.2051 H   0  0  0  0  0  0
  -23.7245  -37.6527   23.6644 H   0  0  0  0  0  0
  -26.0415  -31.6018   20.5927 H   0  0  0  0  0  0
  -26.8196  -30.8896   21.9784 H   0  0  0  0  0  0
  -28.1077  -29.1145   21.1443 H   0  0  0  0  0  0
  -26.0520  -25.9613   19.0340 H   0  0  0  0  0  0
  -23.9748  -27.2859   19.0510 H   0  0  0  0  0  0
  -23.7181  -30.5956   19.4049 H   0  0  0  0  0  0
  -22.7352  -29.2403   19.8711 H   0  0  0  0  0  0
  -25.1283  -36.1978   25.0832 H   0  0  0  0  0  0
  -20.9954  -28.3224   24.1440 H   0  0  0  0  0  0
  -20.5666  -26.2268   23.3600 H   0  0  0  0  0  0
  -21.6633  -26.7443   22.1209 H   0  0  0  0  0  0
  -19.6904  -25.6300   21.1229 H   0  0  0  0  0  0
  -19.6686  -27.3203   20.6750 H   0  0  0  0  0  0
  -17.4193  -26.6673   21.4024 H   0  0  0  0  0  0
  -18.0322  -26.0059   22.9014 H   0  0  0  0  0  0
  -19.7927  -30.7251   24.2286 H   0  0  0  0  0  0
  -17.5009  -31.6267   24.5161 H   0  0  0  0  0  0
  -15.5343  -30.2991   23.7644 H   0  0  0  0  0  0
  -15.8661  -28.0826   22.7052 H   0  0  0  0  0  0
  -24.5910  -30.7050   25.7807 H   0  0  0  0  0  0
  -24.8939  -32.2852   26.4939 H   0  0  0  0  0  0
  -25.8104  -30.8852   27.0217 H   0  0  0  0  0  0
  -26.2834  -29.6808   24.1146 H   0  0  0  0  0  0
  -27.4082  -29.7274   25.4530 H   0  0  0  0  0  0
  -27.8662  -30.4365   23.9217 H   0  0  0  0  0  0
  -27.2671  -33.3597   26.2094 H   0  0  0  0  0  0
  -28.3840  -32.6898   25.0295 H   0  0  0  0  0  0
  -28.0740  -31.8415   26.5364 H   0  0  0  0  0  0
  -28.2604  -38.0104   24.7511 H   0  0  0  0  0  0
  -28.1073  -36.2637   24.6290 H   0  0  0  0  0  0
  -27.2300  -37.1462   25.8868 H   0  0  0  0  0  0
  -20.9295  -29.8756   21.6957 H   0  0  0  0  0  0
  -26.0186  -38.2875   24.1405 H   0  0  0  0  0  0
  -27.8780  -24.9178   18.0161 H   0  0  0  0  0  0
  -30.0835  -17.5366   23.7736 H   0  0  0  0  0  0
  -28.6090  -17.4022   22.8084 H   0  0  0  0  0  0
  -29.1392  -15.1212   23.0667 H   0  0  0  0  0  0
  -30.8700  -15.4081   23.0600 H   0  0  0  0  0  0
  -30.7208  -16.9139   19.6689 H   0  0  0  0  0  0
  -29.0247  -17.0219   20.1024 H   0  0  0  0  0  0
  -31.4367  -17.7965   21.8085 H   0  0  0  0  0  0
  -29.3820  -22.2683   14.5222 H   0  0  0  0  0  0
  -29.4557  -21.0608   15.8106 H   0  0  0  0  0  0
  -30.6535  -22.3608   15.7427 H   0  0  0  0  0  0
  -29.2588  -19.7211   23.2843 H   0  0  0  0  0  0
  -29.6109  -21.1296   22.3465 H   0  0  0  0  0  0
  -30.9411  -20.1852   23.0327 H   0  0  0  0  0  0
  -28.8899  -25.4317   21.6273 H   0  0  0  0  0  0
  -27.2905  -25.1393   21.0187 H   0  0  0  0  0  0
  -31.4974  -21.7704   21.1724 H   0  0  0  0  0  0
  -32.0286  -21.5541   19.5593 H   0  0  0  0  0  0
  -31.8728  -19.4063   20.3364 H   0  0  0  0  0  0
  -30.5162  -19.5345   19.2688 H   0  0  0  0  0  0
  -28.2351  -23.7094   15.9526 H   0  0  0  0  0  0
  -29.0728  -19.2955   20.9650 H   0  0  0  0  0  0
  1 25  1  0  0  0
  1 30  2  0  0  0
  1 86  1  0  0  0
  2  3  1  0  0  0
  2 25  1  0  0  0
  2 89  1  0  0  0
  2 90  1  0  0  0
  3  4  1  0  0  0
  3 91  1  0  0  0
  3 92  1  0  0  0
  4  5  1  0  0  0
  4 93  1  0  0  0
  4 94  1  0  0  0
  5  6  1  0  0  0
  5 26  1  0  0  0
  5 95  1  0  0  0
  6 25  1  0  0  0
  6 96  1  0  0  0
  6 97  1  0  0  0
  7  8  2  0  0  0
  7 26  1  0  0  0
  7 29  1  0  0  0
  8  9  1  0  0  0
  8 22  1  0  0  0
  9 10  1  0  0  0
  9 27  2  0  0  0
 10 11  2  0  0  0
 10 15  1  0  0  0
 11 12  1  0  0  0
 11 98  1  0  0  0
 12 13  2  0  0  0
 12 99  1  0  0  0
 13 14  1  0  0  0
 13 31  1  0  0  0
 14 15  2  0  0  0
 14100  1  0  0  0
 15101  1  0  0  0
 16 17  2  0  0  0
 16 21  1  0  0  0
 16 31  1  0  0  0
 17 18  1  0  0  0
 17102  1  0  0  0
 18 19  2  0  0  0
 18103  1  0  0  0
 19 20  1  0  0  0
 19 24  1  0  0  0
 20 21  2  0  0  0
 20104  1  0  0  0
 21 23  1  0  0  0
 22 28  1  0  0  0
 22 32  2  0  0  0
 26 27  1  0  0  0
 28105  1  0  0  0
 28106  1  0  0  0
 29107  1  0  0  0
 29108  1  0  0  0
 33 34  1  0  0  0
 33 66  1  0  0  0
 33 70  2  0  0  0
 34 36  1  0  0  0
 34 59  1  0  0  0
 34109  1  0  0  0
 35 44  2  0  0  0
 35 45  1  0  0  0
 35 68  1  0  0  0
 36 56  1  0  0  0
 36110  1  0  0  0
 37 39  1  0  0  0
 37 47  1  0  0  0
 37 66  1  0  0  0
 37111  1  0  0  0
 38 43  2  0  0  0
 38 46  1  0  0  0
 38 47  1  0  0  0
 39 64  1  0  0  0
 39 67  2  0  0  0
 40 52  1  0  0  0
 40 53  2  0  0  0
 40 58  1  0  0  0
 41112  1  0  0  0
 41113  1  0  0  0
 41114  1  0  0  0
 41 48  1  0  0  0
 42 43  1  0  0  0
 42 66  1  0  0  0
 42115  1  0  0  0
 42116  1  0  0  0
 43 44  1  0  0  0
 44117  1  0  0  0
 45 46  2  0  0  0
 45118  1  0  0  0
 46119  1  0  0  0
 47120  1  0  0  0
 47121  1  0  0  0
 48 56  1  0  0  0
 48 65  1  0  0  0
 48122  1  0  0  0
 49 50  1  0  0  0
 49 53  1  0  0  0
 49 64  1  0  0  0
 49123  1  0  0  0
 50 51  1  0  0  0
 50124  1  0  0  0
 50125  1  0  0  0
 51 52  1  0  0  0
 51126  1  0  0  0
 51127  1  0  0  0
 52128  1  0  0  0
 52129  1  0  0  0
 53 54  1  0  0  0
 54 55  2  0  0  0
 54130  1  0  0  0
 55 57  1  0  0  0
 55131  1  0  0  0
 56 69  2  0  0  0
 57 58  2  0  0  0
 57132  1  0  0  0
 58133  1  0  0  0
 59 60  1  0  0  0
 59 61  1  0  0  0
 59 62  1  0  0  0
 60134  1  0  0  0
 60135  1  0  0  0
 60136  1  0  0  0
 61137  1  0  0  0
 61138  1  0  0  0
 61139  1  0  0  0
 62140  1  0  0  0
 62141  1  0  0  0
 62142  1  0  0  0
 63 65  1  0  0  0
 63143  1  0  0  0
 63144  1  0  0  0
 63145  1  0  0  0
 64146  1  0  0  0
 65147  1  0  0  0
 68 81  1  0  0  0
 71 72  2  0  0  0
 71 73  1  0  0  0
 71148  1  0  0  0
 72 81  1  0  0  0
 72 84  1  0  0  0
 73 85  2  0  0  0
 73 87  1  0  0  0
 74 82  1  0  0  0
 74 84  2  0  0  0
 74 85  1  0  0  0
 75 76  1  0  0  0
 75149  1  0  0  0
 75150  1  0  0  0
 75 78  1  0  0  0
 76 86  1  0  0  0
 76151  1  0  0  0
 76152  1  0  0  0
 77 78  1  0  0  0
 77 86  1  0  0  0
 77153  1  0  0  0
 77154  1  0  0  0
 78 88  1  0  0  0
 78155  1  0  0  0
 79 87  1  0  0  0
 79156  1  0  0  0
 79157  1  0  0  0
 79158  1  0  0  0
 80159  1  0  0  0
 80160  1  0  0  0
 80161  1  0  0  0
 80 88  1  0  0  0
 81162  1  0  0  0
 81163  1  0  0  0
 82 83  1  0  0  0
 82164  1  0  0  0
 82165  1  0  0  0
 83 88  1  0  0  0
 83166  1  0  0  0
 83167  1  0  0  0
 87168  1  0  0  0
 88169  1  0  0  0
M  CHG  1  88   1
M  ISO  4   1 100  68 101  81 101  86 100
M  END
> <chiral flag>
0

> <version>
0

> <s_m_source_file>
/data/baiqing/PycharmProjects/Reinvent-master-3.2/result/LINK_invent/BTK/process_docking_weight1_custom_sum_contain_oxygen_bond_distance_aromatic_linkinvent_7_9_3/rearranged_h_0197.sdf

> <i_m_source_file_index>
92

> <r_mmod_Potential_Energy-OPLS-2005>
-464.240417480469

> <r_mmod_Stretch_Energy-OPLS-2005>
42.665641784668

> <r_mmod_Bend_Energy-OPLS-2005>
150.178985595703

> <r_mmod_Torsional_Energy-OPLS-2005>
357.85107421875

> <r_mmod_Improper_Torsional_Energy-OPLS-2005>
12.0283164978027

> <r_mmod_Van_der_Waal_Energy-OPLS-2005>
166.10725402832

> <r_mmod_Electrostatic_Energy-OPLS-2005>
-753.209899902344

> <r_mmod_Solvation_Energy-OPLS-2005>
-450.791564941406

> <b_mmod_Minimization_Converged-OPLS-2005>
0

> <r_mmod_RMS_Derivative-OPLS-2005>
0.562305152416229

$$$$
93
                    3D
 Structure written by MMmdl.
167176  0  0  1  0            999 V2000
  -30.7943  -14.2882   20.7503 C   0  0  0  0  0  0
  -30.4113  -12.2807   19.3678 C   0  0  0  0  0  0
  -29.4722  -12.5333   18.1769 C   0  0  0  0  0  0
  -28.0008  -12.3769   18.6007 C   0  0  0  0  0  0
  -27.6638  -13.1965   19.8722 C   0  0  2  0  0  0
  -28.6963  -12.9197   20.9837 C   0  0  0  0  0  0
  -25.2595  -13.8156   20.5645 C   0  0  0  0  0  0
  -24.1839  -13.0446   20.9148 C   0  0  0  0  0  0
  -24.6379  -11.6905   20.8717 C   0  0  0  0  0  0
  -23.9055  -10.4297   21.0409 C   0  0  0  0  0  0
  -24.3613   -9.4208   21.9183 C   0  0  0  0  0  0
  -23.6290   -8.2242   22.0754 C   0  0  0  0  0  0
  -22.4268   -8.0285   21.3549 C   0  0  0  0  0  0
  -21.9906   -9.0257   20.4647 C   0  0  0  0  0  0
  -22.7233  -10.2134   20.3057 C   0  0  0  0  0  0
  -21.6850   -6.0738   22.5284 C   0  0  0  0  0  0
  -21.4010   -6.5640   23.8218 C   0  0  0  0  0  0
  -21.3660   -5.6791   24.9182 C   0  0  0  0  0  0
  -21.6043   -4.3054   24.7229 C   0  0  0  0  0  0
  -21.8819   -3.8147   23.4351 C   0  0  0  0  0  0
  -21.9188   -4.6967   22.3407 C   0  0  0  0  0  0
  -22.7866  -13.5243   21.1834 C   0  0  0  0  0  0
  -22.1655   -4.2152   21.0986 F   0  0  0  0  0  0
  -21.5632   -3.4539   25.7742 F   0  0  0  0  0  0
  -30.0474  -13.1979   20.4556 N   0  0  0  0  0  0
  -26.3021  -12.9306   20.3328 N   0  0  0  0  0  0
  -25.9290  -11.6473   20.5724 N   0  0  0  0  0  0
  -22.0511  -12.8238   22.0397 N   0  0  0  0  0  0
  -25.4346  -15.1873   20.4060 N   0  0  0  0  0  0
  -31.7642  -14.6617   20.0804 O   0  0  0  0  0  0
  -21.6633   -6.8880   21.4246 O   0  0  0  0  0  0
  -22.3552  -14.5556   20.6694 O   0  0  0  0  0  0
  -24.6112  -31.8715   23.2141 C   0  0  0  0  0  0
  -25.9021  -32.4837   23.8425 C   0  0  1  0  0  0
  -27.2228  -27.4731   20.0843 C   0  0  0  0  0  0
  -25.5903  -33.8644   24.2352 N   0  0  0  0  0  0
  -23.3951  -30.4984   21.5554 C   0  0  2  0  0  0
  -24.8346  -28.9654   20.1189 C   0  0  0  0  0  0
  -22.7375  -29.4696   22.5014 C   0  0  0  0  0  0
  -18.0260  -28.1375   22.8469 C   0  0  0  0  0  0
  -24.1484  -36.7335   23.2634 C   0  0  0  0  0  0
  -25.9193  -30.8482   21.3591 C   0  0  0  0  0  0
  -25.9926  -29.4855   20.7076 C   0  0  0  0  0  0
  -27.1911  -28.7472   20.6820 C   0  0  0  0  0  0
  -26.0471  -26.9531   19.4952 C   0  0  0  0  0  0
  -24.8535  -27.6983   19.5104 C   0  0  0  0  0  0
  -23.5998  -29.8329   20.1679 C   0  0  0  0  0  0
  -25.4104  -36.3131   24.0333 C   0  0  1  0  0  0
  -20.5840  -28.3678   23.1310 C   0  0  2  0  0  0
  -20.6749  -26.9421   22.5409 C   0  0  0  0  0  0
  -19.5752  -26.6391   21.5184 C   0  0  0  0  0  0
  -18.1924  -26.7926   22.1588 C   0  0  0  0  0  0
  -19.1504  -28.8841   23.2888 C   0  0  0  0  0  0
  -18.9446  -30.1438   23.8913 C   0  0  0  0  0  0
  -17.6454  -30.6587   24.0558 C   0  0  0  0  0  0
  -25.9026  -34.9488   23.5131 C   0  0  0  0  0  0
  -16.5341  -29.9092   23.6316 C   0  0  0  0  0  0
  -16.7251  -28.6501   23.0338 C   0  0  0  0  0  0
  -26.4465  -31.6601   25.0733 C   0  0  0  0  0  0
  -25.3735  -31.3685   26.1488 C   0  0  0  0  0  0
  -27.0286  -30.3052   24.6056 C   0  0  0  0  0  0
  -27.6070  -32.4304   25.7458 C   0  0  0  0  0  0
  -27.5578  -37.1824   24.8462 C   0  0  0  0  0  0
  -21.4112  -29.3055   22.3739 N   0  0  0  0  0  0
  -26.4296  -37.3809   23.9395 N   0  0  0  0  0  0
  -24.6608  -31.0861   22.1025 N   0  0  0  0  0  0
  -23.4159  -28.8217   23.3034 O   0  0  0  0  0  0
  -28.4167  -26.7977   20.0864 O   0  0  0  0  0  0
  -26.5592  -34.8934   22.4700 O   0  0  0  0  0  0
  -23.5318  -32.1456   23.7575 O   0  0  0  0  0  0
  -29.7501  -19.2983   18.3295 C   0  0  0  0  0  0
  -29.5975  -20.6112   18.8087 C   0  0  0  0  0  0
  -29.7570  -18.2437   19.2593 C   0  0  0  0  0  0
  -29.4339  -20.8102   20.1925 C   0  0  0  0  0  0
  -29.5786  -18.5428   20.6190 C   0  0  0  0  0  0
  -30.3448  -22.5642   21.8520 C   0  0  0  0  0  0
  -29.6780  -23.6960   22.6502 C   0  0  0  0  0  0
  -27.9778  -22.5520   21.4055 C   0  0  0  0  0  0
  -29.3241  -22.2106   20.7682 C   0  0  2  0  0  0
  -31.0442  -17.2568   21.8979 C   0  0  0  0  0  0
  -31.2130  -15.9059   22.6025 C   0  0  0  0  0  0
  -27.7976  -25.0453   21.7015 C   0  0  0  0  0  0
  -28.3788  -25.3930   20.3061 C   0  0  0  0  0  0
  -29.3949  -19.7903   21.0786 N   0  0  0  0  0  0
  -29.6496  -17.5493   21.5851 N   0  0  0  0  0  0
  -30.4849  -14.8428   21.9252 N   0  0  0  0  0  0
  -28.2456  -23.7362   22.2540 N   0  3  2  0  0  0
  -31.4518  -12.3964   19.0574 H   0  0  0  0  0  0
  -30.3196  -11.2492   19.7115 H   0  0  0  0  0  0
  -29.7009  -11.8432   17.3630 H   0  0  0  0  0  0
  -29.6375  -13.5383   17.7854 H   0  0  0  0  0  0
  -27.8158  -11.3172   18.7830 H   0  0  0  0  0  0
  -27.3394  -12.6632   17.7819 H   0  0  0  0  0  0
  -27.7300  -14.2526   19.6072 H   0  0  0  0  0  0
  -28.6438  -11.8751   21.2941 H   0  0  0  0  0  0
  -28.4324  -13.4973   21.8694 H   0  0  0  0  0  0
  -25.2766   -9.5676   22.4749 H   0  0  0  0  0  0
  -24.0001   -7.4632   22.7470 H   0  0  0  0  0  0
  -21.0840   -8.8779   19.8952 H   0  0  0  0  0  0
  -22.3704  -10.9673   19.6162 H   0  0  0  0  0  0
  -21.1998   -7.6147   23.9727 H   0  0  0  0  0  0
  -21.1483   -6.0519   25.9085 H   0  0  0  0  0  0
  -22.0595   -2.7611   23.2852 H   0  0  0  0  0  0
  -22.4119  -11.9885   22.4767 H   0  0  0  0  0  0
  -21.1138  -13.1281   22.2624 H   0  0  0  0  0  0
  -24.6768  -15.8503   20.5275 H   0  0  0  0  0  0
  -26.3027  -15.6253   20.1221 H   0  0  0  0  0  0
  -26.7090  -32.5549   23.1193 H   0  0  0  0  0  0
  -25.0089  -33.9833   25.0517 H   0  0  0  0  0  0
  -22.6837  -31.3154   21.4209 H   0  0  0  0  0  0
  -23.3732  -35.9682   23.3328 H   0  0  0  0  0  0
  -24.3567  -36.8922   22.2038 H   0  0  0  0  0  0
  -23.7254  -37.6558   23.6636 H   0  0  0  0  0  0
  -26.0262  -31.6129   20.5895 H   0  0  0  0  0  0
  -26.8089  -30.9014   21.9743 H   0  0  0  0  0  0
  -28.0920  -29.1490   21.1242 H   0  0  0  0  0  0
  -26.0342  -25.9899   19.0060 H   0  0  0  0  0  0
  -23.9599  -27.2997   19.0494 H   0  0  0  0  0  0
  -23.7102  -30.6078   19.4084 H   0  0  0  0  0  0
  -22.7221  -29.2560   19.8713 H   0  0  0  0  0  0
  -25.1275  -36.2009   25.0828 H   0  0  0  0  0  0
  -20.9921  -28.3251   24.1433 H   0  0  0  0  0  0
  -20.5621  -26.2303   23.3599 H   0  0  0  0  0  0
  -21.6635  -26.7463   22.1240 H   0  0  0  0  0  0
  -19.6931  -25.6296   21.1237 H   0  0  0  0  0  0
  -19.6698  -27.3179   20.6694 H   0  0  0  0  0  0
  -17.4197  -26.6651   21.3985 H   0  0  0  0  0  0
  -18.0343  -26.0056   22.8975 H   0  0  0  0  0  0
  -19.7929  -30.7227   24.2303 H   0  0  0  0  0  0
  -17.5023  -31.6265   24.5167 H   0  0  0  0  0  0
  -15.5345  -30.3006   23.7654 H   0  0  0  0  0  0
  -15.8635  -28.0833   22.7060 H   0  0  0  0  0  0
  -24.5970  -30.6942   25.7849 H   0  0  0  0  0  0
  -24.8840  -32.2811   26.4895 H   0  0  0  0  0  0
  -25.8112  -30.8928   27.0269 H   0  0  0  0  0  0
  -26.2802  -29.6805   24.1162 H   0  0  0  0  0  0
  -27.4137  -29.7288   25.4478 H   0  0  0  0  0  0
  -27.8598  -30.4394   23.9130 H   0  0  0  0  0  0
  -27.2744  -33.3627   26.2034 H   0  0  0  0  0  0
  -28.3863  -32.6815   25.0247 H   0  0  0  0  0  0
  -28.0751  -31.8413   26.5358 H   0  0  0  0  0  0
  -28.2624  -38.0098   24.7500 H   0  0  0  0  0  0
  -28.1051  -36.2635   24.6303 H   0  0  0  0  0  0
  -27.2300  -37.1492   25.8869 H   0  0  0  0  0  0
  -20.9282  -29.8825   21.6988 H   0  0  0  0  0  0
  -26.0191  -38.2891   24.1399 H   0  0  0  0  0  0
  -29.8831  -19.1049   17.2744 H   0  0  0  0  0  0
  -29.6209  -21.4491   18.1222 H   0  0  0  0  0  0
  -29.9067  -17.2247   18.9293 H   0  0  0  0  0  0
  -30.5074  -21.7167   22.5185 H   0  0  0  0  0  0
  -31.3138  -22.8445   21.4407 H   0  0  0  0  0  0
  -30.1739  -24.6482   22.4618 H   0  0  0  0  0  0
  -29.7598  -23.5100   23.7222 H   0  0  0  0  0  0
  -27.6682  -21.7384   22.0616 H   0  0  0  0  0  0
  -27.1826  -22.6987   20.6737 H   0  0  0  0  0  0
  -29.4823  -22.8937   19.9359 H   0  0  0  0  0  0
  -31.6490  -17.2672   20.9892 H   0  0  0  0  0  0
  -31.4375  -18.0500   22.5351 H   0  0  0  0  0  0
  -30.8347  -15.9719   23.6233 H   0  0  0  0  0  0
  -32.2703  -15.6466   22.6832 H   0  0  0  0  0  0
  -26.7074  -25.0563   21.6591 H   0  0  0  0  0  0
  -28.0779  -25.8219   22.4149 H   0  0  0  0  0  0
  -27.8610  -24.8682   19.5036 H   0  0  0  0  0  0
  -29.4217  -25.0859   20.2468 H   0  0  0  0  0  0
  -29.1566  -17.8289   22.4244 H   0  0  0  0  0  0
  -29.6867  -14.4556   22.4059 H   0  0  0  0  0  0
  -27.7121  -23.6002   23.1021 H   0  0  0  0  0  0
  1 25  1  0  0  0
  1 30  2  0  0  0
  1 86  1  0  0  0
  2  3  1  0  0  0
  2 25  1  0  0  0
  2 88  1  0  0  0
  2 89  1  0  0  0
  3  4  1  0  0  0
  3 90  1  0  0  0
  3 91  1  0  0  0
  4  5  1  0  0  0
  4 92  1  0  0  0
  4 93  1  0  0  0
  5  6  1  0  0  0
  5 26  1  0  0  0
  5 94  1  0  0  0
  6 25  1  0  0  0
  6 95  1  0  0  0
  6 96  1  0  0  0
  7  8  2  0  0  0
  7 26  1  0  0  0
  7 29  1  0  0  0
  8  9  1  0  0  0
  8 22  1  0  0  0
  9 10  1  0  0  0
  9 27  2  0  0  0
 10 11  2  0  0  0
 10 15  1  0  0  0
 11 12  1  0  0  0
 11 97  1  0  0  0
 12 13  2  0  0  0
 12 98  1  0  0  0
 13 14  1  0  0  0
 13 31  1  0  0  0
 14 15  2  0  0  0
 14 99  1  0  0  0
 15100  1  0  0  0
 16 17  2  0  0  0
 16 21  1  0  0  0
 16 31  1  0  0  0
 17 18  1  0  0  0
 17101  1  0  0  0
 18 19  2  0  0  0
 18102  1  0  0  0
 19 20  1  0  0  0
 19 24  1  0  0  0
 20 21  2  0  0  0
 20103  1  0  0  0
 21 23  1  0  0  0
 22 28  1  0  0  0
 22 32  2  0  0  0
 26 27  1  0  0  0
 28104  1  0  0  0
 28105  1  0  0  0
 29106  1  0  0  0
 29107  1  0  0  0
 33 34  1  0  0  0
 33 66  1  0  0  0
 33 70  2  0  0  0
 34 36  1  0  0  0
 34 59  1  0  0  0
 34108  1  0  0  0
 35 44  2  0  0  0
 35 45  1  0  0  0
 35 68  1  0  0  0
 36 56  1  0  0  0
 36109  1  0  0  0
 37 39  1  0  0  0
 37 47  1  0  0  0
 37 66  1  0  0  0
 37110  1  0  0  0
 38 43  2  0  0  0
 38 46  1  0  0  0
 38 47  1  0  0  0
 39 64  1  0  0  0
 39 67  2  0  0  0
 40 52  1  0  0  0
 40 53  2  0  0  0
 40 58  1  0  0  0
 41111  1  0  0  0
 41112  1  0  0  0
 41113  1  0  0  0
 41 48  1  0  0  0
 42 43  1  0  0  0
 42 66  1  0  0  0
 42114  1  0  0  0
 42115  1  0  0  0
 43 44  1  0  0  0
 44116  1  0  0  0
 45 46  2  0  0  0
 45117  1  0  0  0
 46118  1  0  0  0
 47119  1  0  0  0
 47120  1  0  0  0
 48 56  1  0  0  0
 48 65  1  0  0  0
 48121  1  0  0  0
 49 50  1  0  0  0
 49 53  1  0  0  0
 49 64  1  0  0  0
 49122  1  0  0  0
 50 51  1  0  0  0
 50123  1  0  0  0
 50124  1  0  0  0
 51 52  1  0  0  0
 51125  1  0  0  0
 51126  1  0  0  0
 52127  1  0  0  0
 52128  1  0  0  0
 53 54  1  0  0  0
 54 55  2  0  0  0
 54129  1  0  0  0
 55 57  1  0  0  0
 55130  1  0  0  0
 56 69  2  0  0  0
 57 58  2  0  0  0
 57131  1  0  0  0
 58132  1  0  0  0
 59 60  1  0  0  0
 59 61  1  0  0  0
 59 62  1  0  0  0
 60133  1  0  0  0
 60134  1  0  0  0
 60135  1  0  0  0
 61136  1  0  0  0
 61137  1  0  0  0
 61138  1  0  0  0
 62139  1  0  0  0
 62140  1  0  0  0
 62141  1  0  0  0
 63 65  1  0  0  0
 63142  1  0  0  0
 63143  1  0  0  0
 63144  1  0  0  0
 64145  1  0  0  0
 65146  1  0  0  0
 68 83  1  0  0  0
 71 72  2  0  0  0
 71 73  1  0  0  0
 71147  1  0  0  0
 72 74  1  0  0  0
 72148  1  0  0  0
 73 75  2  0  0  0
 73149  1  0  0  0
 74 84  2  0  0  0
 74 79  1  0  0  0
 75 84  1  0  0  0
 75 85  1  0  0  0
 76 77  1  0  0  0
 76 79  1  0  0  0
 76150  1  0  0  0
 76151  1  0  0  0
 77 87  1  0  0  0
 77152  1  0  0  0
 77153  1  0  0  0
 78 79  1  0  0  0
 78 87  1  0  0  0
 78154  1  0  0  0
 78155  1  0  0  0
 79156  1  0  0  0
 80 81  1  0  0  0
 80 85  1  0  0  0
 80157  1  0  0  0
 80158  1  0  0  0
 81 86  1  0  0  0
 81159  1  0  0  0
 81160  1  0  0  0
 82 83  1  0  0  0
 82161  1  0  0  0
 82162  1  0  0  0
 82 87  1  0  0  0
 83163  1  0  0  0
 83164  1  0  0  0
 85165  1  0  0  0
 86166  1  0  0  0
 87167  1  0  0  0
M  CHG  1  87   1
M  ISO  4   1 100  68 101  83 101  86 100
M  END
> <chiral flag>
0

> <version>
0

> <s_m_source_file>
/data/baiqing/PycharmProjects/Reinvent-master-3.2/result/LINK_invent/BTK/process_docking_weight1_custom_sum_contain_oxygen_bond_distance_aromatic_linkinvent_7_9_3/rearranged_h_0197.sdf

> <i_m_source_file_index>
93

> <r_mmod_Potential_Energy-OPLS-2005>
-423.655334472656

> <r_mmod_Stretch_Energy-OPLS-2005>
30.5439414978027

> <r_mmod_Bend_Energy-OPLS-2005>
114.998016357422

> <r_mmod_Torsional_Energy-OPLS-2005>
293.31396484375

> <r_mmod_Improper_Torsional_Energy-OPLS-2005>
9.01572704315186

> <r_mmod_Van_der_Waal_Energy-OPLS-2005>
158.682205200195

> <r_mmod_Electrostatic_Energy-OPLS-2005>
-596.996459960938

> <r_mmod_Solvation_Energy-OPLS-2005>
-442.283813476562

> <b_mmod_Minimization_Converged-OPLS-2005>
0

> <r_mmod_RMS_Derivative-OPLS-2005>
2.11778521537781

$$$$
94
                    3D
 Structure written by MMmdl.
165174  0  0  1  0            999 V2000
  -30.6727  -14.6680   20.3328 C   0  0  0  0  0  0
  -30.4233  -12.3526   19.4511 C   0  0  0  0  0  0
  -29.5065  -12.3589   18.2073 C   0  0  0  0  0  0
  -28.0189  -12.2697   18.6222 C   0  0  0  0  0  0
  -27.6358  -13.1880   19.8184 C   0  0  2  0  0  0
  -28.7006  -13.1796   20.9383 C   0  0  0  0  0  0
  -25.2609  -13.8120   20.5666 C   0  0  0  0  0  0
  -24.1849  -13.0415   20.9193 C   0  0  0  0  0  0
  -24.6397  -11.6891   20.8772 C   0  0  0  0  0  0
  -23.9082  -10.4291   21.0425 C   0  0  0  0  0  0
  -24.3668   -9.4207   21.9179 C   0  0  0  0  0  0
  -23.6310   -8.2259   22.0778 C   0  0  0  0  0  0
  -22.4281   -8.0321   21.3566 C   0  0  0  0  0  0
  -21.9932   -9.0296   20.4657 C   0  0  0  0  0  0
  -22.7286  -10.2151   20.3035 C   0  0  0  0  0  0
  -21.6857   -6.0755   22.5291 C   0  0  0  0  0  0
  -21.4010   -6.5650   23.8228 C   0  0  0  0  0  0
  -21.3664   -5.6803   24.9185 C   0  0  0  0  0  0
  -21.6048   -4.3063   24.7229 C   0  0  0  0  0  0
  -21.8817   -3.8163   23.4346 C   0  0  0  0  0  0
  -21.9197   -4.6984   22.3409 C   0  0  0  0  0  0
  -22.7893  -13.5279   21.1846 C   0  0  0  0  0  0
  -22.1655   -4.2175   21.0984 F   0  0  0  0  0  0
  -21.5650   -3.4548   25.7735 F   0  0  0  0  0  0
  -30.0002  -13.4696   20.3212 N   0  0  0  0  0  0
  -26.2952  -12.9204   20.3223 N   0  0  0  0  0  0
  -25.9301  -11.6416   20.5784 N   0  0  0  0  0  0
  -22.0573  -12.8231   22.0400 N   0  0  0  0  0  0
  -25.4330  -15.1846   20.4104 N   0  0  0  0  0  0
  -31.8999  -14.6997   20.2324 O   0  0  0  0  0  0
  -21.6645   -6.8914   21.4255 O   0  0  0  0  0  0
  -22.3592  -14.5596   20.6738 O   0  0  0  0  0  0
  -24.6254  -31.8609   23.2054 C   0  0  0  0  0  0
  -25.9117  -32.4778   23.8365 C   0  0  1  0  0  0
  -27.2241  -27.3443   20.0953 C   0  0  0  0  0  0
  -25.5939  -33.8576   24.2278 N   0  0  0  0  0  0
  -23.4164  -30.4852   21.5491 C   0  0  2  0  0  0
  -24.8582  -28.9391   20.1194 C   0  0  0  0  0  0
  -22.7466  -29.4629   22.4974 C   0  0  0  0  0  0
  -18.0277  -28.1404   22.8492 C   0  0  0  0  0  0
  -24.1476  -36.7284   23.2634 C   0  0  0  0  0  0
  -25.9574  -30.7933   21.3763 C   0  0  0  0  0  0
  -26.0287  -29.4234   20.7177 C   0  0  0  0  0  0
  -27.2131  -28.6340   20.7026 C   0  0  0  0  0  0
  -26.0272  -26.9028   19.4842 C   0  0  0  0  0  0
  -24.8568  -27.6807   19.5020 C   0  0  0  0  0  0
  -23.6294  -29.8198   20.1653 C   0  0  0  0  0  0
  -25.4093  -36.3074   24.0336 C   0  0  1  0  0  0
  -20.5879  -28.3693   23.1315 C   0  0  2  0  0  0
  -20.6783  -26.9413   22.5445 C   0  0  0  0  0  0
  -19.5770  -26.6382   21.5247 C   0  0  0  0  0  0
  -18.1924  -26.7955   22.1607 C   0  0  0  0  0  0
  -19.1532  -28.8860   23.2903 C   0  0  0  0  0  0
  -18.9461  -30.1464   23.8921 C   0  0  0  0  0  0
  -17.6468  -30.6609   24.0568 C   0  0  0  0  0  0
  -25.9045  -34.9440   23.5100 C   0  0  0  0  0  0
  -16.5355  -29.9113   23.6348 C   0  0  0  0  0  0
  -16.7266  -28.6531   23.0362 C   0  0  0  0  0  0
  -26.4503  -31.6594   25.0733 C   0  0  0  0  0  0
  -25.3731  -31.3783   26.1472 C   0  0  0  0  0  0
  -27.0318  -30.3006   24.6196 C   0  0  0  0  0  0
  -27.6065  -32.4335   25.7482 C   0  0  0  0  0  0
  -27.5592  -37.1752   24.8438 C   0  0  0  0  0  0
  -21.4177  -29.3054   22.3714 N   0  0  0  0  0  0
  -26.4253  -37.3788   23.9452 N   0  0  0  0  0  0
  -24.6850  -31.0624   22.1002 N   0  0  0  0  0  0
  -23.4187  -28.8177   23.3056 O   0  0  0  0  0  0
  -28.3656  -26.5352   20.1107 O   0  0  0  0  0  0
  -26.5610  -34.8917   22.4663 O   0  0  0  0  0  0
  -23.5427  -32.1415   23.7391 O   0  0  0  0  0  0
  -29.9106  -17.1866   18.0574 C   0  0  0  0  0  0
  -31.0344  -17.6346   18.9593 C   0  0  0  0  0  0
  -29.3033  -15.9850   18.7997 C   0  0  0  0  0  0
  -30.4696  -22.0742   20.9918 C   0  0  0  0  0  0
  -28.6530  -21.9263   19.4997 C   0  0  0  0  0  0
  -30.2343  -20.6088   21.4957 C   0  0  0  0  0  0
  -28.3882  -20.4494   19.9577 C   0  0  0  0  0  0
  -30.4824  -17.2391   20.3330 C   0  0  1  0  0  0
  -29.3888  -18.2886   20.8254 C   0  0  0  0  0  0
  -29.4498  -24.1831   20.2317 C   0  0  0  0  0  0
  -28.1724  -25.0812   20.0315 C   0  0  0  0  0  0
  -29.9468  -15.8377   20.1289 N   0  0  0  0  0  0
  -29.2158  -22.7481   20.5867 N   0  0  0  0  0  0
  -29.6154  -19.7488   20.4516 N   0  3  0  0  0  0
  -31.4750  -12.4127   19.1611 H   0  0  0  0  0  0
  -30.3154  -11.4019   19.9776 H   0  0  0  0  0  0
  -29.7509  -11.5167   17.5588 H   0  0  0  0  0  0
  -29.6997  -13.2206   17.5795 H   0  0  0  0  0  0
  -27.8253  -11.2279   18.8844 H   0  0  0  0  0  0
  -27.3771  -12.4770   17.7644 H   0  0  0  0  0  0
  -27.5856  -14.1800   19.3968 H   0  0  0  0  0  0
  -28.7326  -12.2126   21.4421 H   0  0  0  0  0  0
  -28.4635  -13.9249   21.6997 H   0  0  0  0  0  0
  -25.2869   -9.5656   22.4664 H   0  0  0  0  0  0
  -24.0037   -7.4668   22.7503 H   0  0  0  0  0  0
  -21.0869   -8.8839   19.8959 H   0  0  0  0  0  0
  -22.3838  -10.9672   19.6077 H   0  0  0  0  0  0
  -21.1975   -7.6154   23.9729 H   0  0  0  0  0  0
  -21.1488   -6.0532   25.9091 H   0  0  0  0  0  0
  -22.0583   -2.7621   23.2849 H   0  0  0  0  0  0
  -22.4244  -11.9867   22.4672 H   0  0  0  0  0  0
  -21.1178  -13.1202   22.2650 H   0  0  0  0  0  0
  -24.6663  -15.8356   20.5426 H   0  0  0  0  0  0
  -26.2896  -15.6369   20.1160 H   0  0  0  0  0  0
  -26.7180  -32.5441   23.1105 H   0  0  0  0  0  0
  -25.0071  -33.9719   25.0419 H   0  0  0  0  0  0
  -22.7089  -31.3048   21.4039 H   0  0  0  0  0  0
  -23.3768  -35.9580   23.3211 H   0  0  0  0  0  0
  -24.3589  -36.9011   22.2070 H   0  0  0  0  0  0
  -23.7180  -37.6436   23.6714 H   0  0  0  0  0  0
  -26.0861  -31.5535   20.6059 H   0  0  0  0  0  0
  -26.8403  -30.8400   22.0009 H   0  0  0  0  0  0
  -28.1111  -28.9936   21.1843 H   0  0  0  0  0  0
  -25.9620  -25.9479   18.9858 H   0  0  0  0  0  0
  -23.9565  -27.2994   19.0383 H   0  0  0  0  0  0
  -23.7543  -30.5964   19.4101 H   0  0  0  0  0  0
  -22.7507  -29.2522   19.8557 H   0  0  0  0  0  0
  -25.1259  -36.1898   25.0827 H   0  0  0  0  0  0
  -20.9942  -28.3280   24.1453 H   0  0  0  0  0  0
  -20.5719  -26.2298   23.3652 H   0  0  0  0  0  0
  -21.6646  -26.7476   22.1218 H   0  0  0  0  0  0
  -19.6936  -25.6300   21.1269 H   0  0  0  0  0  0
  -19.6741  -27.3205   20.6794 H   0  0  0  0  0  0
  -17.4223  -26.6763   21.3972 H   0  0  0  0  0  0
  -18.0260  -26.0078   22.8973 H   0  0  0  0  0  0
  -19.7939  -30.7270   24.2293 H   0  0  0  0  0  0
  -17.5024  -31.6293   24.5166 H   0  0  0  0  0  0
  -15.5361  -30.3018   23.7679 H   0  0  0  0  0  0
  -15.8655  -28.0856   22.7084 H   0  0  0  0  0  0
  -24.5918  -30.7103   25.7848 H   0  0  0  0  0  0
  -24.8897  -32.2965   26.4814 H   0  0  0  0  0  0
  -25.8048  -30.9046   27.0296 H   0  0  0  0  0  0
  -26.2881  -29.6778   24.1209 H   0  0  0  0  0  0
  -27.4010  -29.7260   25.4702 H   0  0  0  0  0  0
  -27.8761  -30.4287   23.9412 H   0  0  0  0  0  0
  -27.2674  -33.3638   26.2046 H   0  0  0  0  0  0
  -28.3856  -32.6907   25.0290 H   0  0  0  0  0  0
  -28.0745  -31.8476   26.5405 H   0  0  0  0  0  0
  -28.2514  -38.0141   24.7593 H   0  0  0  0  0  0
  -28.1178  -36.2680   24.6067 H   0  0  0  0  0  0
  -27.2347  -37.1164   25.8845 H   0  0  0  0  0  0
  -20.9357  -29.8740   21.6891 H   0  0  0  0  0  0
  -26.0132  -38.2839   24.1570 H   0  0  0  0  0  0
  -30.2690  -16.9357   17.0586 H   0  0  0  0  0  0
  -29.1710  -17.9816   17.9493 H   0  0  0  0  0  0
  -31.2975  -18.6845   18.8358 H   0  0  0  0  0  0
  -31.9391  -17.0660   18.7397 H   0  0  0  0  0  0
  -29.4314  -15.1241   18.1613 H   0  0  0  0  0  0
  -28.2302  -16.1297   18.9178 H   0  0  0  0  0  0
  -31.1913  -22.0800   20.1712 H   0  0  0  0  0  0
  -30.9392  -22.6421   21.7974 H   0  0  0  0  0  0
  -27.7086  -22.3645   19.1727 H   0  0  0  0  0  0
  -29.3068  -21.9402   18.6253 H   0  0  0  0  0  0
  -29.5958  -20.6232   22.3812 H   0  0  0  0  0  0
  -31.1841  -20.1717   21.8055 H   0  0  0  0  0  0
  -27.9666  -19.8928   19.1191 H   0  0  0  0  0  0
  -27.6291  -20.4401   20.7424 H   0  0  0  0  0  0
  -31.3027  -17.2253   21.0531 H   0  0  0  0  0  0
  -29.2621  -18.1966   21.9043 H   0  0  0  0  0  0
  -28.4195  -17.9942   20.4231 H   0  0  0  0  0  0
  -30.0227  -24.6319   21.0448 H   0  0  0  0  0  0
  -30.0849  -24.2506   19.3440 H   0  0  0  0  0  0
  -27.4352  -24.7960   20.7844 H   0  0  0  0  0  0
  -27.7534  -24.8180   19.0604 H   0  0  0  0  0  0
  -30.2530  -19.7358   19.6684 H   0  0  0  0  0  0
  1 25  1  0  0  0
  1 30  2  0  0  0
  1 82  1  0  0  0
  2  3  1  0  0  0
  2 25  1  0  0  0
  2 85  1  0  0  0
  2 86  1  0  0  0
  3  4  1  0  0  0
  3 87  1  0  0  0
  3 88  1  0  0  0
  4  5  1  0  0  0
  4 89  1  0  0  0
  4 90  1  0  0  0
  5  6  1  0  0  0
  5 26  1  0  0  0
  5 91  1  0  0  0
  6 25  1  0  0  0
  6 92  1  0  0  0
  6 93  1  0  0  0
  7  8  2  0  0  0
  7 26  1  0  0  0
  7 29  1  0  0  0
  8  9  1  0  0  0
  8 22  1  0  0  0
  9 10  1  0  0  0
  9 27  2  0  0  0
 10 11  2  0  0  0
 10 15  1  0  0  0
 11 12  1  0  0  0
 11 94  1  0  0  0
 12 13  2  0  0  0
 12 95  1  0  0  0
 13 14  1  0  0  0
 13 31  1  0  0  0
 14 15  2  0  0  0
 14 96  1  0  0  0
 15 97  1  0  0  0
 16 17  2  0  0  0
 16 21  1  0  0  0
 16 31  1  0  0  0
 17 18  1  0  0  0
 17 98  1  0  0  0
 18 19  2  0  0  0
 18 99  1  0  0  0
 19 20  1  0  0  0
 19 24  1  0  0  0
 20 21  2  0  0  0
 20100  1  0  0  0
 21 23  1  0  0  0
 22 28  1  0  0  0
 22 32  2  0  0  0
 26 27  1  0  0  0
 28101  1  0  0  0
 28102  1  0  0  0
 29103  1  0  0  0
 29104  1  0  0  0
 33 34  1  0  0  0
 33 66  1  0  0  0
 33 70  2  0  0  0
 34 36  1  0  0  0
 34 59  1  0  0  0
 34105  1  0  0  0
 35 44  2  0  0  0
 35 45  1  0  0  0
 35 68  1  0  0  0
 36 56  1  0  0  0
 36106  1  0  0  0
 37 39  1  0  0  0
 37 47  1  0  0  0
 37 66  1  0  0  0
 37107  1  0  0  0
 38 43  2  0  0  0
 38 46  1  0  0  0
 38 47  1  0  0  0
 39 64  1  0  0  0
 39 67  2  0  0  0
 40 52  1  0  0  0
 40 53  2  0  0  0
 40 58  1  0  0  0
 41108  1  0  0  0
 41109  1  0  0  0
 41110  1  0  0  0
 41 48  1  0  0  0
 42 43  1  0  0  0
 42 66  1  0  0  0
 42111  1  0  0  0
 42112  1  0  0  0
 43 44  1  0  0  0
 44113  1  0  0  0
 45 46  2  0  0  0
 45114  1  0  0  0
 46115  1  0  0  0
 47116  1  0  0  0
 47117  1  0  0  0
 48 56  1  0  0  0
 48 65  1  0  0  0
 48118  1  0  0  0
 49 50  1  0  0  0
 49 53  1  0  0  0
 49 64  1  0  0  0
 49119  1  0  0  0
 50 51  1  0  0  0
 50120  1  0  0  0
 50121  1  0  0  0
 51 52  1  0  0  0
 51122  1  0  0  0
 51123  1  0  0  0
 52124  1  0  0  0
 52125  1  0  0  0
 53 54  1  0  0  0
 54 55  2  0  0  0
 54126  1  0  0  0
 55 57  1  0  0  0
 55127  1  0  0  0
 56 69  2  0  0  0
 57 58  2  0  0  0
 57128  1  0  0  0
 58129  1  0  0  0
 59 60  1  0  0  0
 59 61  1  0  0  0
 59 62  1  0  0  0
 60130  1  0  0  0
 60131  1  0  0  0
 60132  1  0  0  0
 61133  1  0  0  0
 61134  1  0  0  0
 61135  1  0  0  0
 62136  1  0  0  0
 62137  1  0  0  0
 62138  1  0  0  0
 63 65  1  0  0  0
 63139  1  0  0  0
 63140  1  0  0  0
 63141  1  0  0  0
 64142  1  0  0  0
 65143  1  0  0  0
 68 81  1  0  0  0
 71 72  1  0  0  0
 71 73  1  0  0  0
 71144  1  0  0  0
 71145  1  0  0  0
 72 78  1  0  0  0
 72146  1  0  0  0
 72147  1  0  0  0
 73 82  1  0  0  0
 73148  1  0  0  0
 73149  1  0  0  0
 74 76  1  0  0  0
 74 83  1  0  0  0
 74150  1  0  0  0
 74151  1  0  0  0
 75 77  1  0  0  0
 75 83  1  0  0  0
 75152  1  0  0  0
 75153  1  0  0  0
 76 84  1  0  0  0
 76154  1  0  0  0
 76155  1  0  0  0
 77 84  1  0  0  0
 77156  1  0  0  0
 77157  1  0  0  0
 78 79  1  0  0  0
 78 82  1  0  0  0
 78158  1  0  0  0
 79159  1  0  0  0
 79160  1  0  0  0
 79 84  1  0  0  0
 80 81  1  0  0  0
 80 83  1  0  0  0
 80161  1  0  0  0
 80162  1  0  0  0
 81163  1  0  0  0
 81164  1  0  0  0
 84165  1  0  0  0
M  CHG  1  84   1
M  ISO  4   1 100  68 101  81 101  82 100
M  END
> <chiral flag>
0

> <version>
0

> <s_m_source_file>
/data/baiqing/PycharmProjects/Reinvent-master-3.2/result/LINK_invent/BTK/process_docking_weight1_custom_sum_contain_oxygen_bond_distance_aromatic_linkinvent_7_9_3/rearranged_h_0197.sdf

> <i_m_source_file_index>
94

> <r_mmod_Potential_Energy-OPLS-2005>
308.520294189453

> <r_mmod_Stretch_Energy-OPLS-2005>
78.8106842041016

> <r_mmod_Bend_Energy-OPLS-2005>
167.015213012695

> <r_mmod_Torsional_Energy-OPLS-2005>
380.405517578125

> <r_mmod_Improper_Torsional_Energy-OPLS-2005>
13.049464225769

> <r_mmod_Van_der_Waal_Energy-OPLS-2005>
143.291610717773

> <r_mmod_Electrostatic_Energy-OPLS-2005>
-100.793029785156

> <r_mmod_Solvation_Energy-OPLS-2005>
-439.564666748047

> <b_mmod_Minimization_Converged-OPLS-2005>
0

> <r_mmod_RMS_Derivative-OPLS-2005>
4.19224786758423

$$$$
95
                    3D
 Structure written by MMmdl.
178189  0  0  1  0            999 V2000
  -30.6991  -14.4236   20.5695 C   0  0  0  0  0  0
  -30.4262  -12.2735   19.4059 C   0  0  0  0  0  0
  -29.4925  -12.4929   18.1972 C   0  0  0  0  0  0
  -28.0103  -12.3631   18.6088 C   0  0  0  0  0  0
  -27.6630  -13.1874   19.8779 C   0  0  2  0  0  0
  -28.7079  -12.9405   20.9897 C   0  0  0  0  0  0
  -25.2615  -13.8099   20.5662 C   0  0  0  0  0  0
  -24.1851  -13.0402   20.9177 C   0  0  0  0  0  0
  -24.6384  -11.6872   20.8755 C   0  0  0  0  0  0
  -23.9032  -10.4276   21.0417 C   0  0  0  0  0  0
  -24.3582   -9.4186   21.9187 C   0  0  0  0  0  0
  -23.6261   -8.2222   22.0740 C   0  0  0  0  0  0
  -22.4244   -8.0274   21.3534 C   0  0  0  0  0  0
  -21.9884   -9.0247   20.4632 C   0  0  0  0  0  0
  -22.7212  -10.2130   20.3051 C   0  0  0  0  0  0
  -21.6830   -6.0734   22.5283 C   0  0  0  0  0  0
  -21.4002   -6.5636   23.8220 C   0  0  0  0  0  0
  -21.3659   -5.6781   24.9180 C   0  0  0  0  0  0
  -21.6046   -4.3047   24.7215 C   0  0  0  0  0  0
  -21.8817   -3.8145   23.4332 C   0  0  0  0  0  0
  -21.9180   -4.6964   22.3391 C   0  0  0  0  0  0
  -22.7879  -13.5227   21.1819 C   0  0  0  0  0  0
  -22.1629   -4.2158   21.0963 F   0  0  0  0  0  0
  -21.5642   -3.4528   25.7724 F   0  0  0  0  0  0
  -30.0399  -13.2427   20.4388 N   0  0  0  0  0  0
  -26.3037  -12.9232   20.3398 N   0  0  0  0  0  0
  -25.9307  -11.6418   20.5806 N   0  0  0  0  0  0
  -22.0516  -12.8249   22.0397 N   0  0  0  0  0  0
  -25.4332  -15.1805   20.3974 N   0  0  0  0  0  0
  -31.8285  -14.6294   20.1133 O   0  0  0  0  0  0
  -21.6607   -6.8873   21.4239 O   0  0  0  0  0  0
  -22.3574  -14.5516   20.6648 O   0  0  0  0  0  0
  -24.6103  -31.8718   23.2129 C   0  0  0  0  0  0
  -25.9026  -32.4839   23.8405 C   0  0  1  0  0  0
  -27.2372  -27.4784   20.0737 C   0  0  0  0  0  0
  -25.5907  -33.8632   24.2345 N   0  0  0  0  0  0
  -23.3966  -30.4938   21.5531 C   0  0  2  0  0  0
  -24.8419  -28.9601   20.1223 C   0  0  0  0  0  0
  -22.7384  -29.4679   22.5025 C   0  0  0  0  0  0
  -18.0275  -28.1380   22.8500 C   0  0  0  0  0  0
  -24.1496  -36.7308   23.2640 C   0  0  0  0  0  0
  -25.9220  -30.8466   21.3636 C   0  0  0  0  0  0
  -26.0019  -29.4849   20.7083 C   0  0  0  0  0  0
  -27.2056  -28.7492   20.6865 C   0  0  0  0  0  0
  -26.0569  -26.9429   19.5202 C   0  0  0  0  0  0
  -24.8609  -27.6832   19.5326 C   0  0  0  0  0  0
  -23.6028  -29.8230   20.1693 C   0  0  0  0  0  0
  -25.4120  -36.3120   24.0343 C   0  0  1  0  0  0
  -20.5857  -28.3656   23.1325 C   0  0  2  0  0  0
  -20.6771  -26.9393   22.5419 C   0  0  0  0  0  0
  -19.5754  -26.6387   21.5216 C   0  0  0  0  0  0
  -18.1928  -26.7935   22.1619 C   0  0  0  0  0  0
  -19.1522  -28.8837   23.2910 C   0  0  0  0  0  0
  -18.9454  -30.1450   23.8908 C   0  0  0  0  0  0
  -17.6455  -30.6586   24.0568 C   0  0  0  0  0  0
  -25.9040  -34.9483   23.5141 C   0  0  0  0  0  0
  -16.5344  -29.9088   23.6327 C   0  0  0  0  0  0
  -16.7263  -28.6505   23.0345 C   0  0  0  0  0  0
  -26.4465  -31.6606   25.0718 C   0  0  0  0  0  0
  -25.3747  -31.3705   26.1481 C   0  0  0  0  0  0
  -27.0292  -30.3052   24.6083 C   0  0  0  0  0  0
  -27.6045  -32.4324   25.7475 C   0  0  0  0  0  0
  -27.5592  -37.1812   24.8467 C   0  0  0  0  0  0
  -21.4116  -29.3031   22.3743 N   0  0  0  0  0  0
  -26.4317  -37.3793   23.9402 N   0  0  0  0  0  0
  -24.6605  -31.0839   22.1020 N   0  0  0  0  0  0
  -23.4169  -28.8234   23.3062 O   0  0  0  0  0  0
  -28.3934  -26.7442   20.0136 O   0  0  0  0  0  0
  -26.5579  -34.8928   22.4689 O   0  0  0  0  0  0
  -23.5306  -32.1450   23.7555 O   0  0  0  0  0  0
  -27.7440  -20.6750   17.4988 C   0  0  0  0  0  0
  -28.2693  -19.3103   18.9853 C   0  0  0  0  0  0
  -29.4234  -17.4594   22.1511 C   0  0  0  0  0  0
  -29.8385  -23.0650   16.9142 C   0  0  0  0  0  0
  -27.8995  -22.1879   15.3744 C   0  0  0  0  0  0
  -29.9045  -16.0094   22.2907 C   0  0  0  0  0  0
  -29.5389  -16.4888   19.9785 C   0  0  0  0  0  0
  -30.0862  -24.3859   17.6593 C   0  0  0  0  0  0
  -27.9603  -24.5289   16.5961 C   0  0  0  0  0  0
  -27.3908  -21.9449   16.7743 C   0  0  2  0  0  0
  -28.7265  -17.4873   20.7953 C   0  0  2  0  0  0
  -28.3806  -23.0785   16.4944 C   0  0  2  0  0  0
  -26.9152  -21.7752   20.6952 C   0  0  0  0  0  0
  -28.1527  -21.7094   19.7907 C   0  0  0  0  0  0
  -28.8907  -26.5957   17.6348 C   0  0  0  0  0  0
  -29.3111  -27.1648   19.0034 C   0  0  0  0  0  0
  -27.7077  -19.4682   16.9150 N   0  0  0  0  0  0
  -28.0601  -18.5685   17.8963 N   0  0  0  0  0  0
  -28.0609  -20.6302   18.8134 N   0  0  0  0  0  0
  -29.9095  -15.4502   20.9377 N   0  0  0  0  0  0
  -28.6581  -18.8190   20.2217 N   0  0  0  0  0  0
  -28.7953  -25.1137   17.6640 N   0  3  2  0  0  0
  -31.4699  -12.3759   19.1027 H   0  0  0  0  0  0
  -30.3276  -11.2563   19.7899 H   0  0  0  0  0  0
  -29.7235  -11.7776   17.4064 H   0  0  0  0  0  0
  -29.6693  -13.4813   17.7724 H   0  0  0  0  0  0
  -27.8052  -11.3062   18.7855 H   0  0  0  0  0  0
  -27.3628  -12.6575   17.7815 H   0  0  0  0  0  0
  -27.7091  -14.2362   19.5947 H   0  0  0  0  0  0
  -28.6799  -11.8990   21.3140 H   0  0  0  0  0  0
  -28.4793  -13.5278   21.8784 H   0  0  0  0  0  0
  -25.2732   -9.5647   22.4763 H   0  0  0  0  0  0
  -23.9973   -7.4591   22.7432 H   0  0  0  0  0  0
  -21.0821   -8.8745   19.8929 H   0  0  0  0  0  0
  -22.3662  -10.9656   19.6145 H   0  0  0  0  0  0
  -21.1990   -7.6143   23.9733 H   0  0  0  0  0  0
  -21.1482   -6.0503   25.9084 H   0  0  0  0  0  0
  -22.0601   -2.7612   23.2821 H   0  0  0  0  0  0
  -22.4100  -11.9902   22.4801 H   0  0  0  0  0  0
  -21.1139  -13.1296   22.2572 H   0  0  0  0  0  0
  -24.6619  -15.8310   20.4895 H   0  0  0  0  0  0
  -26.2755  -15.6105   20.0379 H   0  0  0  0  0  0
  -26.7095  -32.5553   23.1173 H   0  0  0  0  0  0
  -25.0109  -33.9805   25.0528 H   0  0  0  0  0  0
  -22.6857  -31.3104   21.4126 H   0  0  0  0  0  0
  -23.3766  -35.9629   23.3318 H   0  0  0  0  0  0
  -24.3600  -36.8897   22.2048 H   0  0  0  0  0  0
  -23.7236  -37.6518   23.6633 H   0  0  0  0  0  0
  -26.0358  -31.6182   20.6018 H   0  0  0  0  0  0
  -26.8085  -30.8938   21.9837 H   0  0  0  0  0  0
  -28.1026  -29.1553   21.1335 H   0  0  0  0  0  0
  -26.0631  -25.9598   19.0722 H   0  0  0  0  0  0
  -23.9642  -27.2657   19.0950 H   0  0  0  0  0  0
  -23.7082  -30.5949   19.4062 H   0  0  0  0  0  0
  -22.7289  -29.2384   19.8767 H   0  0  0  0  0  0
  -25.1300  -36.1992   25.0838 H   0  0  0  0  0  0
  -20.9949  -28.3221   24.1452 H   0  0  0  0  0  0
  -20.5680  -26.2262   23.3607 H   0  0  0  0  0  0
  -21.6639  -26.7459   22.1200 H   0  0  0  0  0  0
  -19.6903  -25.6301   21.1246 H   0  0  0  0  0  0
  -19.6709  -27.3202   20.6754 H   0  0  0  0  0  0
  -17.4208  -26.6709   21.4012 H   0  0  0  0  0  0
  -18.0310  -26.0071   22.8998 H   0  0  0  0  0  0
  -19.7928  -30.7270   24.2275 H   0  0  0  0  0  0
  -17.5007  -31.6271   24.5171 H   0  0  0  0  0  0
  -15.5343  -30.2982   23.7662 H   0  0  0  0  0  0
  -15.8668  -28.0831   22.7038 H   0  0  0  0  0  0
  -24.5907  -30.7073   25.7819 H   0  0  0  0  0  0
  -24.8967  -32.2861   26.4962 H   0  0  0  0  0  0
  -25.8118  -30.8841   27.0212 H   0  0  0  0  0  0
  -26.2817  -29.6817   24.1162 H   0  0  0  0  0  0
  -27.4089  -29.7292   25.4533 H   0  0  0  0  0  0
  -27.8646  -30.4379   23.9208 H   0  0  0  0  0  0
  -27.2657  -33.3604   26.2098 H   0  0  0  0  0  0
  -28.3827  -32.6921   25.0286 H   0  0  0  0  0  0
  -28.0745  -31.8423   26.5355 H   0  0  0  0  0  0
  -28.2613  -38.0106   24.7514 H   0  0  0  0  0  0
  -28.1089  -36.2636   24.6304 H   0  0  0  0  0  0
  -27.2306  -37.1470   25.8871 H   0  0  0  0  0  0
  -20.9282  -29.8711   21.6930 H   0  0  0  0  0  0
  -26.0211  -38.2876   24.1403 H   0  0  0  0  0  0
  -30.2896  -18.1237   22.1465 H   0  0  0  0  0  0
  -28.7704  -17.7688   22.9688 H   0  0  0  0  0  0
  -30.0694  -22.1986   17.5335 H   0  0  0  0  0  0
  -30.4694  -23.0120   16.0262 H   0  0  0  0  0  0
  -27.2040  -22.6108   14.6523 H   0  0  0  0  0  0
  -28.6117  -21.4738   14.9652 H   0  0  0  0  0  0
  -29.2227  -15.4383   22.9209 H   0  0  0  0  0  0
  -30.8943  -15.9671   22.7502 H   0  0  0  0  0  0
  -30.4426  -16.9475   19.5712 H   0  0  0  0  0  0
  -28.9685  -16.0871   19.1401 H   0  0  0  0  0  0
  -30.8565  -24.9579   17.1409 H   0  0  0  0  0  0
  -30.4348  -24.2166   18.6797 H   0  0  0  0  0  0
  -26.8931  -24.6305   16.8064 H   0  0  0  0  0  0
  -28.1668  -25.0217   15.6437 H   0  0  0  0  0  0
  -26.3546  -22.2103   16.9734 H   0  0  0  0  0  0
  -27.7111  -17.1057   20.9107 H   0  0  0  0  0  0
  -27.0045  -22.5928   21.4120 H   0  0  0  0  0  0
  -26.7810  -20.8537   21.2621 H   0  0  0  0  0  0
  -26.0074  -21.9401   20.1141 H   0  0  0  0  0  0
  -29.0586  -21.5716   20.3832 H   0  0  0  0  0  0
  -28.2718  -22.6584   19.2752 H   0  0  0  0  0  0
  -29.5856  -26.9151   16.8579 H   0  0  0  0  0  0
  -27.9225  -27.0160   17.3591 H   0  0  0  0  0  0
  -29.3785  -28.2526   18.9565 H   0  0  0  0  0  0
  -30.3062  -26.8098   19.2730 H   0  0  0  0  0  0
  -28.7631  -19.5526   20.9117 H   0  0  0  0  0  0
  -28.3350  -24.8778   18.5322 H   0  0  0  0  0  0
  1 25  1  0  0  0
  1 30  2  0  0  0
  1 90  1  0  0  0
  2  3  1  0  0  0
  2 25  1  0  0  0
  2 93  1  0  0  0
  2 94  1  0  0  0
  3  4  1  0  0  0
  3 95  1  0  0  0
  3 96  1  0  0  0
  4  5  1  0  0  0
  4 97  1  0  0  0
  4 98  1  0  0  0
  5  6  1  0  0  0
  5 26  1  0  0  0
  5 99  1  0  0  0
  6 25  1  0  0  0
  6100  1  0  0  0
  6101  1  0  0  0
  7  8  2  0  0  0
  7 26  1  0  0  0
  7 29  1  0  0  0
  8  9  1  0  0  0
  8 22  1  0  0  0
  9 10  1  0  0  0
  9 27  2  0  0  0
 10 11  2  0  0  0
 10 15  1  0  0  0
 11 12  1  0  0  0
 11102  1  0  0  0
 12 13  2  0  0  0
 12103  1  0  0  0
 13 14  1  0  0  0
 13 31  1  0  0  0
 14 15  2  0  0  0
 14104  1  0  0  0
 15105  1  0  0  0
 16 17  2  0  0  0
 16 21  1  0  0  0
 16 31  1  0  0  0
 17 18  1  0  0  0
 17106  1  0  0  0
 18 19  2  0  0  0
 18107  1  0  0  0
 19 20  1  0  0  0
 19 24  1  0  0  0
 20 21  2  0  0  0
 20108  1  0  0  0
 21 23  1  0  0  0
 22 28  1  0  0  0
 22 32  2  0  0  0
 26 27  1  0  0  0
 28109  1  0  0  0
 28110  1  0  0  0
 29111  1  0  0  0
 29112  1  0  0  0
 33 34  1  0  0  0
 33 66  1  0  0  0
 33 70  2  0  0  0
 34 36  1  0  0  0
 34 59  1  0  0  0
 34113  1  0  0  0
 35 44  2  0  0  0
 35 45  1  0  0  0
 35 68  1  0  0  0
 36 56  1  0  0  0
 36114  1  0  0  0
 37 39  1  0  0  0
 37 47  1  0  0  0
 37 66  1  0  0  0
 37115  1  0  0  0
 38 43  2  0  0  0
 38 46  1  0  0  0
 38 47  1  0  0  0
 39 64  1  0  0  0
 39 67  2  0  0  0
 40 52  1  0  0  0
 40 53  2  0  0  0
 40 58  1  0  0  0
 41116  1  0  0  0
 41117  1  0  0  0
 41118  1  0  0  0
 41 48  1  0  0  0
 42 43  1  0  0  0
 42 66  1  0  0  0
 42119  1  0  0  0
 42120  1  0  0  0
 43 44  1  0  0  0
 44121  1  0  0  0
 45 46  2  0  0  0
 45122  1  0  0  0
 46123  1  0  0  0
 47124  1  0  0  0
 47125  1  0  0  0
 48 56  1  0  0  0
 48 65  1  0  0  0
 48126  1  0  0  0
 49 50  1  0  0  0
 49 53  1  0  0  0
 49 64  1  0  0  0
 49127  1  0  0  0
 50 51  1  0  0  0
 50128  1  0  0  0
 50129  1  0  0  0
 51 52  1  0  0  0
 51130  1  0  0  0
 51131  1  0  0  0
 52132  1  0  0  0
 52133  1  0  0  0
 53 54  1  0  0  0
 54 55  2  0  0  0
 54134  1  0  0  0
 55 57  1  0  0  0
 55135  1  0  0  0
 56 69  2  0  0  0
 57 58  2  0  0  0
 57136  1  0  0  0
 58137  1  0  0  0
 59 60  1  0  0  0
 59 61  1  0  0  0
 59 62  1  0  0  0
 60138  1  0  0  0
 60139  1  0  0  0
 60140  1  0  0  0
 61141  1  0  0  0
 61142  1  0  0  0
 61143  1  0  0  0
 62144  1  0  0  0
 62145  1  0  0  0
 62146  1  0  0  0
 63 65  1  0  0  0
 63147  1  0  0  0
 63148  1  0  0  0
 63149  1  0  0  0
 64150  1  0  0  0
 65151  1  0  0  0
 68 86  1  0  0  0
 71 87  2  0  0  0
 71 89  1  0  0  0
 71 80  1  0  0  0
 72 88  2  0  0  0
 72 89  1  0  0  0
 72 91  1  0  0  0
 73 76  1  0  0  0
 73 81  1  0  0  0
 73152  1  0  0  0
 73153  1  0  0  0
 74 78  1  0  0  0
 74154  1  0  0  0
 74155  1  0  0  0
 74 82  1  0  0  0
 75 80  1  0  0  0
 75 82  1  0  0  0
 75156  1  0  0  0
 75157  1  0  0  0
 76 90  1  0  0  0
 76158  1  0  0  0
 76159  1  0  0  0
 77 81  1  0  0  0
 77 90  1  0  0  0
 77160  1  0  0  0
 77161  1  0  0  0
 78 92  1  0  0  0
 78162  1  0  0  0
 78163  1  0  0  0
 79 82  1  0  0  0
 79 92  1  0  0  0
 79164  1  0  0  0
 79165  1  0  0  0
 80 82  1  0  0  0
 80166  1  0  0  0
 81 91  1  0  0  0
 81167  1  0  0  0
 83 84  1  0  0  0
 83168  1  0  0  0
 83169  1  0  0  0
 83170  1  0  0  0
 84 89  1  0  0  0
 84171  1  0  0  0
 84172  1  0  0  0
 85 86  1  0  0  0
 85173  1  0  0  0
 85174  1  0  0  0
 85 92  1  0  0  0
 86175  1  0  0  0
 86176  1  0  0  0
 87 88  1  0  0  0
 91177  1  0  0  0
 92178  1  0  0  0
M  CHG  1  92   1
M  ISO  4   1 100  68 101  86 101  90 100
M  END
> <chiral flag>
0

> <version>
0

> <s_m_source_file>
/data/baiqing/PycharmProjects/Reinvent-master-3.2/result/LINK_invent/BTK/process_docking_weight1_custom_sum_contain_oxygen_bond_distance_aromatic_linkinvent_7_9_3/rearranged_h_0197.sdf

> <i_m_source_file_index>
95

> <r_mmod_Potential_Energy-OPLS-2005>
57.0701637268066

> <r_mmod_Stretch_Energy-OPLS-2005>
31.6764354705811

> <r_mmod_Bend_Energy-OPLS-2005>
137.978912353516

> <r_mmod_Torsional_Energy-OPLS-2005>
478.501556396484

> <r_mmod_Improper_Torsional_Energy-OPLS-2005>
10.990159034729

> <r_mmod_Van_der_Waal_Energy-OPLS-2005>
98.8739318847656

> <r_mmod_Electrostatic_Energy-OPLS-2005>
-242.197250366211

> <r_mmod_Solvation_Energy-OPLS-2005>
-467.963500976562

> <b_mmod_Minimization_Converged-OPLS-2005>
0

> <r_mmod_RMS_Derivative-OPLS-2005>
2.23496174812317

$$$$
96
                    3D
 Structure written by MMmdl.
159168  0  0  1  0            999 V2000
  -30.6274  -14.8053   20.4489 C   0  0  0  0  0  0
  -30.4209  -12.4958   19.4858 C   0  0  0  0  0  0
  -29.5070  -12.5117   18.2422 C   0  0  0  0  0  0
  -28.0359  -12.3304   18.6580 C   0  0  0  0  0  0
  -27.6334  -13.2461   19.8458 C   0  0  2  0  0  0
  -28.6780  -13.2296   20.9819 C   0  0  0  0  0  0
  -25.2477  -13.8235   20.5733 C   0  0  0  0  0  0
  -24.1781  -13.0456   20.9221 C   0  0  0  0  0  0
  -24.6391  -11.6938   20.8753 C   0  0  0  0  0  0
  -23.9078  -10.4303   21.0405 C   0  0  0  0  0  0
  -24.3628   -9.4216   21.9185 C   0  0  0  0  0  0
  -23.6300   -8.2252   22.0756 C   0  0  0  0  0  0
  -22.4284   -8.0284   21.3544 C   0  0  0  0  0  0
  -21.9924   -9.0257   20.4644 C   0  0  0  0  0  0
  -22.7252  -10.2137   20.3054 C   0  0  0  0  0  0
  -21.6856   -6.0737   22.5277 C   0  0  0  0  0  0
  -21.4015   -6.5641   23.8210 C   0  0  0  0  0  0
  -21.3662   -5.6793   24.9172 C   0  0  0  0  0  0
  -21.6046   -4.3055   24.7223 C   0  0  0  0  0  0
  -21.8819   -3.8147   23.4344 C   0  0  0  0  0  0
  -21.9194   -4.6965   22.3401 C   0  0  0  0  0  0
  -22.7798  -13.5218   21.1870 C   0  0  0  0  0  0
  -22.1663   -4.2151   21.0978 F   0  0  0  0  0  0
  -21.5632   -3.4540   25.7737 F   0  0  0  0  0  0
  -29.9664  -13.5910   20.3826 N   0  0  0  0  0  0
  -26.2904  -12.9466   20.3294 N   0  0  0  0  0  0
  -25.9326  -11.6592   20.5762 N   0  0  0  0  0  0
  -22.0448  -12.8201   22.0426 N   0  0  0  0  0  0
  -25.4171  -15.1959   20.4186 N   0  0  0  0  0  0
  -31.8235  -14.8214   20.1381 O   0  0  0  0  0  0
  -21.6645   -6.8882   21.4240 O   0  0  0  0  0  0
  -22.3474  -14.5516   20.6707 O   0  0  0  0  0  0
  -24.6358  -31.8510   23.1956 C   0  0  0  0  0  0
  -25.9164  -32.4730   23.8315 C   0  0  1  0  0  0
  -27.2118  -27.2085   20.1341 C   0  0  0  0  0  0
  -25.5937  -33.8536   24.2230 N   0  0  0  0  0  0
  -23.4353  -30.4738   21.5399 C   0  0  2  0  0  0
  -24.8823  -28.9167   20.1067 C   0  0  0  0  0  0
  -22.7527  -29.4581   22.4889 C   0  0  0  0  0  0
  -18.0295  -28.1392   22.8478 C   0  0  0  0  0  0
  -24.1492  -36.7273   23.2641 C   0  0  0  0  0  0
  -25.9859  -30.7461   21.3859 C   0  0  0  0  0  0
  -26.0553  -29.3652   20.7259 C   0  0  0  0  0  0
  -27.2199  -28.5231   20.7310 C   0  0  0  0  0  0
  -26.0208  -26.8559   19.4587 C   0  0  0  0  0  0
  -24.8737  -27.6730   19.4602 C   0  0  0  0  0  0
  -23.6562  -29.8097   20.1557 C   0  0  0  0  0  0
  -25.4122  -36.3057   24.0321 C   0  0  1  0  0  0
  -20.5903  -28.3709   23.1254 C   0  0  2  0  0  0
  -20.6780  -26.9419   22.5406 C   0  0  0  0  0  0
  -19.5755  -26.6382   21.5212 C   0  0  0  0  0  0
  -18.1938  -26.7932   22.1624 C   0  0  0  0  0  0
  -19.1550  -28.8867   23.2860 C   0  0  0  0  0  0
  -18.9469  -30.1464   23.8884 C   0  0  0  0  0  0
  -17.6467  -30.6590   24.0560 C   0  0  0  0  0  0
  -25.9065  -34.9428   23.5083 C   0  0  0  0  0  0
  -16.5358  -29.9085   23.6332 C   0  0  0  0  0  0
  -16.7281  -28.6503   23.0353 C   0  0  0  0  0  0
  -26.4512  -31.6577   25.0728 C   0  0  0  0  0  0
  -25.3713  -31.3745   26.1433 C   0  0  0  0  0  0
  -27.0371  -30.2984   24.6263 C   0  0  0  0  0  0
  -27.6053  -32.4332   25.7505 C   0  0  0  0  0  0
  -27.5578  -37.1796   24.8466 C   0  0  0  0  0  0
  -21.4228  -29.3046   22.3635 N   0  0  0  0  0  0
  -26.4292  -37.3759   23.9406 N   0  0  0  0  0  0
  -24.7051  -31.0428   22.0961 N   0  0  0  0  0  0
  -23.4205  -28.8119   23.3004 O   0  0  0  0  0  0
  -28.2826  -26.2693   20.2297 O   0  0  0  0  0  0
  -26.5646  -34.8909   22.4658 O   0  0  0  0  0  0
  -23.5494  -32.1355   23.7217 O   0  0  0  0  0  0
  -27.5817  -19.3814   21.0288 C   0  0  0  0  0  0
  -27.8076  -20.6355   21.9118 C   0  0  0  0  0  0
  -29.6388  -18.2251   21.8683 C   0  0  0  0  0  0
  -29.4628  -18.5090   19.4371 C   0  0  0  0  0  0
  -29.3323  -16.6685   21.6514 C   0  0  0  0  0  0
  -30.3059  -17.1344   19.4918 C   0  0  0  0  0  0
  -29.1003  -20.8971   21.0970 C   0  0  1  0  0  0
  -29.1087  -19.2468   20.7842 C   0  0  0  0  0  0
  -28.8890  -23.5513   20.6533 C   0  0  0  0  0  0
  -28.0872  -24.7827   19.9152 C   0  0  0  0  0  0
  -29.9170  -16.0280   20.4401 N   0  0  0  0  0  0
  -28.8189  -22.0808   20.1148 N   0  3  0  0  0  0
  -26.5831  -18.7933   20.6114 O   0  0  0  0  0  0
  -31.4629  -12.6052   19.1810 H   0  0  0  0  0  0
  -30.3627  -11.5333   19.9967 H   0  0  0  0  0  0
  -29.7998  -11.7248   17.5456 H   0  0  0  0  0  0
  -29.6255  -13.4559   17.7078 H   0  0  0  0  0  0
  -27.9024  -11.2846   18.9368 H   0  0  0  0  0  0
  -27.3762  -12.5035   17.8069 H   0  0  0  0  0  0
  -27.6131  -14.2602   19.4451 H   0  0  0  0  0  0
  -28.7302  -12.2482   21.4554 H   0  0  0  0  0  0
  -28.4041  -13.9381   21.7646 H   0  0  0  0  0  0
  -25.2770   -9.5695   22.4763 H   0  0  0  0  0  0
  -24.0006   -7.4649   22.7482 H   0  0  0  0  0  0
  -21.0854   -8.8778   19.8950 H   0  0  0  0  0  0
  -22.3705  -10.9679   19.6167 H   0  0  0  0  0  0
  -21.2007   -7.6150   23.9715 H   0  0  0  0  0  0
  -21.1487   -6.0521   25.9076 H   0  0  0  0  0  0
  -22.0598   -2.7611   23.2842 H   0  0  0  0  0  0
  -22.4079  -11.9880   22.4837 H   0  0  0  0  0  0
  -21.1048  -13.1193   22.2598 H   0  0  0  0  0  0
  -24.6566  -15.8546   20.5446 H   0  0  0  0  0  0
  -26.2768  -15.6424   20.1253 H   0  0  0  0  0  0
  -26.7225  -32.5359   23.1045 H   0  0  0  0  0  0
  -25.0065  -33.9669   25.0362 H   0  0  0  0  0  0
  -22.7344  -31.2982   21.3925 H   0  0  0  0  0  0
  -23.3756  -35.9603   23.3300 H   0  0  0  0  0  0
  -24.3577  -36.8904   22.2056 H   0  0  0  0  0  0
  -23.7247  -37.6470   23.6675 H   0  0  0  0  0  0
  -26.1353  -31.5048   20.6165 H   0  0  0  0  0  0
  -26.8597  -30.7923   22.0243 H   0  0  0  0  0  0
  -28.1116  -28.8568   21.2430 H   0  0  0  0  0  0
  -25.9342  -25.9202   18.9283 H   0  0  0  0  0  0
  -23.9800  -27.3317   18.9560 H   0  0  0  0  0  0
  -23.7854  -30.5875   19.4021 H   0  0  0  0  0  0
  -22.7728  -29.2475   19.8475 H   0  0  0  0  0  0
  -25.1309  -36.1897   25.0813 H   0  0  0  0  0  0
  -20.9993  -28.3293   24.1377 H   0  0  0  0  0  0
  -20.5678  -26.2321   23.3620 H   0  0  0  0  0  0
  -21.6650  -26.7435   22.1205 H   0  0  0  0  0  0
  -19.6918  -25.6290   21.1251 H   0  0  0  0  0  0
  -19.6695  -27.3185   20.6737 H   0  0  0  0  0  0
  -17.4206  -26.6671   21.4029 H   0  0  0  0  0  0
  -18.0339  -26.0082   22.9029 H   0  0  0  0  0  0
  -19.7945  -30.7281   24.2253 H   0  0  0  0  0  0
  -17.5022  -31.6269   24.5162 H   0  0  0  0  0  0
  -15.5358  -30.2983   23.7664 H   0  0  0  0  0  0
  -15.8681  -28.0818   22.7078 H   0  0  0  0  0  0
  -24.5898  -30.7086   25.7755 H   0  0  0  0  0  0
  -24.8895  -32.2920   26.4820 H   0  0  0  0  0  0
  -25.8009  -30.8945   27.0236 H   0  0  0  0  0  0
  -26.2974  -29.6717   24.1266 H   0  0  0  0  0  0
  -27.4003  -29.7266   25.4815 H   0  0  0  0  0  0
  -27.8875  -30.4239   23.9559 H   0  0  0  0  0  0
  -27.2651  -33.3642   26.2053 H   0  0  0  0  0  0
  -28.3878  -32.6878   25.0344 H   0  0  0  0  0  0
  -28.0708  -31.8481   26.5446 H   0  0  0  0  0  0
  -28.2595  -38.0092   24.7507 H   0  0  0  0  0  0
  -28.1075  -36.2623   24.6305 H   0  0  0  0  0  0
  -27.2294  -37.1457   25.8868 H   0  0  0  0  0  0
  -20.9421  -29.8770   21.6835 H   0  0  0  0  0  0
  -26.0167  -38.2833   24.1397 H   0  0  0  0  0  0
  -27.9953  -20.3988   22.9590 H   0  0  0  0  0  0
  -27.0428  -21.4064   21.8197 H   0  0  0  0  0  0
  -30.7182  -18.3475   21.9682 H   0  0  0  0  0  0
  -29.2618  -18.4925   22.8568 H   0  0  0  0  0  0
  -28.5480  -18.2903   18.8839 H   0  0  0  0  0  0
  -30.0034  -19.2005   18.7903 H   0  0  0  0  0  0
  -28.2538  -16.5103   21.6199 H   0  0  0  0  0  0
  -29.6796  -16.1248   22.5319 H   0  0  0  0  0  0
  -31.3437  -17.3940   19.7097 H   0  0  0  0  0  0
  -30.3286  -16.7117   18.4860 H   0  0  0  0  0  0
  -29.9405  -21.1662   21.7387 H   0  0  0  0  0  0
  -28.5542  -23.5336   21.6903 H   0  0  0  0  0  0
  -29.9454  -23.8160   20.6995 H   0  0  0  0  0  0
  -27.0394  -24.5346   20.0750 H   0  0  0  0  0  0
  -28.2510  -24.6885   18.8416 H   0  0  0  0  0  0
  -27.9162  -21.9447   19.6876 H   0  0  0  0  0  0
  -29.4873  -22.0230   19.3612 H   0  0  0  0  0  0
  1 25  1  0  0  0
  1 30  2  0  0  0
  1 81  1  0  0  0
  2  3  1  0  0  0
  2 25  1  0  0  0
  2 84  1  0  0  0
  2 85  1  0  0  0
  3  4  1  0  0  0
  3 86  1  0  0  0
  3 87  1  0  0  0
  4  5  1  0  0  0
  4 88  1  0  0  0
  4 89  1  0  0  0
  5  6  1  0  0  0
  5 26  1  0  0  0
  5 90  1  0  0  0
  6 25  1  0  0  0
  6 91  1  0  0  0
  6 92  1  0  0  0
  7  8  2  0  0  0
  7 26  1  0  0  0
  7 29  1  0  0  0
  8  9  1  0  0  0
  8 22  1  0  0  0
  9 10  1  0  0  0
  9 27  2  0  0  0
 10 11  2  0  0  0
 10 15  1  0  0  0
 11 12  1  0  0  0
 11 93  1  0  0  0
 12 13  2  0  0  0
 12 94  1  0  0  0
 13 14  1  0  0  0
 13 31  1  0  0  0
 14 15  2  0  0  0
 14 95  1  0  0  0
 15 96  1  0  0  0
 16 17  2  0  0  0
 16 21  1  0  0  0
 16 31  1  0  0  0
 17 18  1  0  0  0
 17 97  1  0  0  0
 18 19  2  0  0  0
 18 98  1  0  0  0
 19 20  1  0  0  0
 19 24  1  0  0  0
 20 21  2  0  0  0
 20 99  1  0  0  0
 21 23  1  0  0  0
 22 28  1  0  0  0
 22 32  2  0  0  0
 26 27  1  0  0  0
 28100  1  0  0  0
 28101  1  0  0  0
 29102  1  0  0  0
 29103  1  0  0  0
 33 34  1  0  0  0
 33 66  1  0  0  0
 33 70  2  0  0  0
 34 36  1  0  0  0
 34 59  1  0  0  0
 34104  1  0  0  0
 35 44  2  0  0  0
 35 45  1  0  0  0
 35 68  1  0  0  0
 36 56  1  0  0  0
 36105  1  0  0  0
 37 39  1  0  0  0
 37 47  1  0  0  0
 37 66  1  0  0  0
 37106  1  0  0  0
 38 43  2  0  0  0
 38 46  1  0  0  0
 38 47  1  0  0  0
 39 64  1  0  0  0
 39 67  2  0  0  0
 40 52  1  0  0  0
 40 53  2  0  0  0
 40 58  1  0  0  0
 41107  1  0  0  0
 41108  1  0  0  0
 41109  1  0  0  0
 41 48  1  0  0  0
 42 43  1  0  0  0
 42 66  1  0  0  0
 42110  1  0  0  0
 42111  1  0  0  0
 43 44  1  0  0  0
 44112  1  0  0  0
 45 46  2  0  0  0
 45113  1  0  0  0
 46114  1  0  0  0
 47115  1  0  0  0
 47116  1  0  0  0
 48 56  1  0  0  0
 48 65  1  0  0  0
 48117  1  0  0  0
 49 50  1  0  0  0
 49 53  1  0  0  0
 49 64  1  0  0  0
 49118  1  0  0  0
 50 51  1  0  0  0
 50119  1  0  0  0
 50120  1  0  0  0
 51 52  1  0  0  0
 51121  1  0  0  0
 51122  1  0  0  0
 52123  1  0  0  0
 52124  1  0  0  0
 53 54  1  0  0  0
 54 55  2  0  0  0
 54125  1  0  0  0
 55 57  1  0  0  0
 55126  1  0  0  0
 56 69  2  0  0  0
 57 58  2  0  0  0
 57127  1  0  0  0
 58128  1  0  0  0
 59 60  1  0  0  0
 59 61  1  0  0  0
 59 62  1  0  0  0
 60129  1  0  0  0
 60130  1  0  0  0
 60131  1  0  0  0
 61132  1  0  0  0
 61133  1  0  0  0
 61134  1  0  0  0
 62135  1  0  0  0
 62136  1  0  0  0
 62137  1  0  0  0
 63 65  1  0  0  0
 63138  1  0  0  0
 63139  1  0  0  0
 63140  1  0  0  0
 64141  1  0  0  0
 65142  1  0  0  0
 68 80  1  0  0  0
 71 72  1  0  0  0
 71 83  2  0  0  0
 71 78  1  0  0  0
 72 77  1  0  0  0
 72143  1  0  0  0
 72144  1  0  0  0
 73 75  1  0  0  0
 73145  1  0  0  0
 73146  1  0  0  0
 73 78  1  0  0  0
 74 76  1  0  0  0
 74 78  1  0  0  0
 74147  1  0  0  0
 74148  1  0  0  0
 75 81  1  0  0  0
 75149  1  0  0  0
 75150  1  0  0  0
 76 81  1  0  0  0
 76151  1  0  0  0
 76152  1  0  0  0
 77 78  1  0  0  0
 77 82  1  0  0  0
 77153  1  0  0  0
 79 80  1  0  0  0
 79 82  1  0  0  0
 79154  1  0  0  0
 79155  1  0  0  0
 80156  1  0  0  0
 80157  1  0  0  0
 82158  1  0  0  0
 82159  1  0  0  0
M  CHG  1  82   1
M  ISO  4   1 100  68 101  80 101  81 100
M  END
> <chiral flag>
0

> <version>
0

> <s_m_source_file>
/data/baiqing/PycharmProjects/Reinvent-master-3.2/result/LINK_invent/BTK/process_docking_weight1_custom_sum_contain_oxygen_bond_distance_aromatic_linkinvent_7_9_3/rearranged_h_0197.sdf

> <i_m_source_file_index>
96

> <r_mmod_Potential_Energy-OPLS-2005>
359.988372802734

> <r_mmod_Stretch_Energy-OPLS-2005>
179.699447631836

> <r_mmod_Bend_Energy-OPLS-2005>
252.149337768555

> <r_mmod_Torsional_Energy-OPLS-2005>
330.237152099609

> <r_mmod_Improper_Torsional_Energy-OPLS-2005>
15.2237348556519

> <r_mmod_Van_der_Waal_Energy-OPLS-2005>
130.253646850586

> <r_mmod_Electrostatic_Energy-OPLS-2005>
-185.408660888672

> <r_mmod_Solvation_Energy-OPLS-2005>
-481.715606689453

> <b_mmod_Minimization_Converged-OPLS-2005>
0

> <r_mmod_RMS_Derivative-OPLS-2005>
0.478393495082855

$$$$
97
                    3D
 Structure written by MMmdl.
177187  0  0  1  0            999 V2000
  -30.6900  -14.4385   20.4802 C   0  0  0  0  0  0
  -30.4300  -12.2480   19.4395 C   0  0  0  0  0  0
  -29.5049  -12.4158   18.2169 C   0  0  0  0  0  0
  -28.0209  -12.3231   18.6286 C   0  0  0  0  0  0
  -27.6618  -13.1891   19.8659 C   0  0  2  0  0  0
  -28.6999  -12.9926   20.9968 C   0  0  0  0  0  0
  -25.2613  -13.8129   20.5638 C   0  0  0  0  0  0
  -24.1853  -13.0426   20.9207 C   0  0  0  0  0  0
  -24.6396  -11.6900   20.8799 C   0  0  0  0  0  0
  -23.9052  -10.4300   21.0479 C   0  0  0  0  0  0
  -24.3599   -9.4214   21.9253 C   0  0  0  0  0  0
  -23.6284   -8.2235   22.0789 C   0  0  0  0  0  0
  -22.4266   -8.0286   21.3569 C   0  0  0  0  0  0
  -21.9923   -9.0267   20.4675 C   0  0  0  0  0  0
  -22.7244  -10.2160   20.3117 C   0  0  0  0  0  0
  -21.6849   -6.0747   22.5305 C   0  0  0  0  0  0
  -21.3991   -6.5638   23.8233 C   0  0  0  0  0  0
  -21.3662   -5.6794   24.9194 C   0  0  0  0  0  0
  -21.6041   -4.3054   24.7250 C   0  0  0  0  0  0
  -21.8810   -3.8155   23.4361 C   0  0  0  0  0  0
  -21.9189   -4.6978   22.3421 C   0  0  0  0  0  0
  -22.7889  -13.5273   21.1868 C   0  0  0  0  0  0
  -22.1663   -4.2163   21.1005 F   0  0  0  0  0  0
  -21.5652   -3.4538   25.7757 F   0  0  0  0  0  0
  -30.0410  -13.2504   20.4406 N   0  0  0  0  0  0
  -26.3018  -12.9255   20.3306 N   0  0  0  0  0  0
  -25.9303  -11.6449   20.5800 N   0  0  0  0  0  0
  -22.0465  -12.8281   22.0394 N   0  0  0  0  0  0
  -25.4299  -15.1835   20.4027 N   0  0  0  0  0  0
  -31.8694  -14.5825   20.1579 O   0  0  0  0  0  0
  -21.6626   -6.8891   21.4261 O   0  0  0  0  0  0
  -22.3631  -14.5615   20.6768 O   0  0  0  0  0  0
  -24.6047  -31.8669   23.2111 C   0  0  0  0  0  0
  -25.8914  -32.4852   23.8425 C   0  0  1  0  0  0
  -27.2558  -27.4802   20.0998 C   0  0  0  0  0  0
  -25.5721  -33.8642   24.2327 N   0  0  0  0  0  0
  -23.3998  -30.4852   21.5493 C   0  0  2  0  0  0
  -24.8500  -28.9518   20.1158 C   0  0  0  0  0  0
  -22.7394  -29.4620   22.5010 C   0  0  0  0  0  0
  -18.0268  -28.1361   22.8516 C   0  0  0  0  0  0
  -24.1448  -36.7389   23.2654 C   0  0  0  0  0  0
  -25.9224  -30.8419   21.3640 C   0  0  0  0  0  0
  -25.9982  -29.4784   20.7171 C   0  0  0  0  0  0
  -27.1980  -28.7446   20.7117 C   0  0  0  0  0  0
  -26.0941  -26.9454   19.4975 C   0  0  0  0  0  0
  -24.8904  -27.6821   19.5023 C   0  0  0  0  0  0
  -23.6073  -29.8105   20.1642 C   0  0  0  0  0  0
  -25.4074  -36.3192   24.0361 C   0  0  1  0  0  0
  -20.5865  -28.3653   23.1352 C   0  0  2  0  0  0
  -20.6782  -26.9411   22.5424 C   0  0  0  0  0  0
  -19.5747  -26.6398   21.5233 C   0  0  0  0  0  0
  -18.1915  -26.7904   22.1638 C   0  0  0  0  0  0
  -19.1523  -28.8822   23.2925 C   0  0  0  0  0  0
  -18.9447  -30.1414   23.8953 C   0  0  0  0  0  0
  -17.6459  -30.6582   24.0581 C   0  0  0  0  0  0
  -25.8982  -34.9530   23.5196 C   0  0  0  0  0  0
  -16.5345  -29.9113   23.6316 C   0  0  0  0  0  0
  -16.7259  -28.6514   23.0372 C   0  0  0  0  0  0
  -26.4326  -31.6629   25.0757 C   0  0  0  0  0  0
  -25.3614  -31.3764   26.1545 C   0  0  0  0  0  0
  -27.0151  -30.3072   24.6120 C   0  0  0  0  0  0
  -27.5873  -32.4411   25.7466 C   0  0  0  0  0  0
  -27.5624  -37.1829   24.8469 C   0  0  0  0  0  0
  -21.4140  -29.3016   22.3745 N   0  0  0  0  0  0
  -26.4319  -37.3836   23.9429 N   0  0  0  0  0  0
  -24.6602  -31.0807   22.0983 N   0  0  0  0  0  0
  -23.4182  -28.8182   23.3042 O   0  0  0  0  0  0
  -28.4812  -26.8624   20.1275 O   0  0  0  0  0  0
  -26.5636  -34.8971   22.4810 O   0  0  0  0  0  0
  -23.5234  -32.1397   23.7492 O   0  0  0  0  0  0
  -29.1134  -20.9760   21.4294 C   0  0  0  0  0  0
  -32.7813  -20.1250   19.4048 C   0  0  0  0  0  0
  -29.5826  -16.6195   18.3503 C   0  0  0  0  0  0
  -28.4074  -22.2419   21.9478 C   0  0  0  0  0  0
  -33.1694  -19.9175   17.9459 C   0  0  0  0  0  0
  -29.2592  -22.7040   19.8413 C   0  0  0  0  0  0
  -30.9606  -17.0983   18.7490 C   0  0  1  0  0  0
  -31.3046  -18.5263   18.3395 C   0  0  1  0  0  0
  -29.9149  -16.7296   19.8199 C   0  0  2  0  0  0
  -30.0430  -21.5027   20.3378 C   0  0  2  0  0  0
  -31.3631  -19.5426   19.4988 C   0  0  2  0  0  0
  -28.0756  -25.2397   22.3917 C   0  0  0  0  0  0
  -32.5089  -18.3196   16.2408 C   0  0  0  0  0  0
  -28.6188  -25.4759   19.8883 C   0  0  0  0  0  0
  -28.0801  -24.5418   21.0142 C   0  0  1  0  0  0
  -28.9205  -23.3366   21.1097 N   0  0  0  0  0  0
  -32.6098  -18.5978   17.6722 N   0  0  0  0  0  0
  -29.8492  -15.4823   20.5399 N   0  0  0  0  0  0
  -30.3211  -20.5603   19.2457 N   0  3  0  0  0  0
  -31.4732  -12.3464   19.1335 H   0  0  0  0  0  0
  -30.3350  -11.2422   19.8523 H   0  0  0  0  0  0
  -29.7241  -11.6357   17.4852 H   0  0  0  0  0  0
  -29.7078  -13.3606   17.7137 H   0  0  0  0  0  0
  -27.8216  -11.2732   18.8500 H   0  0  0  0  0  0
  -27.3793  -12.5810   17.7858 H   0  0  0  0  0  0
  -27.6980  -14.2286   19.5421 H   0  0  0  0  0  0
  -28.6501  -11.9753   21.3903 H   0  0  0  0  0  0
  -28.4807  -13.6473   21.8432 H   0  0  0  0  0  0
  -25.2730   -9.5694   22.4845 H   0  0  0  0  0  0
  -23.9996   -7.4629   22.7497 H   0  0  0  0  0  0
  -21.0872   -8.8819   19.8958 H   0  0  0  0  0  0
  -22.3724  -10.9730   19.6247 H   0  0  0  0  0  0
  -21.1937   -7.6139   23.9750 H   0  0  0  0  0  0
  -21.1503   -6.0517   25.9109 H   0  0  0  0  0  0
  -22.0572   -2.7616   23.2867 H   0  0  0  0  0  0
  -22.4002  -11.9898   22.4761 H   0  0  0  0  0  0
  -21.1106  -13.1411   22.2586 H   0  0  0  0  0  0
  -24.6497  -15.8242   20.5084 H   0  0  0  0  0  0
  -26.2614  -15.6343   20.0444 H   0  0  0  0  0  0
  -26.7009  -32.5571   23.1225 H   0  0  0  0  0  0
  -24.9677  -33.9781   25.0340 H   0  0  0  0  0  0
  -22.6911  -31.3021   21.4070 H   0  0  0  0  0  0
  -23.3727  -35.9699   23.3306 H   0  0  0  0  0  0
  -24.3560  -36.9023   22.2080 H   0  0  0  0  0  0
  -23.7149  -37.6571   23.6654 H   0  0  0  0  0  0
  -26.0500  -31.6089   20.5983 H   0  0  0  0  0  0
  -26.8035  -30.8910   21.9914 H   0  0  0  0  0  0
  -28.0869  -29.1390   21.1842 H   0  0  0  0  0  0
  -26.1128  -25.9787   19.0127 H   0  0  0  0  0  0
  -24.0087  -27.2755   19.0239 H   0  0  0  0  0  0
  -23.7130  -30.5827   19.4012 H   0  0  0  0  0  0
  -22.7336  -29.2254   19.8718 H   0  0  0  0  0  0
  -25.1236  -36.2126   25.0850 H   0  0  0  0  0  0
  -20.9943  -28.3224   24.1488 H   0  0  0  0  0  0
  -20.5784  -26.2249   23.3589 H   0  0  0  0  0  0
  -21.6640  -26.7533   22.1164 H   0  0  0  0  0  0
  -19.6955  -25.6343   21.1205 H   0  0  0  0  0  0
  -19.6676  -27.3254   20.6798 H   0  0  0  0  0  0
  -17.4202  -26.6661   21.4020 H   0  0  0  0  0  0
  -18.0313  -26.0010   22.9008 H   0  0  0  0  0  0
  -19.7933  -30.7176   24.2380 H   0  0  0  0  0  0
  -17.5042  -31.6266   24.5176 H   0  0  0  0  0  0
  -15.5361  -30.3062   23.7602 H   0  0  0  0  0  0
  -15.8639  -28.0846   22.7127 H   0  0  0  0  0  0
  -24.5657  -30.7248   25.7936 H   0  0  0  0  0  0
  -24.8927  -32.2928   26.5132 H   0  0  0  0  0  0
  -25.7944  -30.8831   27.0255 H   0  0  0  0  0  0
  -26.2734  -29.6879   24.1061 H   0  0  0  0  0  0
  -27.3826  -29.7250   25.4577 H   0  0  0  0  0  0
  -27.8588  -30.4431   23.9358 H   0  0  0  0  0  0
  -27.2439  -33.3697   26.2058 H   0  0  0  0  0  0
  -28.3591  -32.7036   25.0221 H   0  0  0  0  0  0
  -28.0616  -31.8568   26.5355 H   0  0  0  0  0  0
  -28.2624  -38.0152   24.7617 H   0  0  0  0  0  0
  -28.1162  -36.2713   24.6186 H   0  0  0  0  0  0
  -27.2399  -37.1392   25.8883 H   0  0  0  0  0  0
  -20.9305  -29.8737   21.6976 H   0  0  0  0  0  0
  -26.0281  -38.2966   24.1311 H   0  0  0  0  0  0
  -28.3687  -20.2863   21.0246 H   0  0  0  0  0  0
  -29.6537  -20.4494   22.2166 H   0  0  0  0  0  0
  -32.8753  -21.1639   19.7263 H   0  0  0  0  0  0
  -33.4562  -19.5430   20.0370 H   0  0  0  0  0  0
  -29.5321  -15.6374   17.8863 H   0  0  0  0  0  0
  -28.8688  -17.3391   17.9500 H   0  0  0  0  0  0
  -28.6361  -22.4098   23.0016 H   0  0  0  0  0  0
  -27.3263  -22.1319   21.8490 H   0  0  0  0  0  0
  -34.2503  -19.9504   17.7972 H   0  0  0  0  0  0
  -32.7187  -20.6915   17.3184 H   0  0  0  0  0  0
  -28.3518  -22.4008   19.3100 H   0  0  0  0  0  0
  -29.8643  -23.3272   19.1827 H   0  0  0  0  0  0
  -31.7804  -16.4029   18.5874 H   0  0  0  0  0  0
  -30.5514  -18.8549   17.6206 H   0  0  0  0  0  0
  -29.4433  -17.5616   20.3392 H   0  0  0  0  0  0
  -30.9765  -21.8546   20.7812 H   0  0  0  0  0  0
  -31.2105  -19.0729   20.4731 H   0  0  0  0  0  0
  -27.3604  -26.0626   22.4092 H   0  0  0  0  0  0
  -29.0522  -25.6595   22.6295 H   0  0  0  0  0  0
  -27.7955  -24.5677   23.2033 H   0  0  0  0  0  0
  -33.4910  -18.3340   15.7660 H   0  0  0  0  0  0
  -31.8766  -19.0480   15.7271 H   0  0  0  0  0  0
  -32.0785  -17.3309   16.0744 H   0  0  0  0  0  0
  -28.2252  -25.2093   18.9086 H   0  0  0  0  0  0
  -29.7002  -25.3633   19.8123 H   0  0  0  0  0  0
  -27.0564  -24.2561   20.7654 H   0  0  0  0  0  0
  -28.9346  -15.2458   20.8955 H   0  0  0  0  0  0
  -30.6099  -21.0927   18.4414 H   0  0  0  0  0  0
  -29.4604  -20.0990   18.9996 H   0  0  0  0  0  0
  1 25  1  0  0  0
  1 30  2  0  0  0
  1 88  1  0  0  0
  2  3  1  0  0  0
  2 25  1  0  0  0
  2 90  1  0  0  0
  2 91  1  0  0  0
  3  4  1  0  0  0
  3 92  1  0  0  0
  3 93  1  0  0  0
  4  5  1  0  0  0
  4 94  1  0  0  0
  4 95  1  0  0  0
  5  6  1  0  0  0
  5 26  1  0  0  0
  5 96  1  0  0  0
  6 25  1  0  0  0
  6 97  1  0  0  0
  6 98  1  0  0  0
  7  8  2  0  0  0
  7 26  1  0  0  0
  7 29  1  0  0  0
  8  9  1  0  0  0
  8 22  1  0  0  0
  9 10  1  0  0  0
  9 27  2  0  0  0
 10 11  2  0  0  0
 10 15  1  0  0  0
 11 12  1  0  0  0
 11 99  1  0  0  0
 12 13  2  0  0  0
 12100  1  0  0  0
 13 14  1  0  0  0
 13 31  1  0  0  0
 14 15  2  0  0  0
 14101  1  0  0  0
 15102  1  0  0  0
 16 17  2  0  0  0
 16 21  1  0  0  0
 16 31  1  0  0  0
 17 18  1  0  0  0
 17103  1  0  0  0
 18 19  2  0  0  0
 18104  1  0  0  0
 19 20  1  0  0  0
 19 24  1  0  0  0
 20 21  2  0  0  0
 20105  1  0  0  0
 21 23  1  0  0  0
 22 28  1  0  0  0
 22 32  2  0  0  0
 26 27  1  0  0  0
 28106  1  0  0  0
 28107  1  0  0  0
 29108  1  0  0  0
 29109  1  0  0  0
 33 34  1  0  0  0
 33 66  1  0  0  0
 33 70  2  0  0  0
 34 36  1  0  0  0
 34 59  1  0  0  0
 34110  1  0  0  0
 35 44  2  0  0  0
 35 45  1  0  0  0
 35 68  1  0  0  0
 36 56  1  0  0  0
 36111  1  0  0  0
 37 39  1  0  0  0
 37 47  1  0  0  0
 37 66  1  0  0  0
 37112  1  0  0  0
 38 43  2  0  0  0
 38 46  1  0  0  0
 38 47  1  0  0  0
 39 64  1  0  0  0
 39 67  2  0  0  0
 40 52  1  0  0  0
 40 53  2  0  0  0
 40 58  1  0  0  0
 41113  1  0  0  0
 41114  1  0  0  0
 41115  1  0  0  0
 41 48  1  0  0  0
 42 43  1  0  0  0
 42 66  1  0  0  0
 42116  1  0  0  0
 42117  1  0  0  0
 43 44  1  0  0  0
 44118  1  0  0  0
 45 46  2  0  0  0
 45119  1  0  0  0
 46120  1  0  0  0
 47121  1  0  0  0
 47122  1  0  0  0
 48 56  1  0  0  0
 48 65  1  0  0  0
 48123  1  0  0  0
 49 50  1  0  0  0
 49 53  1  0  0  0
 49 64  1  0  0  0
 49124  1  0  0  0
 50 51  1  0  0  0
 50125  1  0  0  0
 50126  1  0  0  0
 51 52  1  0  0  0
 51127  1  0  0  0
 51128  1  0  0  0
 52129  1  0  0  0
 52130  1  0  0  0
 53 54  1  0  0  0
 54 55  2  0  0  0
 54131  1  0  0  0
 55 57  1  0  0  0
 55132  1  0  0  0
 56 69  2  0  0  0
 57 58  2  0  0  0
 57133  1  0  0  0
 58134  1  0  0  0
 59 60  1  0  0  0
 59 61  1  0  0  0
 59 62  1  0  0  0
 60135  1  0  0  0
 60136  1  0  0  0
 60137  1  0  0  0
 61138  1  0  0  0
 61139  1  0  0  0
 61140  1  0  0  0
 62141  1  0  0  0
 62142  1  0  0  0
 62143  1  0  0  0
 63 65  1  0  0  0
 63144  1  0  0  0
 63145  1  0  0  0
 63146  1  0  0  0
 64147  1  0  0  0
 65148  1  0  0  0
 68 84  1  0  0  0
 71 74  1  0  0  0
 71 80  1  0  0  0
 71149  1  0  0  0
 71150  1  0  0  0
 72 75  1  0  0  0
 72 81  1  0  0  0
 72151  1  0  0  0
 72152  1  0  0  0
 73 79  1  0  0  0
 73153  1  0  0  0
 73154  1  0  0  0
 73 77  1  0  0  0
 74 86  1  0  0  0
 74155  1  0  0  0
 74156  1  0  0  0
 75 87  1  0  0  0
 75157  1  0  0  0
 75158  1  0  0  0
 76 80  1  0  0  0
 76 86  1  0  0  0
 76159  1  0  0  0
 76160  1  0  0  0
 77 78  1  0  0  0
 77 79  1  0  0  0
 77161  1  0  0  0
 78 81  1  0  0  0
 78 87  1  0  0  0
 78162  1  0  0  0
 79 88  1  0  0  0
 79163  1  0  0  0
 80 89  1  0  0  0
 80164  1  0  0  0
 81 89  1  0  0  0
 81165  1  0  0  0
 82166  1  0  0  0
 82167  1  0  0  0
 82168  1  0  0  0
 82 85  1  0  0  0
 83 87  1  0  0  0
 83169  1  0  0  0
 83170  1  0  0  0
 83171  1  0  0  0
 84 85  1  0  0  0
 84172  1  0  0  0
 84173  1  0  0  0
 85 86  1  0  0  0
 85174  1  0  0  0
 88175  1  0  0  0
 89176  1  0  0  0
 89177  1  0  0  0
M  CHG  1  89   1
M  ISO  4   1 100  68 101  84 101  88 100
M  END
> <chiral flag>
0

> <version>
0

> <s_m_source_file>
/data/baiqing/PycharmProjects/Reinvent-master-3.2/result/LINK_invent/BTK/process_docking_weight1_custom_sum_contain_oxygen_bond_distance_aromatic_linkinvent_7_9_3/rearranged_h_0197.sdf

> <i_m_source_file_index>
97

> <r_mmod_Potential_Energy-OPLS-2005>
108.995735168457

> <r_mmod_Stretch_Energy-OPLS-2005>
35.4705657958984

> <r_mmod_Bend_Energy-OPLS-2005>
176.255722045898

> <r_mmod_Torsional_Energy-OPLS-2005>
442.899291992188

> <r_mmod_Improper_Torsional_Energy-OPLS-2005>
11.0852451324463

> <r_mmod_Van_der_Waal_Energy-OPLS-2005>
140.113754272461

> <r_mmod_Electrostatic_Energy-OPLS-2005>
-238.726776123047

> <r_mmod_Solvation_Energy-OPLS-2005>
-477.539031982422

> <b_mmod_Minimization_Converged-OPLS-2005>
0

> <r_mmod_RMS_Derivative-OPLS-2005>
4.36323738098145

$$$$
