0
                    3D
 Structure written by MMmdl.
158167  0  0  1  0            999 V2000
  -30.6128  -14.7867   20.4326 C   0  0  0  0  0  0
  -30.4294  -12.4791   19.4740 C   0  0  0  0  0  0
  -29.5071  -12.5017   18.2362 C   0  0  0  0  0  0
  -28.0355  -12.3230   18.6562 C   0  0  0  0  0  0
  -27.6359  -13.2384   19.8444 C   0  0  2  0  0  0
  -28.6841  -13.2123   20.9765 C   0  0  0  0  0  0
  -25.2498  -13.8215   20.5715 C   0  0  0  0  0  0
  -24.1789  -13.0447   20.9209 C   0  0  0  0  0  0
  -24.6390  -11.6929   20.8754 C   0  0  0  0  0  0
  -23.9070  -10.4297   21.0410 C   0  0  0  0  0  0
  -24.3618   -9.4212   21.9190 C   0  0  0  0  0  0
  -23.6292   -8.2248   22.0759 C   0  0  0  0  0  0
  -22.4276   -8.0282   21.3547 C   0  0  0  0  0  0
  -21.9911   -9.0257   20.4649 C   0  0  0  0  0  0
  -22.7242  -10.2135   20.3060 C   0  0  0  0  0  0
  -21.6852   -6.0732   22.5279 C   0  0  0  0  0  0
  -21.4016   -6.5638   23.8211 C   0  0  0  0  0  0
  -21.3661   -5.6794   24.9174 C   0  0  0  0  0  0
  -21.6042   -4.3056   24.7227 C   0  0  0  0  0  0
  -21.8821   -3.8146   23.4350 C   0  0  0  0  0  0
  -21.9193   -4.6960   22.3404 C   0  0  0  0  0  0
  -22.7811  -13.5223   21.1864 C   0  0  0  0  0  0
  -22.1660   -4.2144   21.0980 F   0  0  0  0  0  0
  -21.5627   -3.4541   25.7740 F   0  0  0  0  0  0
  -29.9743  -13.5640   20.3752 N   0  0  0  0  0  0
  -26.2919  -12.9430   20.3294 N   0  0  0  0  0  0
  -25.9327  -11.6566   20.5777 N   0  0  0  0  0  0
  -22.0468  -12.8206   22.0423 N   0  0  0  0  0  0
  -25.4212  -15.1937   20.4158 N   0  0  0  0  0  0
  -31.8262  -14.8329   20.2021 O   0  0  0  0  0  0
  -21.6646   -6.8875   21.4240 O   0  0  0  0  0  0
  -22.3493  -14.5527   20.6714 O   0  0  0  0  0  0
  -24.6351  -31.8520   23.1977 C   0  0  0  0  0  0
  -25.9156  -32.4737   23.8340 C   0  0  1  0  0  0
  -27.2125  -27.2219   20.1324 C   0  0  0  0  0  0
  -25.5929  -33.8543   24.2246 N   0  0  0  0  0  0
  -23.4333  -30.4768   21.5417 C   0  0  2  0  0  0
  -24.8796  -28.9216   20.1106 C   0  0  0  0  0  0
  -22.7520  -29.4593   22.4897 C   0  0  0  0  0  0
  -18.0292  -28.1390   22.8482 C   0  0  0  0  0  0
  -24.1484  -36.7274   23.2646 C   0  0  0  0  0  0
  -25.9848  -30.7520   21.3851 C   0  0  0  0  0  0
  -26.0556  -29.3735   20.7230 C   0  0  0  0  0  0
  -27.2254  -28.5384   20.7194 C   0  0  0  0  0  0
  -26.0088  -26.8527   19.4881 C   0  0  0  0  0  0
  -24.8642  -27.6707   19.4807 C   0  0  0  0  0  0
  -23.6539  -29.8140   20.1578 C   0  0  0  0  0  0
  -25.4111  -36.3057   24.0326 C   0  0  1  0  0  0
  -20.5899  -28.3707   23.1249 C   0  0  2  0  0  0
  -20.6776  -26.9420   22.5403 C   0  0  0  0  0  0
  -19.5751  -26.6379   21.5208 C   0  0  0  0  0  0
  -18.1931  -26.7929   22.1623 C   0  0  0  0  0  0
  -19.1548  -28.8865   23.2857 C   0  0  0  0  0  0
  -18.9472  -30.1462   23.8885 C   0  0  0  0  0  0
  -17.6472  -30.6593   24.0561 C   0  0  0  0  0  0
  -25.9058  -34.9428   23.5092 C   0  0  0  0  0  0
  -16.5360  -29.9090   23.6338 C   0  0  0  0  0  0
  -16.7278  -28.6502   23.0366 C   0  0  0  0  0  0
  -26.4510  -31.6579   25.0750 C   0  0  0  0  0  0
  -25.3727  -31.3728   26.1466 C   0  0  0  0  0  0
  -27.0382  -30.2989   24.6285 C   0  0  0  0  0  0
  -27.6051  -32.4347   25.7521 C   0  0  0  0  0  0
  -27.5571  -37.1786   24.8468 C   0  0  0  0  0  0
  -21.4224  -29.3046   22.3634 N   0  0  0  0  0  0
  -26.4281  -37.3759   23.9414 N   0  0  0  0  0  0
  -24.7039  -31.0456   22.0970 N   0  0  0  0  0  0
  -23.4202  -28.8127   23.3007 O   0  0  0  0  0  0
  -28.2878  -26.2885   20.1919 O   0  0  0  0  0  0
  -26.5646  -34.8908   22.4672 O   0  0  0  0  0  0
  -23.5490  -32.1368   23.7237 O   0  0  0  0  0  0
  -29.2253  -19.7870   21.1202 C   0  0  0  0  0  0
  -29.5040  -18.4467   20.6444 C   0  0  0  0  0  0
  -29.5650  -18.2029   19.2958 C   0  0  0  0  0  0
  -29.3683  -19.2598   18.3689 C   0  0  0  0  0  0
  -29.0632  -20.5921   18.8281 C   0  0  0  0  0  0
  -29.0042  -20.9144   20.2253 C   0  0  0  0  0  0
  -29.7485  -17.0794   21.3625 C   0  0  0  0  0  0
  -29.8213  -16.7054   19.0391 C   0  0  0  0  0  0
  -29.4464  -18.9436   16.8814 C   0  0  0  0  0  0
  -28.7083  -21.6589   17.7986 C   0  0  0  0  0  0
  -27.9825  -24.7969   20.1195 C   0  0  0  0  0  0
  -29.0551  -23.5720   20.3021 C   0  0  0  0  0  0
  -29.8489  -15.9593   20.3386 N   0  0  0  0  0  0
  -28.5912  -22.1985   20.7308 O   0  0  0  0  0  0
  -31.4698  -12.6023   19.1682 H   0  0  0  0  0  0
  -30.3770  -11.5138   19.9805 H   0  0  0  0  0  0
  -29.7932  -11.7167   17.5350 H   0  0  0  0  0  0
  -29.6250  -13.4468   17.7037 H   0  0  0  0  0  0
  -27.9001  -11.2776   18.9359 H   0  0  0  0  0  0
  -27.3743  -12.4960   17.8065 H   0  0  0  0  0  0
  -27.6168  -14.2523   19.4444 H   0  0  0  0  0  0
  -28.7316  -12.2298   21.4484 H   0  0  0  0  0  0
  -28.4199  -13.9245   21.7603 H   0  0  0  0  0  0
  -25.2757   -9.5686   22.4773 H   0  0  0  0  0  0
  -23.9996   -7.4637   22.7480 H   0  0  0  0  0  0
  -21.0844   -8.8775   19.8953 H   0  0  0  0  0  0
  -22.3698  -10.9675   19.6172 H   0  0  0  0  0  0
  -21.2012   -7.6147   23.9712 H   0  0  0  0  0  0
  -21.1478   -6.0525   25.9074 H   0  0  0  0  0  0
  -22.0598   -2.7607   23.2856 H   0  0  0  0  0  0
  -22.4092  -11.9857   22.4784 H   0  0  0  0  0  0
  -21.1094  -13.1234   22.2659 H   0  0  0  0  0  0
  -24.6598  -15.8532   20.5336 H   0  0  0  0  0  0
  -26.2838  -15.6336   20.1205 H   0  0  0  0  0  0
  -26.7223  -32.5372   23.1081 H   0  0  0  0  0  0
  -25.0044  -33.9677   25.0369 H   0  0  0  0  0  0
  -22.7315  -31.3005   21.3947 H   0  0  0  0  0  0
  -23.3748  -35.9603   23.3304 H   0  0  0  0  0  0
  -24.3568  -36.8914   22.2062 H   0  0  0  0  0  0
  -23.7240  -37.6467   23.6689 H   0  0  0  0  0  0
  -26.1329  -31.5109   20.6157 H   0  0  0  0  0  0
  -26.8587  -30.7977   22.0236 H   0  0  0  0  0  0
  -28.1233  -28.8762   21.2177 H   0  0  0  0  0  0
  -25.9068  -25.9025   18.9902 H   0  0  0  0  0  0
  -23.9657  -27.3191   18.9919 H   0  0  0  0  0  0
  -23.7846  -30.5922   19.4052 H   0  0  0  0  0  0
  -22.7701  -29.2530   19.8485 H   0  0  0  0  0  0
  -25.1292  -36.1898   25.0818 H   0  0  0  0  0  0
  -20.9991  -28.3296   24.1370 H   0  0  0  0  0  0
  -20.5663  -26.2328   23.3618 H   0  0  0  0  0  0
  -21.6645  -26.7431   22.1205 H   0  0  0  0  0  0
  -19.6914  -25.6284   21.1254 H   0  0  0  0  0  0
  -19.6685  -27.3176   20.6727 H   0  0  0  0  0  0
  -17.4197  -26.6671   21.4031 H   0  0  0  0  0  0
  -18.0335  -26.0072   22.9021 H   0  0  0  0  0  0
  -19.7949  -30.7274   24.2256 H   0  0  0  0  0  0
  -17.5031  -31.6276   24.5161 H   0  0  0  0  0  0
  -15.5362  -30.2995   23.7668 H   0  0  0  0  0  0
  -15.8673  -28.0816   22.7106 H   0  0  0  0  0  0
  -24.5916  -30.7058   25.7796 H   0  0  0  0  0  0
  -24.8898  -32.2890   26.4875 H   0  0  0  0  0  0
  -25.8044  -30.8927   27.0259 H   0  0  0  0  0  0
  -26.2995  -29.6708   24.1292 H   0  0  0  0  0  0
  -27.4018  -29.7283   25.4841 H   0  0  0  0  0  0
  -27.8890  -30.4244   23.9587 H   0  0  0  0  0  0
  -27.2647  -33.3660   26.2060 H   0  0  0  0  0  0
  -28.3873  -32.6890   25.0357 H   0  0  0  0  0  0
  -28.0711  -31.8509   26.5469 H   0  0  0  0  0  0
  -28.2581  -38.0088   24.7515 H   0  0  0  0  0  0
  -28.1077  -36.2619   24.6296 H   0  0  0  0  0  0
  -27.2293  -37.1438   25.8871 H   0  0  0  0  0  0
  -20.9418  -29.8785   21.6847 H   0  0  0  0  0  0
  -26.0156  -38.2829   24.1426 H   0  0  0  0  0  0
  -29.1530  -19.9509   22.1863 H   0  0  0  0  0  0
  -28.9270  -16.8721   22.0488 H   0  0  0  0  0  0
  -30.6663  -17.1317   21.9501 H   0  0  0  0  0  0
  -30.7655  -16.5925   18.5027 H   0  0  0  0  0  0
  -29.0332  -16.2993   18.4042 H   0  0  0  0  0  0
  -29.9728  -18.0094   16.6889 H   0  0  0  0  0  0
  -29.9819  -19.7229   16.3385 H   0  0  0  0  0  0
  -28.4444  -18.8522   16.4611 H   0  0  0  0  0  0
  -28.2341  -21.2375   16.9136 H   0  0  0  0  0  0
  -29.6003  -22.1988   17.4806 H   0  0  0  0  0  0
  -27.9869  -22.3696   18.1977 H   0  0  0  0  0  0
  -27.2003  -24.6235   20.8593 H   0  0  0  0  0  0
  -27.5230  -24.6021   19.1524 H   0  0  0  0  0  0
  -29.7348  -23.8811   21.0961 H   0  0  0  0  0  0
  -29.6936  -23.5081   19.4227 H   0  0  0  0  0  0
  1 25  1  0  0  0
  1 30  2  0  0  0
  1 83  1  0  0  0
  2  3  1  0  0  0
  2 25  1  0  0  0
  2 85  1  0  0  0
  2 86  1  0  0  0
  3  4  1  0  0  0
  3 87  1  0  0  0
  3 88  1  0  0  0
  4  5  1  0  0  0
  4 89  1  0  0  0
  4 90  1  0  0  0
  5  6  1  0  0  0
  5 26  1  0  0  0
  5 91  1  0  0  0
  6 25  1  0  0  0
  6 92  1  0  0  0
  6 93  1  0  0  0
  7  8  2  0  0  0
  7 26  1  0  0  0
  7 29  1  0  0  0
  8  9  1  0  0  0
  8 22  1  0  0  0
  9 10  1  0  0  0
  9 27  2  0  0  0
 10 11  2  0  0  0
 10 15  1  0  0  0
 11 12  1  0  0  0
 11 94  1  0  0  0
 12 13  2  0  0  0
 12 95  1  0  0  0
 13 14  1  0  0  0
 13 31  1  0  0  0
 14 15  2  0  0  0
 14 96  1  0  0  0
 15 97  1  0  0  0
 16 17  2  0  0  0
 16 21  1  0  0  0
 16 31  1  0  0  0
 17 18  1  0  0  0
 17 98  1  0  0  0
 18 19  2  0  0  0
 18 99  1  0  0  0
 19 20  1  0  0  0
 19 24  1  0  0  0
 20 21  2  0  0  0
 20100  1  0  0  0
 21 23  1  0  0  0
 22 28  1  0  0  0
 22 32  2  0  0  0
 26 27  1  0  0  0
 28101  1  0  0  0
 28102  1  0  0  0
 29103  1  0  0  0
 29104  1  0  0  0
 33 34  1  0  0  0
 33 66  1  0  0  0
 33 70  2  0  0  0
 34 36  1  0  0  0
 34 59  1  0  0  0
 34105  1  0  0  0
 35 44  2  0  0  0
 35 45  1  0  0  0
 35 68  1  0  0  0
 36 56  1  0  0  0
 36106  1  0  0  0
 37 39  1  0  0  0
 37 47  1  0  0  0
 37 66  1  0  0  0
 37107  1  0  0  0
 38 43  2  0  0  0
 38 46  1  0  0  0
 38 47  1  0  0  0
 39 64  1  0  0  0
 39 67  2  0  0  0
 40 52  1  0  0  0
 40 53  2  0  0  0
 40 58  1  0  0  0
 41108  1  0  0  0
 41109  1  0  0  0
 41110  1  0  0  0
 41 48  1  0  0  0
 42 43  1  0  0  0
 42 66  1  0  0  0
 42111  1  0  0  0
 42112  1  0  0  0
 43 44  1  0  0  0
 44113  1  0  0  0
 45 46  2  0  0  0
 45114  1  0  0  0
 46115  1  0  0  0
 47116  1  0  0  0
 47117  1  0  0  0
 48 56  1  0  0  0
 48 65  1  0  0  0
 48118  1  0  0  0
 49 50  1  0  0  0
 49 53  1  0  0  0
 49 64  1  0  0  0
 49119  1  0  0  0
 50 51  1  0  0  0
 50120  1  0  0  0
 50121  1  0  0  0
 51 52  1  0  0  0
 51122  1  0  0  0
 51123  1  0  0  0
 52124  1  0  0  0
 52125  1  0  0  0
 53 54  1  0  0  0
 54 55  2  0  0  0
 54126  1  0  0  0
 55 57  1  0  0  0
 55127  1  0  0  0
 56 69  2  0  0  0
 57 58  2  0  0  0
 57128  1  0  0  0
 58129  1  0  0  0
 59 60  1  0  0  0
 59 61  1  0  0  0
 59 62  1  0  0  0
 60130  1  0  0  0
 60131  1  0  0  0
 60132  1  0  0  0
 61133  1  0  0  0
 61134  1  0  0  0
 61135  1  0  0  0
 62136  1  0  0  0
 62137  1  0  0  0
 62138  1  0  0  0
 63 65  1  0  0  0
 63139  1  0  0  0
 63140  1  0  0  0
 63141  1  0  0  0
 64142  1  0  0  0
 65143  1  0  0  0
 68 81  1  0  0  0
 71 72  2  0  0  0
 71 76  1  0  0  0
 71144  1  0  0  0
 72 73  1  0  0  0
 72 77  1  0  0  0
 73 74  2  0  0  0
 73 78  1  0  0  0
 74 75  1  0  0  0
 74 79  1  0  0  0
 75 76  2  0  0  0
 75 80  1  0  0  0
 76 84  1  0  0  0
 77 83  1  0  0  0
 77145  1  0  0  0
 77146  1  0  0  0
 78 83  1  0  0  0
 78147  1  0  0  0
 78148  1  0  0  0
 79149  1  0  0  0
 79150  1  0  0  0
 79151  1  0  0  0
 80152  1  0  0  0
 80153  1  0  0  0
 80154  1  0  0  0
 81 82  1  0  0  0
 81155  1  0  0  0
 81156  1  0  0  0
 82 84  1  0  0  0
 82157  1  0  0  0
 82158  1  0  0  0
M  ISO  4   1 100  68 101  81 101  83 100
M  END
> <chiral flag>
0

> <version>
0

> <s_m_source_file>
/data/baiqing/PycharmProjects/Reinvent-master-3.2/result/LINK_invent/BTK/process_docking_weight1_custom_sum_contain_oxygen_bond_distance_aromatic_linkinvent_7_9_3/rearranged_h_0161.sdf

> <i_m_source_file_index>
1

> <r_mmod_Potential_Energy-OPLS-2005>
383.452850341797

> <r_mmod_Stretch_Energy-OPLS-2005>
148.098114013672

> <r_mmod_Bend_Energy-OPLS-2005>
235.903045654297

> <r_mmod_Torsional_Energy-OPLS-2005>
290.867370605469

> <r_mmod_Improper_Torsional_Energy-OPLS-2005>
16.0790500640869

> <r_mmod_Van_der_Waal_Energy-OPLS-2005>
136.734252929688

> <r_mmod_Electrostatic_Energy-OPLS-2005>
-350.848846435547

> <r_mmod_Solvation_Energy-OPLS-2005>
-204.772445678711

> <b_mmod_Minimization_Converged-OPLS-2005>
0

> <r_mmod_RMS_Derivative-OPLS-2005>
0.769996762275696

$$$$
1
                    3D
 Structure written by MMmdl.
172181  0  0  1  0            999 V2000
  -30.6034  -14.7289   20.3792 C   0  0  0  0  0  0
  -30.4434  -12.4159   19.4685 C   0  0  0  0  0  0
  -29.5128  -12.4074   18.2367 C   0  0  0  0  0  0
  -28.0310  -12.2880   18.6558 C   0  0  0  0  0  0
  -27.6380  -13.2052   19.8475 C   0  0  2  0  0  0
  -28.6962  -13.1655   20.9708 C   0  0  0  0  0  0
  -25.2502  -13.8071   20.5824 C   0  0  0  0  0  0
  -24.1774  -13.0354   20.9257 C   0  0  0  0  0  0
  -24.6351  -11.6841   20.8792 C   0  0  0  0  0  0
  -23.9036  -10.4250   21.0435 C   0  0  0  0  0  0
  -24.3603   -9.4176   21.9215 C   0  0  0  0  0  0
  -23.6281   -8.2217   22.0753 C   0  0  0  0  0  0
  -22.4256   -8.0266   21.3538 C   0  0  0  0  0  0
  -21.9893   -9.0238   20.4642 C   0  0  0  0  0  0
  -22.7208  -10.2116   20.3075 C   0  0  0  0  0  0
  -21.6836   -6.0743   22.5290 C   0  0  0  0  0  0
  -21.4011   -6.5633   23.8233 C   0  0  0  0  0  0
  -21.3659   -5.6783   24.9194 C   0  0  0  0  0  0
  -21.6038   -4.3053   24.7230 C   0  0  0  0  0  0
  -21.8821   -3.8154   23.4351 C   0  0  0  0  0  0
  -21.9200   -4.6973   22.3410 C   0  0  0  0  0  0
  -22.7807  -13.5179   21.1894 C   0  0  0  0  0  0
  -22.1670   -4.2162   21.0992 F   0  0  0  0  0  0
  -21.5637   -3.4541   25.7746 F   0  0  0  0  0  0
  -29.9891  -13.4998   20.3600 N   0  0  0  0  0  0
  -26.2920  -12.9249   20.3357 N   0  0  0  0  0  0
  -25.9269  -11.6423   20.5825 N   0  0  0  0  0  0
  -22.0400  -12.8230   22.0442 N   0  0  0  0  0  0
  -25.4151  -15.1795   20.4472 N   0  0  0  0  0  0
  -31.8242  -14.8221   20.2292 O   0  0  0  0  0  0
  -21.6603   -6.8882   21.4255 O   0  0  0  0  0  0
  -22.3536  -14.5509   20.6733 O   0  0  0  0  0  0
  -24.6291  -31.8579   23.2005 C   0  0  0  0  0  0
  -25.9127  -32.4767   23.8344 C   0  0  1  0  0  0
  -27.2286  -27.2861   20.1142 C   0  0  0  0  0  0
  -25.5932  -33.8572   24.2264 N   0  0  0  0  0  0
  -23.4249  -30.4808   21.5436 C   0  0  2  0  0  0
  -24.8732  -28.9341   20.1097 C   0  0  0  0  0  0
  -22.7499  -29.4617   22.4925 C   0  0  0  0  0  0
  -18.0293  -28.1386   22.8484 C   0  0  0  0  0  0
  -24.1492  -36.7280   23.2641 C   0  0  0  0  0  0
  -25.9703  -30.7766   21.3801 C   0  0  0  0  0  0
  -26.0450  -29.4030   20.7175 C   0  0  0  0  0  0
  -27.2230  -28.5902   20.7130 C   0  0  0  0  0  0
  -26.0305  -26.8857   19.4752 C   0  0  0  0  0  0
  -24.8694  -27.6805   19.4817 C   0  0  0  0  0  0
  -23.6413  -29.8150   20.1599 C   0  0  0  0  0  0
  -25.4121  -36.3075   24.0321 C   0  0  1  0  0  0
  -20.5897  -28.3696   23.1268 C   0  0  2  0  0  0
  -20.6780  -26.9412   22.5406 C   0  0  0  0  0  0
  -19.5758  -26.6376   21.5209 C   0  0  0  0  0  0
  -18.1935  -26.7926   22.1619 C   0  0  0  0  0  0
  -19.1548  -28.8855   23.2866 C   0  0  0  0  0  0
  -18.9471  -30.1459   23.8878 C   0  0  0  0  0  0
  -17.6469  -30.6586   24.0559 C   0  0  0  0  0  0
  -25.9060  -34.9448   23.5094 C   0  0  0  0  0  0
  -16.5359  -29.9079   23.6339 C   0  0  0  0  0  0
  -16.7277  -28.6499   23.0352 C   0  0  0  0  0  0
  -26.4499  -31.6587   25.0728 C   0  0  0  0  0  0
  -25.3717  -31.3737   26.1442 C   0  0  0  0  0  0
  -27.0346  -30.2999   24.6217 C   0  0  0  0  0  0
  -27.6054  -32.4330   25.7493 C   0  0  0  0  0  0
  -27.5581  -37.1795   24.8465 C   0  0  0  0  0  0
  -21.4210  -29.3044   22.3658 N   0  0  0  0  0  0
  -26.4301  -37.3772   23.9405 N   0  0  0  0  0  0
  -24.6934  -31.0549   22.0974 N   0  0  0  0  0  0
  -23.4198  -28.8164   23.3028 O   0  0  0  0  0  0
  -28.3311  -26.4035   20.1822 O   0  0  0  0  0  0
  -26.5630  -34.8919   22.4663 O   0  0  0  0  0  0
  -23.5446  -32.1401   23.7297 O   0  0  0  0  0  0
  -31.4285  -23.0655   20.8364 C   0  0  0  0  0  0
  -30.5454  -24.0724   20.3542 C   0  0  0  0  0  0
  -30.9747  -21.7347   21.0804 C   0  0  0  0  0  0
  -28.7671  -22.3982   20.2645 C   0  0  0  0  0  0
  -29.1642  -23.7993   20.1921 C   0  0  0  0  0  0
  -29.6409  -21.3307   20.7591 C   0  0  0  0  0  0
  -28.3150  -16.9769   19.2513 C   0  0  0  0  0  0
  -29.4086  -16.1174   18.6262 C   0  0  0  0  0  0
  -29.1980  -17.1099   20.4922 C   0  0  2  0  0  0
  -32.8937  -23.4122   21.1340 C   0  0  0  0  0  0
  -31.1037  -25.4335   19.9425 C   0  0  0  0  0  0
  -31.9649  -20.7205   21.6707 C   0  0  0  0  0  0
  -27.3867  -22.0612   19.7058 C   0  0  0  0  0  0
  -27.6898  -19.5772   21.3218 C   0  0  0  0  0  0
  -28.1223  -24.9599   19.8374 C   0  0  0  0  0  0
  -29.9811  -18.5071   20.5165 C   0  0  0  0  0  0
  -29.2037  -19.8105   21.1179 C   0  0  1  0  0  0
  -29.8054  -15.7964   19.9958 N   0  0  0  0  0  0
  -31.4809  -12.5504   19.1570 H   0  0  0  0  0  0
  -30.4086  -11.4587   19.9901 H   0  0  0  0  0  0
  -29.7769  -11.5695   17.5907 H   0  0  0  0  0  0
  -29.6749  -13.2969   17.6333 H   0  0  0  0  0  0
  -27.8622  -11.2448   18.9294 H   0  0  0  0  0  0
  -27.3797  -12.4819   17.8026 H   0  0  0  0  0  0
  -27.6114  -14.2127   19.4498 H   0  0  0  0  0  0
  -28.7343  -12.1795   21.4347 H   0  0  0  0  0  0
  -28.4504  -13.8790   21.7601 H   0  0  0  0  0  0
  -25.2758   -9.5650   22.4794 H   0  0  0  0  0  0
  -23.9983   -7.4590   22.7436 H   0  0  0  0  0  0
  -21.0844   -8.8740   19.8925 H   0  0  0  0  0  0
  -22.3670  -10.9662   19.6189 H   0  0  0  0  0  0
  -21.1991   -7.6136   23.9746 H   0  0  0  0  0  0
  -21.1492   -6.0515   25.9094 H   0  0  0  0  0  0
  -22.0612   -2.7614   23.2847 H   0  0  0  0  0  0
  -22.3958  -11.9890   22.4881 H   0  0  0  0  0  0
  -21.1021  -13.1318   22.2572 H   0  0  0  0  0  0
  -24.6722  -15.8426   20.6453 H   0  0  0  0  0  0
  -26.3013  -15.6238   20.2511 H   0  0  0  0  0  0
  -26.7198  -32.5423   23.1095 H   0  0  0  0  0  0
  -25.0084  -33.9727   25.0408 H   0  0  0  0  0  0
  -22.7215  -31.3031   21.3978 H   0  0  0  0  0  0
  -23.3768  -35.9601   23.3297 H   0  0  0  0  0  0
  -24.3587  -36.8908   22.2059 H   0  0  0  0  0  0
  -23.7230  -37.6471   23.6671 H   0  0  0  0  0  0
  -26.1118  -31.5419   20.6158 H   0  0  0  0  0  0
  -26.8477  -30.8207   22.0139 H   0  0  0  0  0  0
  -28.1184  -28.9439   21.2049 H   0  0  0  0  0  0
  -25.9494  -25.9330   18.9747 H   0  0  0  0  0  0
  -23.9710  -27.3157   19.0032 H   0  0  0  0  0  0
  -23.7589  -30.5909   19.4021 H   0  0  0  0  0  0
  -22.7619  -29.2424   19.8581 H   0  0  0  0  0  0
  -25.1306  -36.1928   25.0815 H   0  0  0  0  0  0
  -20.9987  -28.3268   24.1389 H   0  0  0  0  0  0
  -20.5681  -26.2307   23.3612 H   0  0  0  0  0  0
  -21.6650  -26.7437   22.1202 H   0  0  0  0  0  0
  -19.6922  -25.6282   21.1246 H   0  0  0  0  0  0
  -19.6694  -27.3181   20.6735 H   0  0  0  0  0  0
  -17.4207  -26.6677   21.4015 H   0  0  0  0  0  0
  -18.0334  -26.0063   22.9014 H   0  0  0  0  0  0
  -19.7949  -30.7283   24.2227 H   0  0  0  0  0  0
  -17.5025  -31.6269   24.5158 H   0  0  0  0  0  0
  -15.5359  -30.2973   23.7674 H   0  0  0  0  0  0
  -15.8679  -28.0813   22.7070 H   0  0  0  0  0  0
  -24.5911  -30.7060   25.7770 H   0  0  0  0  0  0
  -24.8889  -32.2906   26.4837 H   0  0  0  0  0  0
  -25.8035  -30.8943   27.0237 H   0  0  0  0  0  0
  -26.2930  -29.6742   24.1232 H   0  0  0  0  0  0
  -27.4010  -29.7267   25.4746 H   0  0  0  0  0  0
  -27.8822  -30.4270   23.9477 H   0  0  0  0  0  0
  -27.2668  -33.3649   26.2040 H   0  0  0  0  0  0
  -28.3877  -32.6857   25.0320 H   0  0  0  0  0  0
  -28.0707  -31.8469   26.5432 H   0  0  0  0  0  0
  -28.2597  -38.0097   24.7523 H   0  0  0  0  0  0
  -28.1080  -36.2625   24.6283 H   0  0  0  0  0  0
  -27.2297  -37.1428   25.8869 H   0  0  0  0  0  0
  -20.9384  -29.8767   21.6864 H   0  0  0  0  0  0
  -26.0174  -38.2847   24.1411 H   0  0  0  0  0  0
  -27.3839  -16.4500   19.4244 H   0  0  0  0  0  0
  -28.1378  -17.9024   18.7024 H   0  0  0  0  0  0
  -30.1602  -16.6748   18.0642 H   0  0  0  0  0  0
  -28.9980  -15.3010   18.0361 H   0  0  0  0  0  0
  -28.6419  -16.9309   21.4119 H   0  0  0  0  0  0
  -33.2204  -24.4033   20.8331 H   0  0  0  0  0  0
  -33.5632  -22.7081   20.6397 H   0  0  0  0  0  0
  -33.0727  -23.3625   22.2084 H   0  0  0  0  0  0
  -32.0182  -25.3146   19.3616 H   0  0  0  0  0  0
  -31.3124  -26.0584   20.8116 H   0  0  0  0  0  0
  -30.4509  -25.9755   19.2632 H   0  0  0  0  0  0
  -32.8388  -21.1536   22.1488 H   0  0  0  0  0  0
  -32.3422  -20.0690   20.8834 H   0  0  0  0  0  0
  -31.5258  -20.1147   22.4592 H   0  0  0  0  0  0
  -27.0453  -22.7829   18.9653 H   0  0  0  0  0  0
  -26.6295  -22.0114   20.4871 H   0  0  0  0  0  0
  -27.4186  -21.1271   19.1497 H   0  0  0  0  0  0
  -27.2461  -20.3946   21.8888 H   0  0  0  0  0  0
  -27.4943  -18.6902   21.9222 H   0  0  0  0  0  0
  -27.1418  -19.4397   20.3916 H   0  0  0  0  0  0
  -27.1974  -24.6603   20.3306 H   0  0  0  0  0  0
  -27.9516  -24.9026   18.7621 H   0  0  0  0  0  0
  -30.2766  -18.7627   19.4987 H   0  0  0  0  0  0
  -30.9188  -18.3572   21.0475 H   0  0  0  0  0  0
  -29.4824  -19.7641   22.1683 H   0  0  0  0  0  0
  1 25  1  0  0  0
  1 30  2  0  0  0
  1 88  1  0  0  0
  2  3  1  0  0  0
  2 25  1  0  0  0
  2 89  1  0  0  0
  2 90  1  0  0  0
  3  4  1  0  0  0
  3 91  1  0  0  0
  3 92  1  0  0  0
  4  5  1  0  0  0
  4 93  1  0  0  0
  4 94  1  0  0  0
  5  6  1  0  0  0
  5 26  1  0  0  0
  5 95  1  0  0  0
  6 25  1  0  0  0
  6 96  1  0  0  0
  6 97  1  0  0  0
  7  8  2  0  0  0
  7 26  1  0  0  0
  7 29  1  0  0  0
  8  9  1  0  0  0
  8 22  1  0  0  0
  9 10  1  0  0  0
  9 27  2  0  0  0
 10 11  2  0  0  0
 10 15  1  0  0  0
 11 12  1  0  0  0
 11 98  1  0  0  0
 12 13  2  0  0  0
 12 99  1  0  0  0
 13 14  1  0  0  0
 13 31  1  0  0  0
 14 15  2  0  0  0
 14100  1  0  0  0
 15101  1  0  0  0
 16 17  2  0  0  0
 16 21  1  0  0  0
 16 31  1  0  0  0
 17 18  1  0  0  0
 17102  1  0  0  0
 18 19  2  0  0  0
 18103  1  0  0  0
 19 20  1  0  0  0
 19 24  1  0  0  0
 20 21  2  0  0  0
 20104  1  0  0  0
 21 23  1  0  0  0
 22 28  1  0  0  0
 22 32  2  0  0  0
 26 27  1  0  0  0
 28105  1  0  0  0
 28106  1  0  0  0
 29107  1  0  0  0
 29108  1  0  0  0
 33 34  1  0  0  0
 33 66  1  0  0  0
 33 70  2  0  0  0
 34 36  1  0  0  0
 34 59  1  0  0  0
 34109  1  0  0  0
 35 44  2  0  0  0
 35 45  1  0  0  0
 35 68  1  0  0  0
 36 56  1  0  0  0
 36110  1  0  0  0
 37 39  1  0  0  0
 37 47  1  0  0  0
 37 66  1  0  0  0
 37111  1  0  0  0
 38 43  2  0  0  0
 38 46  1  0  0  0
 38 47  1  0  0  0
 39 64  1  0  0  0
 39 67  2  0  0  0
 40 52  1  0  0  0
 40 53  2  0  0  0
 40 58  1  0  0  0
 41112  1  0  0  0
 41113  1  0  0  0
 41114  1  0  0  0
 41 48  1  0  0  0
 42 43  1  0  0  0
 42 66  1  0  0  0
 42115  1  0  0  0
 42116  1  0  0  0
 43 44  1  0  0  0
 44117  1  0  0  0
 45 46  2  0  0  0
 45118  1  0  0  0
 46119  1  0  0  0
 47120  1  0  0  0
 47121  1  0  0  0
 48 56  1  0  0  0
 48 65  1  0  0  0
 48122  1  0  0  0
 49 50  1  0  0  0
 49 53  1  0  0  0
 49 64  1  0  0  0
 49123  1  0  0  0
 50 51  1  0  0  0
 50124  1  0  0  0
 50125  1  0  0  0
 51 52  1  0  0  0
 51126  1  0  0  0
 51127  1  0  0  0
 52128  1  0  0  0
 52129  1  0  0  0
 53 54  1  0  0  0
 54 55  2  0  0  0
 54130  1  0  0  0
 55 57  1  0  0  0
 55131  1  0  0  0
 56 69  2  0  0  0
 57 58  2  0  0  0
 57132  1  0  0  0
 58133  1  0  0  0
 59 60  1  0  0  0
 59 61  1  0  0  0
 59 62  1  0  0  0
 60134  1  0  0  0
 60135  1  0  0  0
 60136  1  0  0  0
 61137  1  0  0  0
 61138  1  0  0  0
 61139  1  0  0  0
 62140  1  0  0  0
 62141  1  0  0  0
 62142  1  0  0  0
 63 65  1  0  0  0
 63143  1  0  0  0
 63144  1  0  0  0
 63145  1  0  0  0
 64146  1  0  0  0
 65147  1  0  0  0
 68 85  1  0  0  0
 71 72  2  0  0  0
 71 73  1  0  0  0
 71 80  1  0  0  0
 72 75  1  0  0  0
 72 81  1  0  0  0
 73 76  2  0  0  0
 73 82  1  0  0  0
 74 75  2  0  0  0
 74 76  1  0  0  0
 74 83  1  0  0  0
 75 85  1  0  0  0
 76 87  1  0  0  0
 77 78  1  0  0  0
 77 79  1  0  0  0
 77148  1  0  0  0
 77149  1  0  0  0
 78 88  1  0  0  0
 78150  1  0  0  0
 78151  1  0  0  0
 79 86  1  0  0  0
 79 88  1  0  0  0
 79152  1  0  0  0
 80153  1  0  0  0
 80154  1  0  0  0
 80155  1  0  0  0
 81156  1  0  0  0
 81157  1  0  0  0
 81158  1  0  0  0
 82159  1  0  0  0
 82160  1  0  0  0
 82161  1  0  0  0
 83162  1  0  0  0
 83163  1  0  0  0
 83164  1  0  0  0
 84165  1  0  0  0
 84166  1  0  0  0
 84167  1  0  0  0
 84 87  1  0  0  0
 85168  1  0  0  0
 85169  1  0  0  0
 86 87  1  0  0  0
 86170  1  0  0  0
 86171  1  0  0  0
 87172  1  0  0  0
M  ISO  4   1 100  68 101  85 101  88 100
M  END
> <chiral flag>
0

> <version>
0

> <s_m_source_file>
/data/baiqing/PycharmProjects/Reinvent-master-3.2/result/LINK_invent/BTK/process_docking_weight1_custom_sum_contain_oxygen_bond_distance_aromatic_linkinvent_7_9_3/rearranged_h_0161.sdf

> <i_m_source_file_index>
2

> <r_mmod_Potential_Energy-OPLS-2005>
478.476104736328

> <r_mmod_Stretch_Energy-OPLS-2005>
135.957397460938

> <r_mmod_Bend_Energy-OPLS-2005>
224.164566040039

> <r_mmod_Torsional_Energy-OPLS-2005>
357.388488769531

> <r_mmod_Improper_Torsional_Energy-OPLS-2005>
20.2979507446289

> <r_mmod_Van_der_Waal_Energy-OPLS-2005>
180.388748168945

> <r_mmod_Electrostatic_Energy-OPLS-2005>
-326.571258544922

> <r_mmod_Solvation_Energy-OPLS-2005>
-198.055267333984

> <b_mmod_Minimization_Converged-OPLS-2005>
0

> <r_mmod_RMS_Derivative-OPLS-2005>
2.70613145828247

$$$$
2
                    3D
 Structure written by MMmdl.
175184  0  0  1  0            999 V2000
  -30.7371  -14.7093   20.4660 C   0  0  0  0  0  0
  -30.4067  -12.4366   19.4957 C   0  0  0  0  0  0
  -29.5100  -12.5277   18.2431 C   0  0  0  0  0  0
  -28.0421  -12.3438   18.6597 C   0  0  0  0  0  0
  -27.6498  -13.2471   19.8574 C   0  0  2  0  0  0
  -28.6967  -13.2215   21.0021 C   0  0  0  0  0  0
  -25.2590  -13.8284   20.5878 C   0  0  0  0  0  0
  -24.1788  -13.0506   20.9193 C   0  0  0  0  0  0
  -24.6367  -11.6986   20.8688 C   0  0  0  0  0  0
  -23.9011  -10.4366   21.0328 C   0  0  0  0  0  0
  -24.3577   -9.4322   21.9133 C   0  0  0  0  0  0
  -23.6313   -8.2332   22.0737 C   0  0  0  0  0  0
  -22.4279   -8.0324   21.3561 C   0  0  0  0  0  0
  -21.9880   -9.0269   20.4628 C   0  0  0  0  0  0
  -22.7172  -10.2174   20.3026 C   0  0  0  0  0  0
  -21.6856   -6.0734   22.5274 C   0  0  0  0  0  0
  -21.4023   -6.5634   23.8207 C   0  0  0  0  0  0
  -21.3692   -5.6770   24.9173 C   0  0  0  0  0  0
  -21.6079   -4.3044   24.7195 C   0  0  0  0  0  0
  -21.8816   -3.8132   23.4310 C   0  0  0  0  0  0
  -21.9205   -4.6972   22.3375 C   0  0  0  0  0  0
  -22.7828  -13.5341   21.1748 C   0  0  0  0  0  0
  -22.1640   -4.2162   21.0951 F   0  0  0  0  0  0
  -21.5668   -3.4535   25.7700 F   0  0  0  0  0  0
  -30.0130  -13.5290   20.4248 N   0  0  0  0  0  0
  -26.2974  -12.9497   20.3391 N   0  0  0  0  0  0
  -25.9311  -11.6609   20.5721 N   0  0  0  0  0  0
  -22.0338  -12.8432   22.0309 N   0  0  0  0  0  0
  -25.4511  -15.1969   20.4620 N   0  0  0  0  0  0
  -31.8542  -14.7233   19.9431 O   0  0  0  0  0  0
  -21.6667   -6.8912   21.4252 O   0  0  0  0  0  0
  -22.3599  -14.5656   20.6564 O   0  0  0  0  0  0
  -24.6297  -31.8524   23.1918 C   0  0  0  0  0  0
  -25.9087  -32.4796   23.8268 C   0  0  1  0  0  0
  -27.2569  -27.2579   20.1200 C   0  0  0  0  0  0
  -25.5845  -33.8605   24.2144 N   0  0  0  0  0  0
  -23.4395  -30.4698   21.5331 C   0  0  2  0  0  0
  -24.8978  -28.9158   20.1094 C   0  0  0  0  0  0
  -22.7561  -29.4535   22.4828 C   0  0  0  0  0  0
  -18.0255  -28.1510   22.8491 C   0  0  0  0  0  0
  -24.1511  -36.7303   23.2650 C   0  0  0  0  0  0
  -25.9923  -30.7546   21.3895 C   0  0  0  0  0  0
  -26.0691  -29.3798   20.7242 C   0  0  0  0  0  0
  -27.2488  -28.5669   20.7152 C   0  0  0  0  0  0
  -26.0522  -26.8556   19.4942 C   0  0  0  0  0  0
  -24.8979  -27.6605   19.4803 C   0  0  0  0  0  0
  -23.6730  -29.8072   20.1519 C   0  0  0  0  0  0
  -25.4178  -36.3108   24.0298 C   0  0  1  0  0  0
  -20.5890  -28.3783   23.1289 C   0  0  2  0  0  0
  -20.6765  -26.9486   22.5439 C   0  0  0  0  0  0
  -19.5720  -26.6471   21.5266 C   0  0  0  0  0  0
  -18.1891  -26.8040   22.1672 C   0  0  0  0  0  0
  -19.1526  -28.8958   23.2886 C   0  0  0  0  0  0
  -18.9440  -30.1567   23.8904 C   0  0  0  0  0  0
  -17.6427  -30.6661   24.0613 C   0  0  0  0  0  0
  -25.9114  -34.9486   23.5061 C   0  0  0  0  0  0
  -16.5318  -29.9165   23.6345 C   0  0  0  0  0  0
  -16.7232  -28.6629   23.0293 C   0  0  0  0  0  0
  -26.4543  -31.6658   25.0660 C   0  0  0  0  0  0
  -25.3768  -31.3779   26.1359 C   0  0  0  0  0  0
  -27.0450  -30.3059   24.6240 C   0  0  0  0  0  0
  -27.6086  -32.4480   25.7380 C   0  0  0  0  0  0
  -27.5628  -37.1808   24.8458 C   0  0  0  0  0  0
  -21.4245  -29.3131   22.3684 N   0  0  0  0  0  0
  -26.4358  -37.3804   23.9385 N   0  0  0  0  0  0
  -24.7048  -31.0450   22.0937 N   0  0  0  0  0  0
  -23.4229  -28.8007   23.2877 O   0  0  0  0  0  0
  -28.3778  -26.3870   20.1509 O   0  0  0  0  0  0
  -26.5744  -34.8969   22.4664 O   0  0  0  0  0  0
  -23.5437  -32.1293   23.7219 O   0  0  0  0  0  0
  -29.3807  -19.8128   21.2215 C   0  0  0  0  0  0
  -28.4875  -19.8823   22.3289 C   0  0  0  0  0  0
  -29.5709  -21.0614   20.4770 C   0  0  0  0  0  0
  -27.9735  -21.1345   22.7645 C   0  0  0  0  0  0
  -28.3467  -22.3602   22.1510 C   0  0  0  0  0  0
  -29.0622  -22.3674   20.9226 C   0  0  0  0  0  0
  -31.0772  -18.0215   22.1424 C   0  0  0  0  0  0
  -30.2036  -18.4507   20.9579 C   0  0  1  0  0  0
  -31.2876  -16.4878   22.0352 C   0  0  1  0  0  0
  -29.5327  -17.0629   20.5263 C   0  0  1  0  0  0
  -28.0718  -18.6313   23.1253 C   0  0  0  0  0  0
  -30.3868  -20.9769   19.1948 C   0  0  0  0  0  0
  -27.0239  -21.1487   23.9647 C   0  0  0  0  0  0
  -28.0294  -23.6658   22.8950 C   0  0  0  0  0  0
  -31.3159  -15.7667   23.3959 C   0  0  0  0  0  0
  -29.3580  -17.0410   18.9952 C   0  0  0  0  0  0
  -29.3633  -23.8008   20.2418 C   0  0  0  0  0  0
  -28.1897  -24.9040   19.9653 C   0  0  0  0  0  0
  -30.2976  -15.8695   21.1062 N   0  0  0  0  0  0
  -31.4626  -12.4610   19.2248 H   0  0  0  0  0  0
  -30.2697  -11.4620   19.9718 H   0  0  0  0  0  0
  -29.7890  -11.7561   17.5242 H   0  0  0  0  0  0
  -29.6508  -13.4879   17.7404 H   0  0  0  0  0  0
  -27.9130  -11.2935   18.9346 H   0  0  0  0  0  0
  -27.3821  -12.5266   17.8082 H   0  0  0  0  0  0
  -27.6404  -14.2609   19.4588 H   0  0  0  0  0  0
  -28.7183  -12.2429   21.4823 H   0  0  0  0  0  0
  -28.4381  -13.9438   21.7819 H   0  0  0  0  0  0
  -25.2726   -9.5862   22.4686 H   0  0  0  0  0  0
  -24.0069   -7.4759   22.7420 H   0  0  0  0  0  0
  -21.0827   -8.8738   19.8904 H   0  0  0  0  0  0
  -22.3607  -10.9680   19.6131 H   0  0  0  0  0  0
  -21.1983   -7.6139   23.9738 H   0  0  0  0  0  0
  -21.1509   -6.0471   25.9081 H   0  0  0  0  0  0
  -22.0558   -2.7593   23.2777 H   0  0  0  0  0  0
  -22.3874  -12.0285   22.5080 H   0  0  0  0  0  0
  -21.0916  -13.1547   22.2227 H   0  0  0  0  0  0
  -24.7379  -15.8832   20.6843 H   0  0  0  0  0  0
  -26.3743  -15.5950   20.3482 H   0  0  0  0  0  0
  -26.7108  -32.5428   23.0973 H   0  0  0  0  0  0
  -24.9744  -33.9724   25.0098 H   0  0  0  0  0  0
  -22.7371  -31.2916   21.3805 H   0  0  0  0  0  0
  -23.3815  -35.9595   23.3326 H   0  0  0  0  0  0
  -24.3543  -36.8929   22.2057 H   0  0  0  0  0  0
  -23.7224  -37.6488   23.6685 H   0  0  0  0  0  0
  -26.1496  -31.5178   20.6281 H   0  0  0  0  0  0
  -26.8660  -30.7956   22.0280 H   0  0  0  0  0  0
  -28.1520  -28.9253   21.1933 H   0  0  0  0  0  0
  -25.9760  -25.8948   19.0078 H   0  0  0  0  0  0
  -24.0089  -27.2939   18.9859 H   0  0  0  0  0  0
  -23.8242  -30.5868   19.4076 H   0  0  0  0  0  0
  -22.7941  -29.2536   19.8176 H   0  0  0  0  0  0
  -25.1385  -36.1983   25.0803 H   0  0  0  0  0  0
  -20.9963  -28.3375   24.1433 H   0  0  0  0  0  0
  -20.5696  -26.2370   23.3639 H   0  0  0  0  0  0
  -21.6623  -26.7543   22.1211 H   0  0  0  0  0  0
  -19.6832  -25.6381   21.1268 H   0  0  0  0  0  0
  -19.6627  -27.3344   20.6853 H   0  0  0  0  0  0
  -17.4157  -26.6807   21.4074 H   0  0  0  0  0  0
  -18.0264  -26.0221   22.9124 H   0  0  0  0  0  0
  -19.7911  -30.7432   24.2247 H   0  0  0  0  0  0
  -17.4973  -31.6322   24.5300 H   0  0  0  0  0  0
  -15.5333  -30.3089   23.7692 H   0  0  0  0  0  0
  -15.8644  -28.1019   22.6897 H   0  0  0  0  0  0
  -24.5976  -30.7115   25.7648 H   0  0  0  0  0  0
  -24.8917  -32.2939   26.4740 H   0  0  0  0  0  0
  -25.8085  -30.8957   27.0133 H   0  0  0  0  0  0
  -26.3116  -29.6788   24.1174 H   0  0  0  0  0  0
  -27.3981  -29.7354   25.4840 H   0  0  0  0  0  0
  -27.9046  -30.4305   23.9656 H   0  0  0  0  0  0
  -27.2676  -33.3812   26.1879 H   0  0  0  0  0  0
  -28.3857  -32.7033   25.0159 H   0  0  0  0  0  0
  -28.0820  -31.8669   26.5292 H   0  0  0  0  0  0
  -28.2662  -38.0109   24.7601 H   0  0  0  0  0  0
  -28.1141  -36.2648   24.6257 H   0  0  0  0  0  0
  -27.2299  -37.1400   25.8844 H   0  0  0  0  0  0
  -20.9379  -29.8966   21.7015 H   0  0  0  0  0  0
  -26.0252  -38.2894   24.1382 H   0  0  0  0  0  0
  -30.6332  -18.2670   23.1006 H   0  0  0  0  0  0
  -32.0261  -18.5594   22.1440 H   0  0  0  0  0  0
  -30.9419  -18.6615   20.1845 H   0  0  0  0  0  0
  -32.2941  -16.3960   21.6173 H   0  0  0  0  0  0
  -28.5284  -16.9965   20.9393 H   0  0  0  0  0  0
  -28.6084  -17.7097   22.9262 H   0  0  0  0  0  0
  -27.0157  -18.4191   22.9540 H   0  0  0  0  0  0
  -28.2040  -18.7954   24.1937 H   0  0  0  0  0  0
  -30.2557  -20.0239   18.6852 H   0  0  0  0  0  0
  -31.4433  -21.0920   19.4303 H   0  0  0  0  0  0
  -30.0952  -21.7157   18.4556 H   0  0  0  0  0  0
  -26.3375  -20.3041   23.9301 H   0  0  0  0  0  0
  -26.3841  -22.0258   24.0035 H   0  0  0  0  0  0
  -27.5841  -21.0835   24.8998 H   0  0  0  0  0  0
  -26.9625  -23.8685   22.9650 H   0  0  0  0  0  0
  -28.5003  -24.5616   22.4912 H   0  0  0  0  0  0
  -28.4280  -23.5922   23.9080 H   0  0  0  0  0  0
  -30.3176  -15.5013   23.7352 H   0  0  0  0  0  0
  -31.7751  -16.3862   24.1703 H   0  0  0  0  0  0
  -31.8976  -14.8457   23.3443 H   0  0  0  0  0  0
  -30.3176  -17.0035   18.4764 H   0  0  0  0  0  0
  -28.8491  -17.9525   18.6742 H   0  0  0  0  0  0
  -28.7461  -16.2107   18.6467 H   0  0  0  0  0  0
  -29.8734  -23.6511   19.2917 H   0  0  0  0  0  0
  -30.1371  -24.2760   20.8484 H   0  0  0  0  0  0
  -27.3203  -24.6189   20.5529 H   0  0  0  0  0  0
  -27.8783  -24.7514   18.9324 H   0  0  0  0  0  0
  1 25  1  0  0  0
  1 30  2  0  0  0
  1 89  1  0  0  0
  2  3  1  0  0  0
  2 25  1  0  0  0
  2 90  1  0  0  0
  2 91  1  0  0  0
  3  4  1  0  0  0
  3 92  1  0  0  0
  3 93  1  0  0  0
  4  5  1  0  0  0
  4 94  1  0  0  0
  4 95  1  0  0  0
  5  6  1  0  0  0
  5 26  1  0  0  0
  5 96  1  0  0  0
  6 25  1  0  0  0
  6 97  1  0  0  0
  6 98  1  0  0  0
  7  8  2  0  0  0
  7 26  1  0  0  0
  7 29  1  0  0  0
  8  9  1  0  0  0
  8 22  1  0  0  0
  9 10  1  0  0  0
  9 27  2  0  0  0
 10 11  2  0  0  0
 10 15  1  0  0  0
 11 12  1  0  0  0
 11 99  1  0  0  0
 12 13  2  0  0  0
 12100  1  0  0  0
 13 14  1  0  0  0
 13 31  1  0  0  0
 14 15  2  0  0  0
 14101  1  0  0  0
 15102  1  0  0  0
 16 17  2  0  0  0
 16 21  1  0  0  0
 16 31  1  0  0  0
 17 18  1  0  0  0
 17103  1  0  0  0
 18 19  2  0  0  0
 18104  1  0  0  0
 19 20  1  0  0  0
 19 24  1  0  0  0
 20 21  2  0  0  0
 20105  1  0  0  0
 21 23  1  0  0  0
 22 28  1  0  0  0
 22 32  2  0  0  0
 26 27  1  0  0  0
 28106  1  0  0  0
 28107  1  0  0  0
 29108  1  0  0  0
 29109  1  0  0  0
 33 34  1  0  0  0
 33 66  1  0  0  0
 33 70  2  0  0  0
 34 36  1  0  0  0
 34 59  1  0  0  0
 34110  1  0  0  0
 35 44  2  0  0  0
 35 45  1  0  0  0
 35 68  1  0  0  0
 36 56  1  0  0  0
 36111  1  0  0  0
 37 39  1  0  0  0
 37 47  1  0  0  0
 37 66  1  0  0  0
 37112  1  0  0  0
 38 43  2  0  0  0
 38 46  1  0  0  0
 38 47  1  0  0  0
 39 64  1  0  0  0
 39 67  2  0  0  0
 40 52  1  0  0  0
 40 53  2  0  0  0
 40 58  1  0  0  0
 41113  1  0  0  0
 41114  1  0  0  0
 41115  1  0  0  0
 41 48  1  0  0  0
 42 43  1  0  0  0
 42 66  1  0  0  0
 42116  1  0  0  0
 42117  1  0  0  0
 43 44  1  0  0  0
 44118  1  0  0  0
 45 46  2  0  0  0
 45119  1  0  0  0
 46120  1  0  0  0
 47121  1  0  0  0
 47122  1  0  0  0
 48 56  1  0  0  0
 48 65  1  0  0  0
 48123  1  0  0  0
 49 50  1  0  0  0
 49 53  1  0  0  0
 49 64  1  0  0  0
 49124  1  0  0  0
 50 51  1  0  0  0
 50125  1  0  0  0
 50126  1  0  0  0
 51 52  1  0  0  0
 51127  1  0  0  0
 51128  1  0  0  0
 52129  1  0  0  0
 52130  1  0  0  0
 53 54  1  0  0  0
 54 55  2  0  0  0
 54131  1  0  0  0
 55 57  1  0  0  0
 55132  1  0  0  0
 56 69  2  0  0  0
 57 58  2  0  0  0
 57133  1  0  0  0
 58134  1  0  0  0
 59 60  1  0  0  0
 59 61  1  0  0  0
 59 62  1  0  0  0
 60135  1  0  0  0
 60136  1  0  0  0
 60137  1  0  0  0
 61138  1  0  0  0
 61139  1  0  0  0
 61140  1  0  0  0
 62141  1  0  0  0
 62142  1  0  0  0
 62143  1  0  0  0
 63 65  1  0  0  0
 63144  1  0  0  0
 63145  1  0  0  0
 63146  1  0  0  0
 64147  1  0  0  0
 65148  1  0  0  0
 68 88  1  0  0  0
 71 72  2  0  0  0
 71 73  1  0  0  0
 71 78  1  0  0  0
 72 74  1  0  0  0
 72 81  1  0  0  0
 73 76  2  0  0  0
 73 82  1  0  0  0
 74 75  2  0  0  0
 74 83  1  0  0  0
 75 76  1  0  0  0
 75 84  1  0  0  0
 76 87  1  0  0  0
 77 78  1  0  0  0
 77 79  1  0  0  0
 77149  1  0  0  0
 77150  1  0  0  0
 78 80  1  0  0  0
 78151  1  0  0  0
 79 85  1  0  0  0
 79 89  1  0  0  0
 79152  1  0  0  0
 80 86  1  0  0  0
 80 89  1  0  0  0
 80153  1  0  0  0
 81154  1  0  0  0
 81155  1  0  0  0
 81156  1  0  0  0
 82157  1  0  0  0
 82158  1  0  0  0
 82159  1  0  0  0
 83160  1  0  0  0
 83161  1  0  0  0
 83162  1  0  0  0
 84163  1  0  0  0
 84164  1  0  0  0
 84165  1  0  0  0
 85166  1  0  0  0
 85167  1  0  0  0
 85168  1  0  0  0
 86169  1  0  0  0
 86170  1  0  0  0
 86171  1  0  0  0
 87 88  1  0  0  0
 87172  1  0  0  0
 87173  1  0  0  0
 88174  1  0  0  0
 88175  1  0  0  0
M  ISO  4   1 100  68 101  88 101  89 100
M  END
> <chiral flag>
0

> <version>
0

> <s_m_source_file>
/data/baiqing/PycharmProjects/Reinvent-master-3.2/result/LINK_invent/BTK/process_docking_weight1_custom_sum_contain_oxygen_bond_distance_aromatic_linkinvent_7_9_3/rearranged_h_0161.sdf

> <i_m_source_file_index>
3

> <r_mmod_Potential_Energy-OPLS-2005>
514.618591308594

> <r_mmod_Stretch_Energy-OPLS-2005>
153.222366333008

> <r_mmod_Bend_Energy-OPLS-2005>
222.479446411133

> <r_mmod_Torsional_Energy-OPLS-2005>
372.400970458984

> <r_mmod_Improper_Torsional_Energy-OPLS-2005>
7.26096296310425

> <r_mmod_Van_der_Waal_Energy-OPLS-2005>
168.942337036133

> <r_mmod_Electrostatic_Energy-OPLS-2005>
-307.300170898438

> <r_mmod_Solvation_Energy-OPLS-2005>
-184.050659179688

> <b_mmod_Minimization_Converged-OPLS-2005>
0

> <r_mmod_RMS_Derivative-OPLS-2005>
8.0124568939209

$$$$
3
                    3D
 Structure written by MMmdl.
169178  0  0  1  0            999 V2000
  -30.6960  -14.5123   20.5971 C   0  0  0  0  0  0
  -30.4238  -12.3430   19.4235 C   0  0  0  0  0  0
  -29.4922  -12.5128   18.2068 C   0  0  0  0  0  0
  -28.0171  -12.3577   18.6249 C   0  0  0  0  0  0
  -27.6567  -13.2099   19.8712 C   0  0  2  0  0  0
  -28.6995  -13.0130   20.9932 C   0  0  0  0  0  0
  -25.2572  -13.8162   20.5680 C   0  0  0  0  0  0
  -24.1828  -13.0437   20.9180 C   0  0  0  0  0  0
  -24.6384  -11.6901   20.8748 C   0  0  0  0  0  0
  -23.9050  -10.4286   21.0401 C   0  0  0  0  0  0
  -24.3603   -9.4209   21.9184 C   0  0  0  0  0  0
  -23.6279   -8.2247   22.0757 C   0  0  0  0  0  0
  -22.4267   -8.0277   21.3542 C   0  0  0  0  0  0
  -21.9902   -9.0250   20.4645 C   0  0  0  0  0  0
  -22.7225  -10.2129   20.3050 C   0  0  0  0  0  0
  -21.6844   -6.0733   22.5280 C   0  0  0  0  0  0
  -21.4011   -6.5637   23.8215 C   0  0  0  0  0  0
  -21.3663   -5.6790   24.9176 C   0  0  0  0  0  0
  -21.6042   -4.3050   24.7228 C   0  0  0  0  0  0
  -21.8819   -3.8144   23.4349 C   0  0  0  0  0  0
  -21.9192   -4.6961   22.3403 C   0  0  0  0  0  0
  -22.7850  -13.5229   21.1851 C   0  0  0  0  0  0
  -22.1656   -4.2144   21.0978 F   0  0  0  0  0  0
  -21.5634   -3.4537   25.7740 F   0  0  0  0  0  0
  -30.0204  -13.3384   20.4325 N   0  0  0  0  0  0
  -26.2998  -12.9336   20.3357 N   0  0  0  0  0  0
  -25.9312  -11.6492   20.5774 N   0  0  0  0  0  0
  -22.0499  -12.8207   22.0402 N   0  0  0  0  0  0
  -25.4304  -15.1886   20.4101 N   0  0  0  0  0  0
  -31.8268  -14.6896   20.1362 O   0  0  0  0  0  0
  -21.6630   -6.8876   21.4236 O   0  0  0  0  0  0
  -22.3536  -14.5539   20.6699 O   0  0  0  0  0  0
  -24.6199  -31.8644   23.2103 C   0  0  0  0  0  0
  -25.9067  -32.4801   23.8410 C   0  0  1  0  0  0
  -27.2212  -27.3786   20.1111 C   0  0  0  0  0  0
  -25.5902  -33.8601   24.2323 N   0  0  0  0  0  0
  -23.4099  -30.4887   21.5528 C   0  0  2  0  0  0
  -24.8539  -28.9497   20.1201 C   0  0  0  0  0  0
  -22.7431  -29.4633   22.4991 C   0  0  0  0  0  0
  -18.0266  -28.1376   22.8493 C   0  0  0  0  0  0
  -24.1479  -36.7313   23.2645 C   0  0  0  0  0  0
  -25.9444  -30.8123   21.3729 C   0  0  0  0  0  0
  -26.0188  -29.4417   20.7224 C   0  0  0  0  0  0
  -27.2078  -28.6643   20.7134 C   0  0  0  0  0  0
  -26.0421  -26.9274   19.4812 C   0  0  0  0  0  0
  -24.8617  -27.6923   19.4961 C   0  0  0  0  0  0
  -23.6211  -29.8250   20.1671 C   0  0  0  0  0  0
  -25.4103  -36.3102   24.0332 C   0  0  1  0  0  0
  -20.5861  -28.3668   23.1314 C   0  0  2  0  0  0
  -20.6759  -26.9403   22.5415 C   0  0  0  0  0  0
  -19.5744  -26.6394   21.5208 C   0  0  0  0  0  0
  -18.1919  -26.7926   22.1619 C   0  0  0  0  0  0
  -19.1520  -28.8839   23.2896 C   0  0  0  0  0  0
  -18.9456  -30.1439   23.8913 C   0  0  0  0  0  0
  -17.6460  -30.6585   24.0562 C   0  0  0  0  0  0
  -25.9033  -34.9462   23.5127 C   0  0  0  0  0  0
  -16.5344  -29.9086   23.6330 C   0  0  0  0  0  0
  -16.7254  -28.6494   23.0363 C   0  0  0  0  0  0
  -26.4485  -31.6593   25.0754 C   0  0  0  0  0  0
  -25.3744  -31.3653   26.1490 C   0  0  0  0  0  0
  -27.0356  -30.3047   24.6155 C   0  0  0  0  0  0
  -27.6054  -32.4333   25.7523 C   0  0  0  0  0  0
  -27.5571  -37.1815   24.8465 C   0  0  0  0  0  0
  -21.4152  -29.3035   22.3725 N   0  0  0  0  0  0
  -26.4288  -37.3792   23.9398 N   0  0  0  0  0  0
  -24.6764  -31.0705   22.1030 N   0  0  0  0  0  0
  -23.4176  -28.8173   23.3048 O   0  0  0  0  0  0
  -28.3763  -26.6118   20.0487 O   0  0  0  0  0  0
  -26.5617  -34.8922   22.4701 O   0  0  0  0  0  0
  -23.5375  -32.1424   23.7456 O   0  0  0  0  0  0
  -29.6715  -18.3975   20.1659 C   0  0  0  0  0  0
  -29.4023  -20.8200   20.6523 C   0  0  0  0  0  0
  -29.3113  -19.7070   19.7578 C   0  0  0  0  0  0
  -30.1388  -18.1265   21.4644 C   0  0  0  0  0  0
  -29.8976  -20.5530   21.9674 C   0  0  0  0  0  0
  -30.2344  -19.2201   22.3731 C   0  0  0  0  0  0
  -30.0917  -23.3163   20.0114 C   0  0  0  0  0  0
  -27.7293  -22.8476   20.9134 C   0  0  0  0  0  0
  -29.8750  -24.7413   20.6321 C   0  0  0  0  0  0
  -27.3821  -24.2430   20.3401 C   0  0  0  0  0  0
  -28.9610  -22.2575   20.1941 C   0  0  2  0  0  0
  -28.4285  -25.3210   20.7249 C   0  0  2  0  0  0
  -28.8486  -19.8671   18.3167 C   0  0  0  0  0  0
  -30.0995  -21.6915   22.9663 C   0  0  0  0  0  0
  -30.7081  -18.9384   23.8019 C   0  0  0  0  0  0
  -30.6403  -16.7055   21.8516 C   0  0  0  0  0  0
  -30.0324  -15.5066   21.2304 N   0  0  0  0  0  0
  -31.4661  -12.4548   19.1197 H   0  0  0  0  0  0
  -30.3390  -11.3349   19.8329 H   0  0  0  0  0  0
  -29.7404  -11.7828   17.4356 H   0  0  0  0  0  0
  -29.6477  -13.4968   17.7612 H   0  0  0  0  0  0
  -27.8443  -11.3023   18.8383 H   0  0  0  0  0  0
  -27.3583  -12.6081   17.7922 H   0  0  0  0  0  0
  -27.6943  -14.2550   19.5615 H   0  0  0  0  0  0
  -28.6936  -11.9788   21.3413 H   0  0  0  0  0  0
  -28.4521  -13.6154   21.8681 H   0  0  0  0  0  0
  -25.2740   -9.5693   22.4771 H   0  0  0  0  0  0
  -23.9985   -7.4643   22.7480 H   0  0  0  0  0  0
  -21.0835   -8.8763   19.8951 H   0  0  0  0  0  0
  -22.3677  -10.9666   19.6166 H   0  0  0  0  0  0
  -21.2005   -7.6149   23.9716 H   0  0  0  0  0  0
  -21.1479   -6.0520   25.9079 H   0  0  0  0  0  0
  -22.0600   -2.7607   23.2848 H   0  0  0  0  0  0
  -22.4090  -11.9842   22.4757 H   0  0  0  0  0  0
  -21.1133  -13.1246   22.2635 H   0  0  0  0  0  0
  -24.6686  -15.8487   20.5227 H   0  0  0  0  0  0
  -26.2891  -15.6262   20.1003 H   0  0  0  0  0  0
  -26.7133  -32.5504   23.1166 H   0  0  0  0  0  0
  -25.0003  -33.9753   25.0437 H   0  0  0  0  0  0
  -22.7004  -31.3072   21.4144 H   0  0  0  0  0  0
  -23.3731  -35.9658   23.3315 H   0  0  0  0  0  0
  -24.3571  -36.8940   22.2060 H   0  0  0  0  0  0
  -23.7250  -37.6520   23.6674 H   0  0  0  0  0  0
  -26.0647  -31.5744   20.6022 H   0  0  0  0  0  0
  -26.8290  -30.8644   21.9955 H   0  0  0  0  0  0
  -28.1098  -29.0406   21.1762 H   0  0  0  0  0  0
  -26.0243  -25.9863   18.9545 H   0  0  0  0  0  0
  -23.9703  -27.3149   19.0130 H   0  0  0  0  0  0
  -23.7358  -30.6026   19.4112 H   0  0  0  0  0  0
  -22.7417  -29.2520   19.8691 H   0  0  0  0  0  0
  -25.1279  -36.1962   25.0823 H   0  0  0  0  0  0
  -20.9949  -28.3238   24.1437 H   0  0  0  0  0  0
  -20.5681  -26.2258   23.3593 H   0  0  0  0  0  0
  -21.6629  -26.7459   22.1206 H   0  0  0  0  0  0
  -19.6909  -25.6314   21.1228 H   0  0  0  0  0  0
  -19.6690  -27.3203   20.6734 H   0  0  0  0  0  0
  -17.4194  -26.6669   21.4014 H   0  0  0  0  0  0
  -18.0311  -26.0055   22.9001 H   0  0  0  0  0  0
  -19.7933  -30.7234   24.2311 H   0  0  0  0  0  0
  -17.5021  -31.6273   24.5157 H   0  0  0  0  0  0
  -15.5350  -30.3003   23.7655 H   0  0  0  0  0  0
  -15.8642  -28.0817   22.7100 H   0  0  0  0  0  0
  -24.5959  -30.6958   25.7807 H   0  0  0  0  0  0
  -24.8879  -32.2770   26.4958 H   0  0  0  0  0  0
  -25.8119  -30.8823   27.0236 H   0  0  0  0  0  0
  -26.2916  -29.6765   24.1240 H   0  0  0  0  0  0
  -27.4154  -29.7328   25.4630 H   0  0  0  0  0  0
  -27.8732  -30.4381   23.9306 H   0  0  0  0  0  0
  -27.2673  -33.3642   26.2081 H   0  0  0  0  0  0
  -28.3867  -32.6868   25.0349 H   0  0  0  0  0  0
  -28.0701  -31.8463   26.5453 H   0  0  0  0  0  0
  -28.2590  -38.0112   24.7523 H   0  0  0  0  0  0
  -28.1070  -36.2647   24.6289 H   0  0  0  0  0  0
  -27.2279  -37.1454   25.8865 H   0  0  0  0  0  0
  -20.9315  -29.8752   21.6946 H   0  0  0  0  0  0
  -26.0170  -38.2863   24.1415 H   0  0  0  0  0  0
  -29.6130  -17.5783   19.4609 H   0  0  0  0  0  0
  -31.0335  -22.9140   20.3849 H   0  0  0  0  0  0
  -30.2608  -23.4377   18.9405 H   0  0  0  0  0  0
  -26.8805  -22.1761   20.7737 H   0  0  0  0  0  0
  -27.8788  -22.9209   21.9891 H   0  0  0  0  0  0
  -30.5095  -25.4464   20.0927 H   0  0  0  0  0  0
  -30.2927  -24.7402   21.6399 H   0  0  0  0  0  0
  -26.4005  -24.5338   20.7150 H   0  0  0  0  0  0
  -27.2974  -24.1704   19.2557 H   0  0  0  0  0  0
  -28.5761  -22.1519   19.1836 H   0  0  0  0  0  0
  -28.2556  -25.5455   21.7801 H   0  0  0  0  0  0
  -28.9708  -18.9433   17.7495 H   0  0  0  0  0  0
  -29.4322  -20.6317   17.8020 H   0  0  0  0  0  0
  -27.7937  -20.1395   18.2788 H   0  0  0  0  0  0
  -30.0270  -22.6811   22.5345 H   0  0  0  0  0  0
  -31.0987  -21.6491   23.4014 H   0  0  0  0  0  0
  -29.3612  -21.6332   23.7661 H   0  0  0  0  0  0
  -30.0420  -18.2200   24.2790 H   0  0  0  0  0  0
  -30.7189  -19.7969   24.4681 H   0  0  0  0  0  0
  -31.7176  -18.5271   23.7980 H   0  0  0  0  0  0
  -30.5009  -16.5435   22.9187 H   0  0  0  0  0  0
  -31.7213  -16.7016   21.7048 H   0  0  0  0  0  0
  -29.0828  -15.3007   21.5011 H   0  0  0  0  0  0
  1 25  1  0  0  0
  1 30  2  0  0  0
  1 87  1  0  0  0
  2  3  1  0  0  0
  2 25  1  0  0  0
  2 88  1  0  0  0
  2 89  1  0  0  0
  3  4  1  0  0  0
  3 90  1  0  0  0
  3 91  1  0  0  0
  4  5  1  0  0  0
  4 92  1  0  0  0
  4 93  1  0  0  0
  5  6  1  0  0  0
  5 26  1  0  0  0
  5 94  1  0  0  0
  6 25  1  0  0  0
  6 95  1  0  0  0
  6 96  1  0  0  0
  7  8  2  0  0  0
  7 26  1  0  0  0
  7 29  1  0  0  0
  8  9  1  0  0  0
  8 22  1  0  0  0
  9 10  1  0  0  0
  9 27  2  0  0  0
 10 11  2  0  0  0
 10 15  1  0  0  0
 11 12  1  0  0  0
 11 97  1  0  0  0
 12 13  2  0  0  0
 12 98  1  0  0  0
 13 14  1  0  0  0
 13 31  1  0  0  0
 14 15  2  0  0  0
 14 99  1  0  0  0
 15100  1  0  0  0
 16 17  2  0  0  0
 16 21  1  0  0  0
 16 31  1  0  0  0
 17 18  1  0  0  0
 17101  1  0  0  0
 18 19  2  0  0  0
 18102  1  0  0  0
 19 20  1  0  0  0
 19 24  1  0  0  0
 20 21  2  0  0  0
 20103  1  0  0  0
 21 23  1  0  0  0
 22 28  1  0  0  0
 22 32  2  0  0  0
 26 27  1  0  0  0
 28104  1  0  0  0
 28105  1  0  0  0
 29106  1  0  0  0
 29107  1  0  0  0
 33 34  1  0  0  0
 33 66  1  0  0  0
 33 70  2  0  0  0
 34 36  1  0  0  0
 34 59  1  0  0  0
 34108  1  0  0  0
 35 44  2  0  0  0
 35 45  1  0  0  0
 35 68  1  0  0  0
 36 56  1  0  0  0
 36109  1  0  0  0
 37 39  1  0  0  0
 37 47  1  0  0  0
 37 66  1  0  0  0
 37110  1  0  0  0
 38 43  2  0  0  0
 38 46  1  0  0  0
 38 47  1  0  0  0
 39 64  1  0  0  0
 39 67  2  0  0  0
 40 52  1  0  0  0
 40 53  2  0  0  0
 40 58  1  0  0  0
 41111  1  0  0  0
 41112  1  0  0  0
 41113  1  0  0  0
 41 48  1  0  0  0
 42 43  1  0  0  0
 42 66  1  0  0  0
 42114  1  0  0  0
 42115  1  0  0  0
 43 44  1  0  0  0
 44116  1  0  0  0
 45 46  2  0  0  0
 45117  1  0  0  0
 46118  1  0  0  0
 47119  1  0  0  0
 47120  1  0  0  0
 48 56  1  0  0  0
 48 65  1  0  0  0
 48121  1  0  0  0
 49 50  1  0  0  0
 49 53  1  0  0  0
 49 64  1  0  0  0
 49122  1  0  0  0
 50 51  1  0  0  0
 50123  1  0  0  0
 50124  1  0  0  0
 51 52  1  0  0  0
 51125  1  0  0  0
 51126  1  0  0  0
 52127  1  0  0  0
 52128  1  0  0  0
 53 54  1  0  0  0
 54 55  2  0  0  0
 54129  1  0  0  0
 55 57  1  0  0  0
 55130  1  0  0  0
 56 69  2  0  0  0
 57 58  2  0  0  0
 57131  1  0  0  0
 58132  1  0  0  0
 59 60  1  0  0  0
 59 61  1  0  0  0
 59 62  1  0  0  0
 60133  1  0  0  0
 60134  1  0  0  0
 60135  1  0  0  0
 61136  1  0  0  0
 61137  1  0  0  0
 61138  1  0  0  0
 62139  1  0  0  0
 62140  1  0  0  0
 62141  1  0  0  0
 63 65  1  0  0  0
 63142  1  0  0  0
 63143  1  0  0  0
 63144  1  0  0  0
 64145  1  0  0  0
 65146  1  0  0  0
 68 82  1  0  0  0
 71 73  2  0  0  0
 71 74  1  0  0  0
 71147  1  0  0  0
 72 73  1  0  0  0
 72 75  2  0  0  0
 72 81  1  0  0  0
 73 83  1  0  0  0
 74 76  2  0  0  0
 74 86  1  0  0  0
 75 76  1  0  0  0
 75 84  1  0  0  0
 76 85  1  0  0  0
 77 79  1  0  0  0
 77 81  1  0  0  0
 77148  1  0  0  0
 77149  1  0  0  0
 78 80  1  0  0  0
 78 81  1  0  0  0
 78150  1  0  0  0
 78151  1  0  0  0
 79 82  1  0  0  0
 79152  1  0  0  0
 79153  1  0  0  0
 80 82  1  0  0  0
 80154  1  0  0  0
 80155  1  0  0  0
 81156  1  0  0  0
 82157  1  0  0  0
 83158  1  0  0  0
 83159  1  0  0  0
 83160  1  0  0  0
 84161  1  0  0  0
 84162  1  0  0  0
 84163  1  0  0  0
 85164  1  0  0  0
 85165  1  0  0  0
 85166  1  0  0  0
 86 87  1  0  0  0
 86167  1  0  0  0
 86168  1  0  0  0
 87169  1  0  0  0
M  ISO  4   1 100  68 101  82 101  87 100
M  END
> <chiral flag>
0

> <version>
0

> <s_m_source_file>
/data/baiqing/PycharmProjects/Reinvent-master-3.2/result/LINK_invent/BTK/process_docking_weight1_custom_sum_contain_oxygen_bond_distance_aromatic_linkinvent_7_9_3/rearranged_h_0161.sdf

> <i_m_source_file_index>
4

> <r_mmod_Potential_Energy-OPLS-2005>
4.99606895446777

> <r_mmod_Stretch_Energy-OPLS-2005>
59.1359596252441

> <r_mmod_Bend_Energy-OPLS-2005>
135.684112548828

> <r_mmod_Torsional_Energy-OPLS-2005>
269.965454101562

> <r_mmod_Improper_Torsional_Energy-OPLS-2005>
3.05724143981934

> <r_mmod_Van_der_Waal_Energy-OPLS-2005>
173.680694580078

> <r_mmod_Electrostatic_Energy-OPLS-2005>
-454.160247802734

> <r_mmod_Solvation_Energy-OPLS-2005>
-201.608673095703

> <b_mmod_Minimization_Converged-OPLS-2005>
0

> <r_mmod_RMS_Derivative-OPLS-2005>
1.8588809967041

$$$$
4
                    3D
 Structure written by MMmdl.
160169  0  0  1  0            999 V2000
  -30.6970  -14.5825   20.5373 C   0  0  0  0  0  0
  -30.4274  -12.3712   19.4413 C   0  0  0  0  0  0
  -29.5011  -12.5124   18.2154 C   0  0  0  0  0  0
  -28.0217  -12.3701   18.6237 C   0  0  0  0  0  0
  -27.6566  -13.2279   19.8649 C   0  0  2  0  0  0
  -28.7056  -13.0765   20.9912 C   0  0  0  0  0  0
  -25.2559  -13.8206   20.5663 C   0  0  0  0  0  0
  -24.1836  -13.0447   20.9172 C   0  0  0  0  0  0
  -24.6422  -11.6919   20.8715 C   0  0  0  0  0  0
  -23.9076  -10.4293   21.0385 C   0  0  0  0  0  0
  -24.3620   -9.4212   21.9175 C   0  0  0  0  0  0
  -23.6296   -8.2245   22.0757 C   0  0  0  0  0  0
  -22.4280   -8.0280   21.3545 C   0  0  0  0  0  0
  -21.9918   -9.0249   20.4639 C   0  0  0  0  0  0
  -22.7245  -10.2130   20.3039 C   0  0  0  0  0  0
  -21.6861   -6.0728   22.5273 C   0  0  0  0  0  0
  -21.4012   -6.5628   23.8201 C   0  0  0  0  0  0
  -21.3662   -5.6784   24.9163 C   0  0  0  0  0  0
  -21.6045   -4.3046   24.7216 C   0  0  0  0  0  0
  -21.8825   -3.8139   23.4337 C   0  0  0  0  0  0
  -21.9193   -4.6955   22.3394 C   0  0  0  0  0  0
  -22.7845  -13.5219   21.1828 C   0  0  0  0  0  0
  -22.1662   -4.2130   21.0976 F   0  0  0  0  0  0
  -21.5635   -3.4536   25.7734 F   0  0  0  0  0  0
  -30.0229  -13.3956   20.4225 N   0  0  0  0  0  0
  -26.3023  -12.9414   20.3342 N   0  0  0  0  0  0
  -25.9369  -11.6545   20.5760 N   0  0  0  0  0  0
  -22.0486  -12.8214   22.0381 N   0  0  0  0  0  0
  -25.4286  -15.1925   20.4075 N   0  0  0  0  0  0
  -31.8447  -14.7175   20.1090 O   0  0  0  0  0  0
  -21.6644   -6.8882   21.4238 O   0  0  0  0  0  0
  -22.3515  -14.5510   20.6669 O   0  0  0  0  0  0
  -24.6253  -31.8601   23.2002 C   0  0  0  0  0  0
  -25.9080  -32.4804   23.8345 C   0  0  1  0  0  0
  -27.2416  -27.3476   20.1150 C   0  0  0  0  0  0
  -25.5921  -33.8586   24.2299 N   0  0  0  0  0  0
  -23.4206  -30.4847   21.5384 C   0  0  2  0  0  0
  -24.8719  -28.9414   20.1087 C   0  0  0  0  0  0
  -22.7477  -29.4638   22.4885 C   0  0  0  0  0  0
  -18.0310  -28.1411   22.8485 C   0  0  0  0  0  0
  -24.1476  -36.7257   23.2647 C   0  0  0  0  0  0
  -25.9588  -30.8040   21.3624 C   0  0  0  0  0  0
  -26.0398  -29.4306   20.7103 C   0  0  0  0  0  0
  -27.2292  -28.6450   20.7045 C   0  0  0  0  0  0
  -26.0560  -26.9074   19.4855 C   0  0  0  0  0  0
  -24.8814  -27.6821   19.4886 C   0  0  0  0  0  0
  -23.6358  -29.8154   20.1560 C   0  0  0  0  0  0
  -25.4100  -36.3090   24.0350 C   0  0  1  0  0  0
  -20.5911  -28.3695   23.1271 C   0  0  2  0  0  0
  -20.6790  -26.9425   22.5394 C   0  0  0  0  0  0
  -19.5756  -26.6396   21.5225 C   0  0  0  0  0  0
  -18.1938  -26.7967   22.1612 C   0  0  0  0  0  0
  -19.1560  -28.8861   23.2892 C   0  0  0  0  0  0
  -18.9485  -30.1469   23.8904 C   0  0  0  0  0  0
  -17.6482  -30.6603   24.0563 C   0  0  0  0  0  0
  -25.9037  -34.9461   23.5122 C   0  0  0  0  0  0
  -16.5369  -29.9099   23.6327 C   0  0  0  0  0  0
  -16.7295  -28.6515   23.0348 C   0  0  0  0  0  0
  -26.4492  -31.6605   25.0691 C   0  0  0  0  0  0
  -25.3736  -31.3699   26.1423 C   0  0  0  0  0  0
  -27.0346  -30.3060   24.6058 C   0  0  0  0  0  0
  -27.6072  -32.4318   25.7461 C   0  0  0  0  0  0
  -27.5571  -37.1788   24.8489 C   0  0  0  0  0  0
  -21.4184  -29.3059   22.3645 N   0  0  0  0  0  0
  -26.4275  -37.3792   23.9444 N   0  0  0  0  0  0
  -24.6873  -31.0636   22.0943 N   0  0  0  0  0  0
  -23.4219  -28.8186   23.2960 O   0  0  0  0  0  0
  -28.3409  -26.4804   20.1424 O   0  0  0  0  0  0
  -26.5600  -34.8942   22.4702 O   0  0  0  0  0  0
  -23.5402  -32.1359   23.7337 O   0  0  0  0  0  0
  -30.6038  -22.2063   21.0318 C   0  0  0  0  0  0
  -28.1432  -22.8195   19.9302 C   0  0  0  0  0  0
  -29.8808  -21.1198   20.4676 C   0  0  0  0  0  0
  -30.1125  -23.5427   21.0985 C   0  0  0  0  0  0
  -28.6262  -21.4738   19.8864 C   0  0  0  0  0  0
  -28.8418  -23.8836   20.5643 C   0  0  0  0  0  0
  -30.7457  -18.8292   19.3235 C   0  0  0  0  0  0
  -30.5465  -19.7002   20.5437 C   0  0  2  0  0  0
  -29.9386  -18.2616   20.4782 C   0  0  2  0  0  0
  -30.9490  -24.5732   21.8328 C   0  0  0  0  0  0
  -27.7185  -20.4350   19.2488 C   0  0  0  0  0  0
  -28.0954  -25.2326   20.8856 C   0  0  0  0  0  0
  -30.5197  -17.0405   21.2631 C   0  0  0  0  0  0
  -30.0064  -15.6549   21.0129 N   0  0  0  0  0  0
  -31.4713  -12.4692   19.1389 H   0  0  0  0  0  0
  -30.3381  -11.3754   19.8791 H   0  0  0  0  0  0
  -29.7538  -11.7651   17.4624 H   0  0  0  0  0  0
  -29.6592  -13.4836   17.7431 H   0  0  0  0  0  0
  -27.8352  -11.3166   18.8323 H   0  0  0  0  0  0
  -27.3741  -12.6321   17.7849 H   0  0  0  0  0  0
  -27.6766  -14.2660   19.5303 H   0  0  0  0  0  0
  -28.7093  -12.0560   21.3768 H   0  0  0  0  0  0
  -28.4624  -13.7209   21.8380 H   0  0  0  0  0  0
  -25.2772   -9.5669   22.4738 H   0  0  0  0  0  0
  -23.9989   -7.4638   22.7499 H   0  0  0  0  0  0
  -21.0843   -8.8765   19.8952 H   0  0  0  0  0  0
  -22.3717  -10.9651   19.6124 H   0  0  0  0  0  0
  -21.2004   -7.6136   23.9694 H   0  0  0  0  0  0
  -21.1480   -6.0516   25.9062 H   0  0  0  0  0  0
  -22.0607   -2.7596   23.2843 H   0  0  0  0  0  0
  -22.4118  -11.9859   22.4718 H   0  0  0  0  0  0
  -21.1104  -13.1239   22.2596 H   0  0  0  0  0  0
  -24.6662  -15.8539   20.5053 H   0  0  0  0  0  0
  -26.2841  -15.6230   20.0796 H   0  0  0  0  0  0
  -26.7143  -32.5471   23.1088 H   0  0  0  0  0  0
  -25.0175  -33.9766   25.0513 H   0  0  0  0  0  0
  -22.7148  -31.3041   21.3915 H   0  0  0  0  0  0
  -23.3785  -35.9552   23.3331 H   0  0  0  0  0  0
  -24.3577  -36.8818   22.2064 H   0  0  0  0  0  0
  -23.7194  -37.6450   23.6636 H   0  0  0  0  0  0
  -26.0811  -31.5634   20.5875 H   0  0  0  0  0  0
  -26.8444  -30.8637   21.9821 H   0  0  0  0  0  0
  -28.1277  -29.0194   21.1741 H   0  0  0  0  0  0
  -26.0342  -25.9374   19.0063 H   0  0  0  0  0  0
  -23.9884  -27.2969   19.0146 H   0  0  0  0  0  0
  -23.7461  -30.5862   19.3935 H   0  0  0  0  0  0
  -22.7582  -29.2376   19.8596 H   0  0  0  0  0  0
  -25.1304  -36.1936   25.0844 H   0  0  0  0  0  0
  -21.0033  -28.3255   24.1376 H   0  0  0  0  0  0
  -20.5722  -26.2298   23.3582 H   0  0  0  0  0  0
  -21.6651  -26.7447   22.1174 H   0  0  0  0  0  0
  -19.6903  -25.6330   21.1211 H   0  0  0  0  0  0
  -19.6694  -27.3223   20.6790 H   0  0  0  0  0  0
  -17.4219  -26.6728   21.4009 H   0  0  0  0  0  0
  -18.0284  -26.0135   22.9025 H   0  0  0  0  0  0
  -19.7973  -30.7280   24.2240 H   0  0  0  0  0  0
  -17.5059  -31.6280   24.5181 H   0  0  0  0  0  0
  -15.5385  -30.3006   23.7680 H   0  0  0  0  0  0
  -15.8693  -28.0851   22.7055 H   0  0  0  0  0  0
  -24.5972  -30.6961   25.7770 H   0  0  0  0  0  0
  -24.8870  -32.2846   26.4807 H   0  0  0  0  0  0
  -25.8109  -30.8956   27.0213 H   0  0  0  0  0  0
  -26.2888  -29.6793   24.1139 H   0  0  0  0  0  0
  -27.4227  -29.7305   25.4474 H   0  0  0  0  0  0
  -27.8659  -30.4463   23.9144 H   0  0  0  0  0  0
  -27.2724  -33.3660   26.1978 H   0  0  0  0  0  0
  -28.3927  -32.6761   25.0299 H   0  0  0  0  0  0
  -28.0658  -31.8445   26.5429 H   0  0  0  0  0  0
  -28.2614  -38.0060   24.7579 H   0  0  0  0  0  0
  -28.1052  -36.2619   24.6291 H   0  0  0  0  0  0
  -27.2304  -37.1402   25.8890 H   0  0  0  0  0  0
  -20.9328  -29.8768   21.6871 H   0  0  0  0  0  0
  -26.0152  -38.2862   24.1474 H   0  0  0  0  0  0
  -31.5678  -22.0021   21.4774 H   0  0  0  0  0  0
  -27.1624  -23.0272   19.5301 H   0  0  0  0  0  0
  -31.7425  -18.4226   19.1617 H   0  0  0  0  0  0
  -30.2166  -19.0780   18.4094 H   0  0  0  0  0  0
  -31.4130  -19.7774   21.1974 H   0  0  0  0  0  0
  -28.8581  -18.2269   20.3775 H   0  0  0  0  0  0
  -32.0001  -24.2777   21.8590 H   0  0  0  0  0  0
  -30.6018  -24.6772   22.8618 H   0  0  0  0  0  0
  -30.8912  -25.5466   21.3455 H   0  0  0  0  0  0
  -26.9416  -20.9106   18.6503 H   0  0  0  0  0  0
  -27.2265  -19.8363   20.0169 H   0  0  0  0  0  0
  -28.2473  -19.7681   18.5748 H   0  0  0  0  0  0
  -28.3012  -25.4588   21.9316 H   0  0  0  0  0  0
  -27.0344  -24.9910   20.8888 H   0  0  0  0  0  0
  -30.3519  -17.2335   22.3239 H   0  0  0  0  0  0
  -31.6067  -17.0476   21.1526 H   0  0  0  0  0  0
  -29.0686  -15.4603   21.3327 H   0  0  0  0  0  0
  1 25  1  0  0  0
  1 30  2  0  0  0
  1 84  1  0  0  0
  2  3  1  0  0  0
  2 25  1  0  0  0
  2 85  1  0  0  0
  2 86  1  0  0  0
  3  4  1  0  0  0
  3 87  1  0  0  0
  3 88  1  0  0  0
  4  5  1  0  0  0
  4 89  1  0  0  0
  4 90  1  0  0  0
  5  6  1  0  0  0
  5 26  1  0  0  0
  5 91  1  0  0  0
  6 25  1  0  0  0
  6 92  1  0  0  0
  6 93  1  0  0  0
  7  8  2  0  0  0
  7 26  1  0  0  0
  7 29  1  0  0  0
  8  9  1  0  0  0
  8 22  1  0  0  0
  9 10  1  0  0  0
  9 27  2  0  0  0
 10 11  2  0  0  0
 10 15  1  0  0  0
 11 12  1  0  0  0
 11 94  1  0  0  0
 12 13  2  0  0  0
 12 95  1  0  0  0
 13 14  1  0  0  0
 13 31  1  0  0  0
 14 15  2  0  0  0
 14 96  1  0  0  0
 15 97  1  0  0  0
 16 17  2  0  0  0
 16 21  1  0  0  0
 16 31  1  0  0  0
 17 18  1  0  0  0
 17 98  1  0  0  0
 18 19  2  0  0  0
 18 99  1  0  0  0
 19 20  1  0  0  0
 19 24  1  0  0  0
 20 21  2  0  0  0
 20100  1  0  0  0
 21 23  1  0  0  0
 22 28  1  0  0  0
 22 32  2  0  0  0
 26 27  1  0  0  0
 28101  1  0  0  0
 28102  1  0  0  0
 29103  1  0  0  0
 29104  1  0  0  0
 33 34  1  0  0  0
 33 66  1  0  0  0
 33 70  2  0  0  0
 34 36  1  0  0  0
 34 59  1  0  0  0
 34105  1  0  0  0
 35 44  2  0  0  0
 35 45  1  0  0  0
 35 68  1  0  0  0
 36 56  1  0  0  0
 36106  1  0  0  0
 37 39  1  0  0  0
 37 47  1  0  0  0
 37 66  1  0  0  0
 37107  1  0  0  0
 38 43  2  0  0  0
 38 46  1  0  0  0
 38 47  1  0  0  0
 39 64  1  0  0  0
 39 67  2  0  0  0
 40 52  1  0  0  0
 40 53  2  0  0  0
 40 58  1  0  0  0
 41108  1  0  0  0
 41109  1  0  0  0
 41110  1  0  0  0
 41 48  1  0  0  0
 42 43  1  0  0  0
 42 66  1  0  0  0
 42111  1  0  0  0
 42112  1  0  0  0
 43 44  1  0  0  0
 44113  1  0  0  0
 45 46  2  0  0  0
 45114  1  0  0  0
 46115  1  0  0  0
 47116  1  0  0  0
 47117  1  0  0  0
 48 56  1  0  0  0
 48 65  1  0  0  0
 48118  1  0  0  0
 49 50  1  0  0  0
 49 53  1  0  0  0
 49 64  1  0  0  0
 49119  1  0  0  0
 50 51  1  0  0  0
 50120  1  0  0  0
 50121  1  0  0  0
 51 52  1  0  0  0
 51122  1  0  0  0
 51123  1  0  0  0
 52124  1  0  0  0
 52125  1  0  0  0
 53 54  1  0  0  0
 54 55  2  0  0  0
 54126  1  0  0  0
 55 57  1  0  0  0
 55127  1  0  0  0
 56 69  2  0  0  0
 57 58  2  0  0  0
 57128  1  0  0  0
 58129  1  0  0  0
 59 60  1  0  0  0
 59 61  1  0  0  0
 59 62  1  0  0  0
 60130  1  0  0  0
 60131  1  0  0  0
 60132  1  0  0  0
 61133  1  0  0  0
 61134  1  0  0  0
 61135  1  0  0  0
 62136  1  0  0  0
 62137  1  0  0  0
 62138  1  0  0  0
 63 65  1  0  0  0
 63139  1  0  0  0
 63140  1  0  0  0
 63141  1  0  0  0
 64142  1  0  0  0
 65143  1  0  0  0
 68 82  1  0  0  0
 71 73  2  0  0  0
 71 74  1  0  0  0
 71144  1  0  0  0
 72 75  2  0  0  0
 72 76  1  0  0  0
 72145  1  0  0  0
 73 75  1  0  0  0
 73 78  1  0  0  0
 74 76  2  0  0  0
 74 80  1  0  0  0
 75 81  1  0  0  0
 76 82  1  0  0  0
 77 78  1  0  0  0
 77 79  1  0  0  0
 77146  1  0  0  0
 77147  1  0  0  0
 78 79  1  0  0  0
 78148  1  0  0  0
 79 83  1  0  0  0
 79149  1  0  0  0
 80150  1  0  0  0
 80151  1  0  0  0
 80152  1  0  0  0
 81153  1  0  0  0
 81154  1  0  0  0
 81155  1  0  0  0
 82156  1  0  0  0
 82157  1  0  0  0
 83 84  1  0  0  0
 83158  1  0  0  0
 83159  1  0  0  0
 84160  1  0  0  0
M  ISO  4   1 100  68 101  82 101  84 100
M  END
> <chiral flag>
0

> <version>
0

> <s_m_source_file>
/data/baiqing/PycharmProjects/Reinvent-master-3.2/result/LINK_invent/BTK/process_docking_weight1_custom_sum_contain_oxygen_bond_distance_aromatic_linkinvent_7_9_3/rearranged_h_0161.sdf

> <i_m_source_file_index>
5

> <r_mmod_Potential_Energy-OPLS-2005>
91.0403747558594

> <r_mmod_Stretch_Energy-OPLS-2005>
73.3276596069336

> <r_mmod_Bend_Energy-OPLS-2005>
137.14323425293

> <r_mmod_Torsional_Energy-OPLS-2005>
274.946411132812

> <r_mmod_Improper_Torsional_Energy-OPLS-2005>
5.05191040039062

> <r_mmod_Van_der_Waal_Energy-OPLS-2005>
147.254379272461

> <r_mmod_Electrostatic_Energy-OPLS-2005>
-377.227020263672

> <r_mmod_Solvation_Energy-OPLS-2005>
-205.82893371582

> <b_mmod_Minimization_Converged-OPLS-2005>
0

> <r_mmod_RMS_Derivative-OPLS-2005>
4.00034284591675

$$$$
5
                    3D
 Structure written by MMmdl.
178187  0  0  1  0            999 V2000
  -30.6345  -14.5813   20.4807 C   0  0  0  0  0  0
  -30.4548  -12.3600   19.4079 C   0  0  0  0  0  0
  -29.5007  -12.4994   18.1989 C   0  0  0  0  0  0
  -28.0206  -12.3598   18.6195 C   0  0  0  0  0  0
  -27.6642  -13.1923   19.8847 C   0  0  2  0  0  0
  -28.7310  -13.0112   20.9908 C   0  0  0  0  0  0
  -25.2644  -13.8108   20.5754 C   0  0  0  0  0  0
  -24.1898  -13.0414   20.9233 C   0  0  0  0  0  0
  -24.6421  -11.6888   20.8836 C   0  0  0  0  0  0
  -23.9086  -10.4299   21.0520 C   0  0  0  0  0  0
  -24.3633   -9.4204   21.9265 C   0  0  0  0  0  0
  -23.6327   -8.2230   22.0838 C   0  0  0  0  0  0
  -22.4294   -8.0315   21.3605 C   0  0  0  0  0  0
  -21.9952   -9.0288   20.4724 C   0  0  0  0  0  0
  -22.7279  -10.2168   20.3148 C   0  0  0  0  0  0
  -21.6825   -6.0791   22.5299 C   0  0  0  0  0  0
  -21.3967   -6.5685   23.8244 C   0  0  0  0  0  0
  -21.3624   -5.6835   24.9206 C   0  0  0  0  0  0
  -21.6058   -4.3112   24.7232 C   0  0  0  0  0  0
  -21.8827   -3.8216   23.4339 C   0  0  0  0  0  0
  -21.9184   -4.7034   22.3414 C   0  0  0  0  0  0
  -22.7915  -13.5303   21.1846 C   0  0  0  0  0  0
  -22.1672   -4.2228   21.0979 F   0  0  0  0  0  0
  -21.5665   -3.4582   25.7718 F   0  0  0  0  0  0
  -30.0403  -13.3568   20.4069 N   0  0  0  0  0  0
  -26.3094  -12.9229   20.3558 N   0  0  0  0  0  0
  -25.9355  -11.6403   20.5923 N   0  0  0  0  0  0
  -22.0465  -12.8317   22.0327 N   0  0  0  0  0  0
  -25.4247  -15.1806   20.4079 N   0  0  0  0  0  0
  -31.8013  -14.7826   20.1326 O   0  0  0  0  0  0
  -21.6650   -6.8911   21.4263 O   0  0  0  0  0  0
  -22.3659  -14.5602   20.6679 O   0  0  0  0  0  0
  -24.6155  -31.8642   23.2027 C   0  0  0  0  0  0
  -25.9073  -32.4771   23.8310 C   0  0  1  0  0  0
  -27.2238  -27.3920   20.0864 C   0  0  0  0  0  0
  -25.5922  -33.8580   24.2244 N   0  0  0  0  0  0
  -23.3976  -30.4892   21.5453 C   0  0  2  0  0  0
  -24.8370  -28.9506   20.1018 C   0  0  0  0  0  0
  -22.7351  -29.4676   22.4954 C   0  0  0  0  0  0
  -18.0256  -28.1406   22.8462 C   0  0  0  0  0  0
  -24.1497  -36.7335   23.2637 C   0  0  0  0  0  0
  -25.9303  -30.8110   21.3623 C   0  0  0  0  0  0
  -25.9969  -29.4455   20.7048 C   0  0  0  0  0  0
  -27.1809  -28.6733   20.6979 C   0  0  0  0  0  0
  -26.0412  -26.9294   19.4637 C   0  0  0  0  0  0
  -24.8579  -27.6920   19.4787 C   0  0  0  0  0  0
  -23.5977  -29.8165   20.1595 C   0  0  0  0  0  0
  -25.4120  -36.3081   24.0320 C   0  0  1  0  0  0
  -20.5833  -28.3707   23.1289 C   0  0  2  0  0  0
  -20.6766  -26.9450   22.5404 C   0  0  0  0  0  0
  -19.5763  -26.6406   21.5189 C   0  0  0  0  0  0
  -18.1920  -26.7950   22.1574 C   0  0  0  0  0  0
  -19.1502  -28.8862   23.2877 C   0  0  0  0  0  0
  -18.9463  -30.1481   23.8877 C   0  0  0  0  0  0
  -17.6470  -30.6611   24.0577 C   0  0  0  0  0  0
  -25.9056  -34.9451   23.5081 C   0  0  0  0  0  0
  -16.5352  -29.9121   23.6356 C   0  0  0  0  0  0
  -16.7246  -28.6545   23.0347 C   0  0  0  0  0  0
  -26.4454  -31.6604   25.0704 C   0  0  0  0  0  0
  -25.3654  -31.3826   26.1434 C   0  0  0  0  0  0
  -27.0403  -30.3036   24.6252 C   0  0  0  0  0  0
  -27.6003  -32.4355   25.7492 C   0  0  0  0  0  0
  -27.5587  -37.1812   24.8442 C   0  0  0  0  0  0
  -21.4079  -29.3066   22.3676 N   0  0  0  0  0  0
  -26.4296  -37.3769   23.9388 N   0  0  0  0  0  0
  -24.6661  -31.0722   22.0911 N   0  0  0  0  0  0
  -23.4112  -28.8221   23.3008 O   0  0  0  0  0  0
  -28.4196  -26.6924   20.1899 O   0  0  0  0  0  0
  -26.5647  -34.8917   22.4656 O   0  0  0  0  0  0
  -23.5364  -32.1454   23.7399 O   0  0  0  0  0  0
  -29.4530  -23.4873   21.3974 C   0  0  0  0  0  0
  -28.3452  -22.8476   19.2043 C   0  0  0  0  0  0
  -29.8304  -24.8199   20.6940 C   0  0  0  0  0  0
  -27.7047  -24.2544   19.4037 C   0  0  0  0  0  0
  -31.1015  -17.7567   21.2566 C   0  0  0  0  0  0
  -29.2020  -19.3202   19.6436 C   0  0  0  0  0  0
  -29.1579  -22.3035   20.4311 C   0  0  1  0  0  0
  -29.8123  -17.0825   20.7370 C   0  0  1  0  0  0
  -28.7599  -25.3644   19.6966 C   0  0  1  0  0  0
  -30.9221  -19.2984   21.4428 C   0  0  1  0  0  0
  -29.3681  -17.7797   19.4037 C   0  0  0  0  0  0
  -32.2495  -19.8862   21.9841 C   0  0  0  0  0  0
  -30.3843  -17.5267   18.2684 C   0  0  0  0  0  0
  -28.0029  -17.2474   18.9231 C   0  0  0  0  0  0
  -31.2399  -21.9462   18.8670 C   0  0  0  0  0  0
  -30.4757  -21.4788   20.1138 C   0  0  2  0  0  0
  -29.7649  -15.5875   20.7504 N   0  0  0  0  0  0
  -30.4373  -19.9625   20.1748 N   0  3  2  0  0  0
  -31.4885  -12.5116   19.0895 H   0  0  0  0  0  0
  -30.4196  -11.3563   19.8306 H   0  0  0  0  0  0
  -29.7457  -11.7579   17.4370 H   0  0  0  0  0  0
  -29.6537  -13.4724   17.7329 H   0  0  0  0  0  0
  -27.8089  -11.3035   18.7859 H   0  0  0  0  0  0
  -27.3863  -12.6624   17.7874 H   0  0  0  0  0  0
  -27.6817  -14.2336   19.5800 H   0  0  0  0  0  0
  -28.7530  -11.9814   21.3483 H   0  0  0  0  0  0
  -28.5097  -13.6155   21.8705 H   0  0  0  0  0  0
  -25.2779   -9.5676   22.4864 H   0  0  0  0  0  0
  -24.0065   -7.4601   22.7533 H   0  0  0  0  0  0
  -21.0931   -8.8805   19.8957 H   0  0  0  0  0  0
  -22.3784  -10.9744   19.6303 H   0  0  0  0  0  0
  -21.1881   -7.6173   23.9735 H   0  0  0  0  0  0
  -21.1475   -6.0591   25.9106 H   0  0  0  0  0  0
  -22.0616   -2.7679   23.2835 H   0  0  0  0  0  0
  -22.4036  -11.9973   22.4733 H   0  0  0  0  0  0
  -21.1089  -13.1453   22.2433 H   0  0  0  0  0  0
  -24.6198  -15.7990   20.4100 H   0  0  0  0  0  0
  -26.2650  -15.6310   20.0756 H   0  0  0  0  0  0
  -26.7133  -32.5421   23.1058 H   0  0  0  0  0  0
  -25.0028  -33.9724   25.0359 H   0  0  0  0  0  0
  -22.6863  -31.3075   21.4050 H   0  0  0  0  0  0
  -23.3730  -35.9695   23.3271 H   0  0  0  0  0  0
  -24.3578  -36.9012   22.2059 H   0  0  0  0  0  0
  -23.7299  -37.6538   23.6710 H   0  0  0  0  0  0
  -26.0636  -31.5721   20.5915 H   0  0  0  0  0  0
  -26.8091  -30.8470   21.9943 H   0  0  0  0  0  0
  -28.0670  -29.0529   21.1856 H   0  0  0  0  0  0
  -25.9698  -25.9857   18.9608 H   0  0  0  0  0  0
  -23.9659  -27.3040   19.0063 H   0  0  0  0  0  0
  -23.6857  -30.5876   19.3945 H   0  0  0  0  0  0
  -22.7185  -29.2324   19.8756 H   0  0  0  0  0  0
  -25.1301  -36.1907   25.0806 H   0  0  0  0  0  0
  -20.9932  -28.3319   24.1406 H   0  0  0  0  0  0
  -20.5682  -26.2321   23.3597 H   0  0  0  0  0  0
  -21.6648  -26.7515   22.1200 H   0  0  0  0  0  0
  -19.6959  -25.6306   21.1253 H   0  0  0  0  0  0
  -19.6732  -27.3183   20.6692 H   0  0  0  0  0  0
  -17.4205  -26.6690   21.3974 H   0  0  0  0  0  0
  -18.0343  -26.0092   22.8960 H   0  0  0  0  0  0
  -19.7943  -30.7306   24.2193 H   0  0  0  0  0  0
  -17.5052  -31.6287   24.5205 H   0  0  0  0  0  0
  -15.5377  -30.3053   23.7719 H   0  0  0  0  0  0
  -15.8630  -28.0918   22.7058 H   0  0  0  0  0  0
  -24.5743  -30.7286   25.7764 H   0  0  0  0  0  0
  -24.8958  -32.3065   26.4829 H   0  0  0  0  0  0
  -25.7906  -30.8983   27.0236 H   0  0  0  0  0  0
  -26.3106  -29.6697   24.1220 H   0  0  0  0  0  0
  -27.4053  -29.7381   25.4845 H   0  0  0  0  0  0
  -27.8934  -30.4361   23.9593 H   0  0  0  0  0  0
  -27.2580  -33.3605   26.2143 H   0  0  0  0  0  0
  -28.3778  -32.6997   25.0311 H   0  0  0  0  0  0
  -28.0724  -31.8448   26.5355 H   0  0  0  0  0  0
  -28.2565  -38.0145   24.7499 H   0  0  0  0  0  0
  -28.1127  -36.2670   24.6232 H   0  0  0  0  0  0
  -27.2317  -37.1423   25.8849 H   0  0  0  0  0  0
  -20.9222  -29.8743   21.6865 H   0  0  0  0  0  0
  -26.0170  -38.2853   24.1341 H   0  0  0  0  0  0
  -28.5629  -23.6643   22.0050 H   0  0  0  0  0  0
  -30.2185  -23.2151   22.1236 H   0  0  0  0  0  0
  -28.9728  -22.9373   18.3223 H   0  0  0  0  0  0
  -27.5733  -22.1285   18.9236 H   0  0  0  0  0  0
  -30.7859  -24.7086   20.1802 H   0  0  0  0  0  0
  -30.0253  -25.5528   21.4799 H   0  0  0  0  0  0
  -26.9410  -24.2268   20.1827 H   0  0  0  0  0  0
  -27.2050  -24.4728   18.4617 H   0  0  0  0  0  0
  -31.9340  -17.5571   20.5800 H   0  0  0  0  0  0
  -31.3812  -17.3078   22.2115 H   0  0  0  0  0  0
  -28.3792  -19.5009   20.3379 H   0  0  0  0  0  0
  -28.9248  -19.8069   18.7073 H   0  0  0  0  0  0
  -28.4921  -21.6554   21.0035 H   0  0  0  0  0  0
  -29.0525  -17.3330   21.4805 H   0  0  0  0  0  0
  -29.2760  -25.5561   18.7536 H   0  0  0  0  0  0
  -30.1590  -19.4504   22.2081 H   0  0  0  0  0  0
  -32.9651  -20.0661   21.1819 H   0  0  0  0  0  0
  -32.7289  -19.2235   22.7046 H   0  0  0  0  0  0
  -32.1028  -20.8260   22.5182 H   0  0  0  0  0  0
  -31.3332  -18.0345   18.4397 H   0  0  0  0  0  0
  -30.0062  -17.8880   17.3115 H   0  0  0  0  0  0
  -30.6004  -16.4630   18.1541 H   0  0  0  0  0  0
  -27.2091  -17.4291   19.6522 H   0  0  0  0  0  0
  -28.0434  -16.1859   18.7028 H   0  0  0  0  0  0
  -27.6990  -17.7344   17.9960 H   0  0  0  0  0  0
  -31.3582  -23.0304   18.8705 H   0  0  0  0  0  0
  -30.7517  -21.6760   17.9326 H   0  0  0  0  0  0
  -32.2454  -21.5267   18.8546 H   0  0  0  0  0  0
  -31.1681  -21.7880   20.8828 H   0  0  0  0  0  0
  -28.8435  -15.2155   20.9270 H   0  0  0  0  0  0
  -31.1405  -19.7114   19.4942 H   0  0  0  0  0  0
  1 25  1  0  0  0
  1 30  2  0  0  0
  1 87  1  0  0  0
  2  3  1  0  0  0
  2 25  1  0  0  0
  2 89  1  0  0  0
  2 90  1  0  0  0
  3  4  1  0  0  0
  3 91  1  0  0  0
  3 92  1  0  0  0
  4  5  1  0  0  0
  4 93  1  0  0  0
  4 94  1  0  0  0
  5  6  1  0  0  0
  5 26  1  0  0  0
  5 95  1  0  0  0
  6 25  1  0  0  0
  6 96  1  0  0  0
  6 97  1  0  0  0
  7  8  2  0  0  0
  7 26  1  0  0  0
  7 29  1  0  0  0
  8  9  1  0  0  0
  8 22  1  0  0  0
  9 10  1  0  0  0
  9 27  2  0  0  0
 10 11  2  0  0  0
 10 15  1  0  0  0
 11 12  1  0  0  0
 11 98  1  0  0  0
 12 13  2  0  0  0
 12 99  1  0  0  0
 13 14  1  0  0  0
 13 31  1  0  0  0
 14 15  2  0  0  0
 14100  1  0  0  0
 15101  1  0  0  0
 16 17  2  0  0  0
 16 21  1  0  0  0
 16 31  1  0  0  0
 17 18  1  0  0  0
 17102  1  0  0  0
 18 19  2  0  0  0
 18103  1  0  0  0
 19 20  1  0  0  0
 19 24  1  0  0  0
 20 21  2  0  0  0
 20104  1  0  0  0
 21 23  1  0  0  0
 22 28  1  0  0  0
 22 32  2  0  0  0
 26 27  1  0  0  0
 28105  1  0  0  0
 28106  1  0  0  0
 29107  1  0  0  0
 29108  1  0  0  0
 33 34  1  0  0  0
 33 66  1  0  0  0
 33 70  2  0  0  0
 34 36  1  0  0  0
 34 59  1  0  0  0
 34109  1  0  0  0
 35 44  2  0  0  0
 35 45  1  0  0  0
 35 68  1  0  0  0
 36 56  1  0  0  0
 36110  1  0  0  0
 37 39  1  0  0  0
 37 47  1  0  0  0
 37 66  1  0  0  0
 37111  1  0  0  0
 38 43  2  0  0  0
 38 46  1  0  0  0
 38 47  1  0  0  0
 39 64  1  0  0  0
 39 67  2  0  0  0
 40 52  1  0  0  0
 40 53  2  0  0  0
 40 58  1  0  0  0
 41112  1  0  0  0
 41113  1  0  0  0
 41114  1  0  0  0
 41 48  1  0  0  0
 42 43  1  0  0  0
 42 66  1  0  0  0
 42115  1  0  0  0
 42116  1  0  0  0
 43 44  1  0  0  0
 44117  1  0  0  0
 45 46  2  0  0  0
 45118  1  0  0  0
 46119  1  0  0  0
 47120  1  0  0  0
 47121  1  0  0  0
 48 56  1  0  0  0
 48 65  1  0  0  0
 48122  1  0  0  0
 49 50  1  0  0  0
 49 53  1  0  0  0
 49 64  1  0  0  0
 49123  1  0  0  0
 50 51  1  0  0  0
 50124  1  0  0  0
 50125  1  0  0  0
 51 52  1  0  0  0
 51126  1  0  0  0
 51127  1  0  0  0
 52128  1  0  0  0
 52129  1  0  0  0
 53 54  1  0  0  0
 54 55  2  0  0  0
 54130  1  0  0  0
 55 57  1  0  0  0
 55131  1  0  0  0
 56 69  2  0  0  0
 57 58  2  0  0  0
 57132  1  0  0  0
 58133  1  0  0  0
 59 60  1  0  0  0
 59 61  1  0  0  0
 59 62  1  0  0  0
 60134  1  0  0  0
 60135  1  0  0  0
 60136  1  0  0  0
 61137  1  0  0  0
 61138  1  0  0  0
 61139  1  0  0  0
 62140  1  0  0  0
 62141  1  0  0  0
 62142  1  0  0  0
 63 65  1  0  0  0
 63143  1  0  0  0
 63144  1  0  0  0
 63145  1  0  0  0
 64146  1  0  0  0
 65147  1  0  0  0
 68 79  1  0  0  0
 71 73  1  0  0  0
 71148  1  0  0  0
 71149  1  0  0  0
 71 77  1  0  0  0
 72 74  1  0  0  0
 72 77  1  0  0  0
 72150  1  0  0  0
 72151  1  0  0  0
 73 79  1  0  0  0
 73152  1  0  0  0
 73153  1  0  0  0
 74 79  1  0  0  0
 74154  1  0  0  0
 74155  1  0  0  0
 75 78  1  0  0  0
 75 80  1  0  0  0
 75156  1  0  0  0
 75157  1  0  0  0
 76 81  1  0  0  0
 76158  1  0  0  0
 76159  1  0  0  0
 76 88  1  0  0  0
 77 86  1  0  0  0
 77160  1  0  0  0
 78 81  1  0  0  0
 78 87  1  0  0  0
 78161  1  0  0  0
 79162  1  0  0  0
 80 82  1  0  0  0
 80 88  1  0  0  0
 80163  1  0  0  0
 81 83  1  0  0  0
 81 84  1  0  0  0
 82164  1  0  0  0
 82165  1  0  0  0
 82166  1  0  0  0
 83167  1  0  0  0
 83168  1  0  0  0
 83169  1  0  0  0
 84170  1  0  0  0
 84171  1  0  0  0
 84172  1  0  0  0
 85173  1  0  0  0
 85174  1  0  0  0
 85175  1  0  0  0
 85 86  1  0  0  0
 86 88  1  0  0  0
 86176  1  0  0  0
 87177  1  0  0  0
 88178  1  0  0  0
M  CHG  1  88   1
M  ISO  4   1 100  68 101  79 101  87 100
M  END
> <chiral flag>
0

> <version>
0

> <s_m_source_file>
/data/baiqing/PycharmProjects/Reinvent-master-3.2/result/LINK_invent/BTK/process_docking_weight1_custom_sum_contain_oxygen_bond_distance_aromatic_linkinvent_7_9_3/rearranged_h_0161.sdf

> <i_m_source_file_index>
6

> <r_mmod_Potential_Energy-OPLS-2005>
117.32453918457

> <r_mmod_Stretch_Energy-OPLS-2005>
62.1857681274414

> <r_mmod_Bend_Energy-OPLS-2005>
211.157379150391

> <r_mmod_Torsional_Energy-OPLS-2005>
332.154998779297

> <r_mmod_Improper_Torsional_Energy-OPLS-2005>
5.55677652359009

> <r_mmod_Van_der_Waal_Energy-OPLS-2005>
147.923217773438

> <r_mmod_Electrostatic_Energy-OPLS-2005>
-258.776977539062

> <r_mmod_Solvation_Energy-OPLS-2005>
-413.059204101562

> <b_mmod_Minimization_Converged-OPLS-2005>
0

> <r_mmod_RMS_Derivative-OPLS-2005>
5.93142366409302

$$$$
6
                    3D
 Structure written by MMmdl.
184193  0  0  1  0            999 V2000
  -30.7231  -14.4499   20.5758 C   0  0  0  0  0  0
  -30.4156  -12.2952   19.4244 C   0  0  0  0  0  0
  -29.4908  -12.5036   18.2083 C   0  0  0  0  0  0
  -28.0127  -12.3681   18.6212 C   0  0  0  0  0  0
  -27.6620  -13.2090   19.8781 C   0  0  2  0  0  0
  -28.7034  -12.9937   21.0008 C   0  0  0  0  0  0
  -25.2582  -13.8174   20.5689 C   0  0  0  0  0  0
  -24.1834  -13.0444   20.9178 C   0  0  0  0  0  0
  -24.6389  -11.6912   20.8736 C   0  0  0  0  0  0
  -23.9056  -10.4292   21.0400 C   0  0  0  0  0  0
  -24.3604   -9.4211   21.9184 C   0  0  0  0  0  0
  -23.6282   -8.2247   22.0755 C   0  0  0  0  0  0
  -22.4270   -8.0278   21.3541 C   0  0  0  0  0  0
  -21.9906   -9.0248   20.4641 C   0  0  0  0  0  0
  -22.7230  -10.2129   20.3048 C   0  0  0  0  0  0
  -21.6852   -6.0730   22.5274 C   0  0  0  0  0  0
  -21.4013   -6.5635   23.8206 C   0  0  0  0  0  0
  -21.3662   -5.6790   24.9172 C   0  0  0  0  0  0
  -21.6045   -4.3052   24.7226 C   0  0  0  0  0  0
  -21.8821   -3.8143   23.4347 C   0  0  0  0  0  0
  -21.9193   -4.6958   22.3401 C   0  0  0  0  0  0
  -22.7856  -13.5240   21.1838 C   0  0  0  0  0  0
  -22.1661   -4.2143   21.0980 F   0  0  0  0  0  0
  -21.5632   -3.4537   25.7740 F   0  0  0  0  0  0
  -30.0366  -13.2828   20.4473 N   0  0  0  0  0  0
  -26.3024  -12.9348   20.3393 N   0  0  0  0  0  0
  -25.9318  -11.6504   20.5782 N   0  0  0  0  0  0
  -22.0490  -12.8218   22.0379 N   0  0  0  0  0  0
  -25.4309  -15.1890   20.4092 N   0  0  0  0  0  0
  -31.8373  -14.6247   20.0763 O   0  0  0  0  0  0
  -21.6636   -6.8873   21.4235 O   0  0  0  0  0  0
  -22.3547  -14.5554   20.6699 O   0  0  0  0  0  0
  -24.6139  -31.8683   23.2107 C   0  0  0  0  0  0
  -25.9035  -32.4826   23.8405 C   0  0  1  0  0  0
  -27.2365  -27.4506   20.0958 C   0  0  0  0  0  0
  -25.5893  -33.8624   24.2333 N   0  0  0  0  0  0
  -23.4021  -30.4902   21.5515 C   0  0  2  0  0  0
  -24.8514  -28.9582   20.1136 C   0  0  0  0  0  0
  -22.7409  -29.4646   22.5004 C   0  0  0  0  0  0
  -18.0274  -28.1363   22.8491 C   0  0  0  0  0  0
  -24.1482  -36.7317   23.2635 C   0  0  0  0  0  0
  -25.9286  -30.8395   21.3602 C   0  0  0  0  0  0
  -26.0103  -29.4738   20.7099 C   0  0  0  0  0  0
  -27.2093  -28.7266   20.7000 C   0  0  0  0  0  0
  -26.0665  -26.9442   19.4940 C   0  0  0  0  0  0
  -24.8728  -27.6912   19.5032 C   0  0  0  0  0  0
  -23.6107  -29.8212   20.1661 C   0  0  0  0  0  0
  -25.4105  -36.3112   24.0328 C   0  0  1  0  0  0
  -20.5863  -28.3650   23.1323 C   0  0  2  0  0  0
  -20.6760  -26.9390   22.5415 C   0  0  0  0  0  0
  -19.5741  -26.6382   21.5208 C   0  0  0  0  0  0
  -18.1918  -26.7915   22.1612 C   0  0  0  0  0  0
  -19.1522  -28.8824   23.2902 C   0  0  0  0  0  0
  -18.9448  -30.1430   23.8912 C   0  0  0  0  0  0
  -17.6451  -30.6573   24.0566 C   0  0  0  0  0  0
  -25.9036  -34.9475   23.5128 C   0  0  0  0  0  0
  -16.5343  -29.9077   23.6322 C   0  0  0  0  0  0
  -16.7264  -28.6491   23.0347 C   0  0  0  0  0  0
  -26.4470  -31.6594   25.0721 C   0  0  0  0  0  0
  -25.3734  -31.3653   26.1453 C   0  0  0  0  0  0
  -27.0321  -30.3055   24.6064 C   0  0  0  0  0  0
  -27.6044  -32.4311   25.7496 C   0  0  0  0  0  0
  -27.5572  -37.1820   24.8460 C   0  0  0  0  0  0
  -21.4137  -29.3023   22.3737 N   0  0  0  0  0  0
  -26.4289  -37.3797   23.9400 N   0  0  0  0  0  0
  -24.6667  -31.0791   22.1005 N   0  0  0  0  0  0
  -23.4181  -28.8187   23.3044 O   0  0  0  0  0  0
  -28.3717  -26.6765   20.1044 O   0  0  0  0  0  0
  -26.5609  -34.8925   22.4696 O   0  0  0  0  0  0
  -23.5330  -32.1434   23.7504 O   0  0  0  0  0  0
  -29.7351  -19.0757   22.0909 C   0  0  0  0  0  0
  -29.9924  -18.1633   24.7225 C   0  0  0  0  0  0
  -29.4470  -19.9648   23.1551 C   0  0  0  0  0  0
  -30.1494  -17.7379   22.3243 C   0  0  0  0  0  0
  -29.5825  -19.4897   24.4863 C   0  0  0  0  0  0
  -30.2943  -17.2883   23.6624 C   0  0  0  0  0  0
  -30.0621  -22.4778   22.4772 C   0  0  0  0  0  0
  -29.0273  -21.4204   22.8824 C   0  0  1  0  0  0
  -28.8918  -23.3207   21.9187 C   0  0  2  0  0  0
  -28.2056  -21.9380   21.6688 C   0  0  2  0  0  0
  -29.3240  -20.3773   25.6947 C   0  0  0  0  0  0
  -30.8132  -15.9022   24.0128 C   0  0  0  0  0  0
  -24.5294  -22.9076   21.0602 C   0  0  0  0  0  0
  -26.2446  -19.5168   21.0999 C   0  0  0  0  0  0
  -30.5932  -24.6804   20.5410 C   0  0  0  0  0  0
  -30.5155  -16.8654   21.1181 C   0  0  0  0  0  0
  -25.9955  -22.5734   20.7366 C   0  0  0  0  0  0
  -26.1779  -20.5697   22.2237 C   0  0  0  0  0  0
  -28.3638  -25.7016   21.1555 C   0  0  0  0  0  0
  -29.1061  -24.3835   20.8035 C   0  0  2  0  0  0
  -30.0608  -15.4672   21.1517 N   0  0  0  0  0  0
  -26.7224  -21.9119   21.8570 N   0  3  0  0  0  0
  -31.4612  -12.3793   19.1232 H   0  0  0  0  0  0
  -30.3046  -11.2856   19.8229 H   0  0  0  0  0  0
  -29.7277  -11.7813   17.4258 H   0  0  0  0  0  0
  -29.6631  -13.4909   17.7765 H   0  0  0  0  0  0
  -27.8196  -11.3128   18.8168 H   0  0  0  0  0  0
  -27.3624  -12.6455   17.7910 H   0  0  0  0  0  0
  -27.7060  -14.2569   19.5800 H   0  0  0  0  0  0
  -28.6734  -11.9615   21.3529 H   0  0  0  0  0  0
  -28.4704  -13.6060   21.8731 H   0  0  0  0  0  0
  -25.2745   -9.5693   22.4764 H   0  0  0  0  0  0
  -23.9990   -7.4643   22.7478 H   0  0  0  0  0  0
  -21.0843   -8.8760   19.8942 H   0  0  0  0  0  0
  -22.3689  -10.9663   19.6152 H   0  0  0  0  0  0
  -21.2002   -7.6142   23.9708 H   0  0  0  0  0  0
  -21.1484   -6.0520   25.9074 H   0  0  0  0  0  0
  -22.0600   -2.7604   23.2849 H   0  0  0  0  0  0
  -22.4088  -11.9853   22.4731 H   0  0  0  0  0  0
  -21.1103  -13.1235   22.2574 H   0  0  0  0  0  0
  -24.6648  -15.8451   20.5115 H   0  0  0  0  0  0
  -26.2868  -15.6254   20.0903 H   0  0  0  0  0  0
  -26.7110  -32.5546   23.1182 H   0  0  0  0  0  0
  -25.0019  -33.9795   25.0457 H   0  0  0  0  0  0
  -22.6902  -31.3056   21.4122 H   0  0  0  0  0  0
  -23.3736  -35.9655   23.3308 H   0  0  0  0  0  0
  -24.3563  -36.8935   22.2045 H   0  0  0  0  0  0
  -23.7247  -37.6525   23.6654 H   0  0  0  0  0  0
  -26.0325  -31.6043   20.5887 H   0  0  0  0  0  0
  -26.8190  -30.8998   21.9736 H   0  0  0  0  0  0
  -28.1046  -29.1164   21.1648 H   0  0  0  0  0  0
  -26.0797  -25.9687   19.0281 H   0  0  0  0  0  0
  -23.9815  -27.2879   19.0424 H   0  0  0  0  0  0
  -23.7133  -30.5949   19.4045 H   0  0  0  0  0  0
  -22.7358  -29.2364   19.8755 H   0  0  0  0  0  0
  -25.1287  -36.1976   25.0821 H   0  0  0  0  0  0
  -20.9954  -28.3218   24.1442 H   0  0  0  0  0  0
  -20.5671  -26.2262   23.3599 H   0  0  0  0  0  0
  -21.6633  -26.7440   22.1212 H   0  0  0  0  0  0
  -19.6913  -25.6305   21.1212 H   0  0  0  0  0  0
  -19.6684  -27.3210   20.6753 H   0  0  0  0  0  0
  -17.4202  -26.6681   21.4000 H   0  0  0  0  0  0
  -18.0301  -26.0042   22.8992 H   0  0  0  0  0  0
  -19.7926  -30.7232   24.2301 H   0  0  0  0  0  0
  -17.5013  -31.6259   24.5161 H   0  0  0  0  0  0
  -15.5345  -30.2986   23.7641 H   0  0  0  0  0  0
  -15.8660  -28.0823   22.7051 H   0  0  0  0  0  0
  -24.5942  -30.6976   25.7764 H   0  0  0  0  0  0
  -24.8873  -32.2778   26.4914 H   0  0  0  0  0  0
  -25.8087  -30.8814   27.0206 H   0  0  0  0  0  0
  -26.2873  -29.6801   24.1129 H   0  0  0  0  0  0
  -27.4143  -29.7291   25.4501 H   0  0  0  0  0  0
  -27.8672  -30.4411   23.9186 H   0  0  0  0  0  0
  -27.2682  -33.3620   26.2076 H   0  0  0  0  0  0
  -28.3861  -32.6856   25.0327 H   0  0  0  0  0  0
  -28.0702  -31.8427   26.5412 H   0  0  0  0  0  0
  -28.2594  -38.0114   24.7508 H   0  0  0  0  0  0
  -28.1071  -36.2647   24.6299 H   0  0  0  0  0  0
  -27.2285  -37.1487   25.8863 H   0  0  0  0  0  0
  -20.9299  -29.8755   21.6967 H   0  0  0  0  0  0
  -26.0174  -38.2873   24.1398 H   0  0  0  0  0  0
  -29.6611  -19.4331   21.0735 H   0  0  0  0  0  0
  -30.1042  -17.8166   25.7414 H   0  0  0  0  0  0
  -30.7483  -22.1116   21.7110 H   0  0  0  0  0  0
  -30.6054  -22.9249   23.3102 H   0  0  0  0  0  0
  -28.5168  -21.7761   23.7776 H   0  0  0  0  0  0
  -28.4208  -23.8026   22.7802 H   0  0  0  0  0  0
  -28.5195  -21.4886   20.7239 H   0  0  0  0  0  0
  -29.6211  -19.8878   26.6228 H   0  0  0  0  0  0
  -28.2636  -20.6181   25.7762 H   0  0  0  0  0  0
  -29.8919  -21.3056   25.6240 H   0  0  0  0  0  0
  -31.1532  -15.8543   25.0475 H   0  0  0  0  0  0
  -31.6628  -15.6303   23.3863 H   0  0  0  0  0  0
  -30.0305  -15.1537   23.8889 H   0  0  0  0  0  0
  -24.0887  -23.4918   20.2516 H   0  0  0  0  0  0
  -24.4427  -23.5009   21.9716 H   0  0  0  0  0  0
  -23.9176  -22.0131   21.1749 H   0  0  0  0  0  0
  -25.8977  -18.5521   21.4709 H   0  0  0  0  0  0
  -27.2581  -19.3743   20.7296 H   0  0  0  0  0  0
  -25.6082  -19.7776   20.2546 H   0  0  0  0  0  0
  -31.1217  -23.7996   20.1791 H   0  0  0  0  0  0
  -31.0943  -25.0288   21.4448 H   0  0  0  0  0  0
  -30.7117  -25.4542   19.7815 H   0  0  0  0  0  0
  -31.6012  -16.9181   21.0196 H   0  0  0  0  0  0
  -30.1135  -17.3156   20.2093 H   0  0  0  0  0  0
  -26.4871  -23.5126   20.4943 H   0  0  0  0  0  0
  -26.0618  -21.9740   19.8286 H   0  0  0  0  0  0
  -26.6954  -20.1886   23.1032 H   0  0  0  0  0  0
  -25.1441  -20.6760   22.5500 H   0  0  0  0  0  0
  -28.8195  -26.1544   22.0375 H   0  0  0  0  0  0
  -27.3396  -25.4580   21.4461 H   0  0  0  0  0  0
  -28.6869  -24.0066   19.8693 H   0  0  0  0  0  0
  -29.1437  -15.2821   21.5268 H   0  0  0  0  0  0
  -26.5471  -22.4867   22.6681 H   0  0  0  0  0  0
  1 25  1  0  0  0
  1 30  2  0  0  0
  1 91  1  0  0  0
  2  3  1  0  0  0
  2 25  1  0  0  0
  2 93  1  0  0  0
  2 94  1  0  0  0
  3  4  1  0  0  0
  3 95  1  0  0  0
  3 96  1  0  0  0
  4  5  1  0  0  0
  4 97  1  0  0  0
  4 98  1  0  0  0
  5  6  1  0  0  0
  5 26  1  0  0  0
  5 99  1  0  0  0
  6 25  1  0  0  0
  6100  1  0  0  0
  6101  1  0  0  0
  7  8  2  0  0  0
  7 26  1  0  0  0
  7 29  1  0  0  0
  8  9  1  0  0  0
  8 22  1  0  0  0
  9 10  1  0  0  0
  9 27  2  0  0  0
 10 11  2  0  0  0
 10 15  1  0  0  0
 11 12  1  0  0  0
 11102  1  0  0  0
 12 13  2  0  0  0
 12103  1  0  0  0
 13 14  1  0  0  0
 13 31  1  0  0  0
 14 15  2  0  0  0
 14104  1  0  0  0
 15105  1  0  0  0
 16 17  2  0  0  0
 16 21  1  0  0  0
 16 31  1  0  0  0
 17 18  1  0  0  0
 17106  1  0  0  0
 18 19  2  0  0  0
 18107  1  0  0  0
 19 20  1  0  0  0
 19 24  1  0  0  0
 20 21  2  0  0  0
 20108  1  0  0  0
 21 23  1  0  0  0
 22 28  1  0  0  0
 22 32  2  0  0  0
 26 27  1  0  0  0
 28109  1  0  0  0
 28110  1  0  0  0
 29111  1  0  0  0
 29112  1  0  0  0
 33 34  1  0  0  0
 33 66  1  0  0  0
 33 70  2  0  0  0
 34 36  1  0  0  0
 34 59  1  0  0  0
 34113  1  0  0  0
 35 44  2  0  0  0
 35 45  1  0  0  0
 35 68  1  0  0  0
 36 56  1  0  0  0
 36114  1  0  0  0
 37 39  1  0  0  0
 37 47  1  0  0  0
 37 66  1  0  0  0
 37115  1  0  0  0
 38 43  2  0  0  0
 38 46  1  0  0  0
 38 47  1  0  0  0
 39 64  1  0  0  0
 39 67  2  0  0  0
 40 52  1  0  0  0
 40 53  2  0  0  0
 40 58  1  0  0  0
 41116  1  0  0  0
 41117  1  0  0  0
 41118  1  0  0  0
 41 48  1  0  0  0
 42 43  1  0  0  0
 42 66  1  0  0  0
 42119  1  0  0  0
 42120  1  0  0  0
 43 44  1  0  0  0
 44121  1  0  0  0
 45 46  2  0  0  0
 45122  1  0  0  0
 46123  1  0  0  0
 47124  1  0  0  0
 47125  1  0  0  0
 48 56  1  0  0  0
 48 65  1  0  0  0
 48126  1  0  0  0
 49 50  1  0  0  0
 49 53  1  0  0  0
 49 64  1  0  0  0
 49127  1  0  0  0
 50 51  1  0  0  0
 50128  1  0  0  0
 50129  1  0  0  0
 51 52  1  0  0  0
 51130  1  0  0  0
 51131  1  0  0  0
 52132  1  0  0  0
 52133  1  0  0  0
 53 54  1  0  0  0
 54 55  2  0  0  0
 54134  1  0  0  0
 55 57  1  0  0  0
 55135  1  0  0  0
 56 69  2  0  0  0
 57 58  2  0  0  0
 57136  1  0  0  0
 58137  1  0  0  0
 59 60  1  0  0  0
 59 61  1  0  0  0
 59 62  1  0  0  0
 60138  1  0  0  0
 60139  1  0  0  0
 60140  1  0  0  0
 61141  1  0  0  0
 61142  1  0  0  0
 61143  1  0  0  0
 62144  1  0  0  0
 62145  1  0  0  0
 62146  1  0  0  0
 63 65  1  0  0  0
 63147  1  0  0  0
 63148  1  0  0  0
 63149  1  0  0  0
 64150  1  0  0  0
 65151  1  0  0  0
 68 89  1  0  0  0
 71 73  2  0  0  0
 71 74  1  0  0  0
 71152  1  0  0  0
 72 75  2  0  0  0
 72 76  1  0  0  0
 72153  1  0  0  0
 73 75  1  0  0  0
 73 78  1  0  0  0
 74 76  2  0  0  0
 74 86  1  0  0  0
 75 81  1  0  0  0
 76 82  1  0  0  0
 77 78  1  0  0  0
 77154  1  0  0  0
 77155  1  0  0  0
 77 79  1  0  0  0
 78 80  1  0  0  0
 78156  1  0  0  0
 79 80  1  0  0  0
 79 90  1  0  0  0
 79157  1  0  0  0
 80 92  1  0  0  0
 80158  1  0  0  0
 81159  1  0  0  0
 81160  1  0  0  0
 81161  1  0  0  0
 82162  1  0  0  0
 82163  1  0  0  0
 82164  1  0  0  0
 83 87  1  0  0  0
 83165  1  0  0  0
 83166  1  0  0  0
 83167  1  0  0  0
 84 88  1  0  0  0
 84168  1  0  0  0
 84169  1  0  0  0
 84170  1  0  0  0
 85171  1  0  0  0
 85172  1  0  0  0
 85173  1  0  0  0
 85 90  1  0  0  0
 86 91  1  0  0  0
 86174  1  0  0  0
 86175  1  0  0  0
 87176  1  0  0  0
 87177  1  0  0  0
 87 92  1  0  0  0
 88 92  1  0  0  0
 88178  1  0  0  0
 88179  1  0  0  0
 89 90  1  0  0  0
 89180  1  0  0  0
 89181  1  0  0  0
 90182  1  0  0  0
 91183  1  0  0  0
 92184  1  0  0  0
M  CHG  1  92   1
M  ISO  4   1 100  68 101  89 101  91 100
M  END
> <chiral flag>
0

> <version>
0

> <s_m_source_file>
/data/baiqing/PycharmProjects/Reinvent-master-3.2/result/LINK_invent/BTK/process_docking_weight1_custom_sum_contain_oxygen_bond_distance_aromatic_linkinvent_7_9_3/rearranged_h_0161.sdf

> <i_m_source_file_index>
7

> <r_mmod_Potential_Energy-OPLS-2005>
-102.280006408691

> <r_mmod_Stretch_Energy-OPLS-2005>
43.0304985046387

> <r_mmod_Bend_Energy-OPLS-2005>
125.039703369141

> <r_mmod_Torsional_Energy-OPLS-2005>
292.857360839844

> <r_mmod_Improper_Torsional_Energy-OPLS-2005>
3.697918176651

> <r_mmod_Van_der_Waal_Energy-OPLS-2005>
152.066146850586

> <r_mmod_Electrostatic_Energy-OPLS-2005>
-308.767425537109

> <r_mmod_Solvation_Energy-OPLS-2005>
-421.298736572266

> <b_mmod_Minimization_Converged-OPLS-2005>
0

> <r_mmod_RMS_Derivative-OPLS-2005>
0.98644083738327

$$$$
7
                    3D
 Structure written by MMmdl.
180190  0  0  1  0            999 V2000
  -30.8217  -14.3245   20.7188 C   0  0  0  0  0  0
  -30.4115  -12.2874   19.3914 C   0  0  0  0  0  0
  -29.4770  -12.5223   18.1944 C   0  0  0  0  0  0
  -28.0086  -12.3689   18.6219 C   0  0  0  0  0  0
  -27.6685  -13.2071   19.8809 C   0  0  2  0  0  0
  -28.7093  -12.9778   21.0030 C   0  0  0  0  0  0
  -25.2604  -13.8182   20.5678 C   0  0  0  0  0  0
  -24.1852  -13.0449   20.9158 C   0  0  0  0  0  0
  -24.6412  -11.6920   20.8737 C   0  0  0  0  0  0
  -23.9080  -10.4302   21.0405 C   0  0  0  0  0  0
  -24.3628   -9.4211   21.9184 C   0  0  0  0  0  0
  -23.6281   -8.2255   22.0763 C   0  0  0  0  0  0
  -22.4275   -8.0291   21.3541 C   0  0  0  0  0  0
  -21.9906   -9.0268   20.4647 C   0  0  0  0  0  0
  -22.7255  -10.2142   20.3046 C   0  0  0  0  0  0
  -21.6846   -6.0743   22.5277 C   0  0  0  0  0  0
  -21.4014   -6.5646   23.8210 C   0  0  0  0  0  0
  -21.3648   -5.6800   24.9169 C   0  0  0  0  0  0
  -21.6039   -4.3058   24.7213 C   0  0  0  0  0  0
  -21.8821   -3.8158   23.4341 C   0  0  0  0  0  0
  -21.9182   -4.6971   22.3394 C   0  0  0  0  0  0
  -22.7875  -13.5247   21.1836 C   0  0  0  0  0  0
  -22.1646   -4.2156   21.0972 F   0  0  0  0  0  0
  -21.5617   -3.4543   25.7729 F   0  0  0  0  0  0
  -30.0606  -13.2270   20.4662 N   0  0  0  0  0  0
  -26.3059  -12.9355   20.3407 N   0  0  0  0  0  0
  -25.9341  -11.6506   20.5780 N   0  0  0  0  0  0
  -22.0514  -12.8224   22.0392 N   0  0  0  0  0  0
  -25.4330  -15.1894   20.4062 N   0  0  0  0  0  0
  -31.7493  -14.6889   19.9880 O   0  0  0  0  0  0
  -21.6637   -6.8889   21.4236 O   0  0  0  0  0  0
  -22.3557  -14.5556   20.6699 O   0  0  0  0  0  0
  -24.6096  -31.8718   23.2125 C   0  0  0  0  0  0
  -25.9003  -32.4842   23.8409 C   0  0  1  0  0  0
  -27.2492  -27.4862   20.0758 C   0  0  0  0  0  0
  -25.5875  -33.8641   24.2344 N   0  0  0  0  0  0
  -23.3967  -30.4925   21.5524 C   0  0  2  0  0  0
  -24.8457  -28.9543   20.1240 C   0  0  0  0  0  0
  -22.7385  -29.4667   22.5026 C   0  0  0  0  0  0
  -18.0262  -28.1368   22.8497 C   0  0  0  0  0  0
  -24.1478  -36.7317   23.2638 C   0  0  0  0  0  0
  -25.9201  -30.8456   21.3615 C   0  0  0  0  0  0
  -26.0000  -29.4785   20.7199 C   0  0  0  0  0  0
  -27.2028  -28.7449   20.7068 C   0  0  0  0  0  0
  -26.0801  -26.9524   19.4956 C   0  0  0  0  0  0
  -24.8756  -27.6840   19.5186 C   0  0  0  0  0  0
  -23.6050  -29.8173   20.1696 C   0  0  0  0  0  0
  -25.4096  -36.3129   24.0348 C   0  0  1  0  0  0
  -20.5850  -28.3646   23.1345 C   0  0  2  0  0  0
  -20.6752  -26.9390   22.5432 C   0  0  0  0  0  0
  -19.5736  -26.6384   21.5220 C   0  0  0  0  0  0
  -18.1913  -26.7922   22.1622 C   0  0  0  0  0  0
  -19.1510  -28.8822   23.2920 C   0  0  0  0  0  0
  -18.9441  -30.1431   23.8928 C   0  0  0  0  0  0
  -17.6447  -30.6582   24.0568 C   0  0  0  0  0  0
  -25.9023  -34.9493   23.5142 C   0  0  0  0  0  0
  -16.5336  -29.9085   23.6327 C   0  0  0  0  0  0
  -16.7254  -28.6503   23.0342 C   0  0  0  0  0  0
  -26.4447  -31.6608   25.0719 C   0  0  0  0  0  0
  -25.3734  -31.3708   26.1487 C   0  0  0  0  0  0
  -27.0256  -30.3058   24.6049 C   0  0  0  0  0  0
  -27.6044  -32.4310   25.7467 C   0  0  0  0  0  0
  -27.5584  -37.1802   24.8462 C   0  0  0  0  0  0
  -21.4121  -29.3017   22.3752 N   0  0  0  0  0  0
  -26.4287  -37.3811   23.9421 N   0  0  0  0  0  0
  -24.6600  -31.0834   22.1014 N   0  0  0  0  0  0
  -23.4169  -28.8224   23.3066 O   0  0  0  0  0  0
  -28.4339  -26.8043   19.9939 O   0  0  0  0  0  0
  -26.5588  -34.8944   22.4706 O   0  0  0  0  0  0
  -23.5298  -32.1454   23.7542 O   0  0  0  0  0  0
  -31.2808  -20.9579   21.2815 C   0  0  0  0  0  0
  -31.2904  -19.7069   21.9129 C   0  0  0  0  0  0
  -32.2270  -21.2870   20.2924 C   0  0  0  0  0  0
  -33.2314  -20.3365   19.9585 C   0  0  0  0  0  0
  -33.2253  -19.0543   20.5838 C   0  0  0  0  0  0
  -32.2551  -18.7338   21.5689 C   0  0  0  0  0  0
  -31.7645  -15.8665   23.8256 C   0  0  0  0  0  0
  -30.7276  -22.8814   18.9834 C   0  0  0  0  0  0
  -32.4090  -23.8028   20.6223 C   0  0  0  0  0  0
  -31.6786  -14.6218   22.9499 C   0  0  0  0  0  0
  -30.2223  -16.2785   22.0447 C   0  0  0  0  0  0
  -30.5970  -24.2880   18.3752 C   0  0  0  0  0  0
  -32.2094  -25.1921   19.9897 C   0  0  0  0  0  0
  -32.1146  -22.6648   19.6252 C   0  0  1  0  0  0
  -31.2375  -16.9891   22.9496 C   0  0  2  0  0  0
  -34.3112  -20.6930   18.9358 C   0  0  0  0  0  0
  -34.2553  -17.9990   20.1879 C   0  0  0  0  0  0
  -30.5986  -26.7187   18.9112 C   0  0  0  0  0  0
  -29.1011  -27.0292   18.7522 C   0  0  0  0  0  0
  -30.6466  -14.8755   21.9350 N   0  0  0  0  0  0
  -30.8530  -25.3379   19.3981 N   0  3  1  0  0  0
  -32.3242  -17.4869   22.1653 O   0  0  0  0  0  0
  -31.4537  -12.3847   19.0797 H   0  0  0  0  0  0
  -30.3088  -11.2664   19.7597 H   0  0  0  0  0  0
  -29.7056  -11.8129   17.3976 H   0  0  0  0  0  0
  -29.6421  -13.5186   17.7816 H   0  0  0  0  0  0
  -27.8295  -11.3119   18.8222 H   0  0  0  0  0  0
  -27.3458  -12.6375   17.7984 H   0  0  0  0  0  0
  -27.7215  -14.2567   19.5916 H   0  0  0  0  0  0
  -28.6524  -11.9520   21.3700 H   0  0  0  0  0  0
  -28.4703  -13.6122   21.8566 H   0  0  0  0  0  0
  -25.2769   -9.5679   22.4757 H   0  0  0  0  0  0
  -23.9968   -7.4656   22.7495 H   0  0  0  0  0  0
  -21.0829   -8.8802   19.8964 H   0  0  0  0  0  0
  -22.3720  -10.9670   19.6145 H   0  0  0  0  0  0
  -21.2025   -7.6162   23.9710 H   0  0  0  0  0  0
  -21.1448   -6.0534   25.9068 H   0  0  0  0  0  0
  -22.0609   -2.7616   23.2840 H   0  0  0  0  0  0
  -22.4101  -11.9846   22.4729 H   0  0  0  0  0  0
  -21.1148  -13.1276   22.2643 H   0  0  0  0  0  0
  -24.6738  -15.8531   20.5148 H   0  0  0  0  0  0
  -26.2961  -15.6249   20.1061 H   0  0  0  0  0  0
  -26.7078  -32.5568   23.1185 H   0  0  0  0  0  0
  -25.0040  -33.9816   25.0498 H   0  0  0  0  0  0
  -22.6831  -31.3074   21.4118 H   0  0  0  0  0  0
  -23.3753  -35.9634   23.3297 H   0  0  0  0  0  0
  -24.3585  -36.8926   22.2053 H   0  0  0  0  0  0
  -23.7213  -37.6516   23.6646 H   0  0  0  0  0  0
  -26.0214  -31.6057   20.5856 H   0  0  0  0  0  0
  -26.8131  -30.9086   21.9714 H   0  0  0  0  0  0
  -28.0982  -29.1529   21.1546 H   0  0  0  0  0  0
  -26.1056  -25.9854   19.0128 H   0  0  0  0  0  0
  -23.9865  -27.2711   19.0614 H   0  0  0  0  0  0
  -23.7108  -30.5891   19.4068 H   0  0  0  0  0  0
  -22.7306  -29.2330   19.8772 H   0  0  0  0  0  0
  -25.1270  -36.1997   25.0842 H   0  0  0  0  0  0
  -20.9939  -28.3200   24.1468 H   0  0  0  0  0  0
  -20.5646  -26.2255   23.3612 H   0  0  0  0  0  0
  -21.6624  -26.7438   22.1223 H   0  0  0  0  0  0
  -19.6899  -25.6302   21.1229 H   0  0  0  0  0  0
  -19.6690  -27.3210   20.6763 H   0  0  0  0  0  0
  -17.4197  -26.6688   21.4012 H   0  0  0  0  0  0
  -18.0298  -26.0054   22.9000 H   0  0  0  0  0  0
  -19.7921  -30.7237   24.2309 H   0  0  0  0  0  0
  -17.5008  -31.6268   24.5159 H   0  0  0  0  0  0
  -15.5339  -30.2998   23.7643 H   0  0  0  0  0  0
  -15.8651  -28.0841   22.7036 H   0  0  0  0  0  0
  -24.5904  -30.7051   25.7840 H   0  0  0  0  0  0
  -24.8924  -32.2860   26.4949 H   0  0  0  0  0  0
  -25.8107  -30.8881   27.0238 H   0  0  0  0  0  0
  -26.2772  -29.6841   24.1122 H   0  0  0  0  0  0
  -27.4066  -29.7270   25.4472 H   0  0  0  0  0  0
  -27.8590  -30.4389   23.9148 H   0  0  0  0  0  0
  -27.2682  -33.3606   26.2073 H   0  0  0  0  0  0
  -28.3833  -32.6877   25.0273 H   0  0  0  0  0  0
  -28.0732  -31.8413   26.5356 H   0  0  0  0  0  0
  -28.2596  -38.0109   24.7544 H   0  0  0  0  0  0
  -28.1089  -36.2650   24.6232 H   0  0  0  0  0  0
  -27.2322  -37.1377   25.8869 H   0  0  0  0  0  0
  -20.9273  -29.8736   21.6980 H   0  0  0  0  0  0
  -26.0183  -38.2887   24.1448 H   0  0  0  0  0  0
  -30.5266  -21.6733   21.5750 H   0  0  0  0  0  0
  -30.5341  -19.5378   22.6622 H   0  0  0  0  0  0
  -32.7727  -16.0539   24.1995 H   0  0  0  0  0  0
  -31.1132  -15.7453   24.6911 H   0  0  0  0  0  0
  -30.5556  -22.1311   18.2098 H   0  0  0  0  0  0
  -29.9298  -22.7484   19.7141 H   0  0  0  0  0  0
  -31.7646  -23.7189   21.4973 H   0  0  0  0  0  0
  -33.4313  -23.7145   20.9911 H   0  0  0  0  0  0
  -31.4359  -13.7361   23.5378 H   0  0  0  0  0  0
  -32.6518  -14.4416   22.4845 H   0  0  0  0  0  0
  -30.1166  -16.7802   21.0804 H   0  0  0  0  0  0
  -29.2384  -16.2881   22.5147 H   0  0  0  0  0  0
  -29.5970  -24.3927   17.9539 H   0  0  0  0  0  0
  -31.2967  -24.4033   17.5456 H   0  0  0  0  0  0
  -32.9634  -25.3672   19.2211 H   0  0  0  0  0  0
  -32.3627  -25.9532   20.7552 H   0  0  0  0  0  0
  -32.8331  -22.7503   18.8118 H   0  0  0  0  0  0
  -30.7865  -17.7422   23.5922 H   0  0  0  0  0  0
  -33.9004  -20.6718   17.9264 H   0  0  0  0  0  0
  -35.1722  -20.0280   18.9575 H   0  0  0  0  0  0
  -34.7135  -21.6879   19.1243 H   0  0  0  0  0  0
  -35.2515  -18.2852   20.5261 H   0  0  0  0  0  0
  -34.2788  -17.8790   19.1047 H   0  0  0  0  0  0
  -34.0435  -17.0125   20.6000 H   0  0  0  0  0  0
  -31.0108  -27.4369   19.6213 H   0  0  0  0  0  0
  -31.1227  -26.8864   17.9689 H   0  0  0  0  0  0
  -28.6439  -26.4256   17.9684 H   0  0  0  0  0  0
  -28.9955  -28.0705   18.4383 H   0  0  0  0  0  0
  -30.1907  -25.1963   20.1491 H   0  0  0  0  0  0
  1 25  1  0  0  0
  1 30  2  0  0  0
  1 90  1  0  0  0
  2  3  1  0  0  0
  2 25  1  0  0  0
  2 93  1  0  0  0
  2 94  1  0  0  0
  3  4  1  0  0  0
  3 95  1  0  0  0
  3 96  1  0  0  0
  4  5  1  0  0  0
  4 97  1  0  0  0
  4 98  1  0  0  0
  5  6  1  0  0  0
  5 26  1  0  0  0
  5 99  1  0  0  0
  6 25  1  0  0  0
  6100  1  0  0  0
  6101  1  0  0  0
  7  8  2  0  0  0
  7 26  1  0  0  0
  7 29  1  0  0  0
  8  9  1  0  0  0
  8 22  1  0  0  0
  9 10  1  0  0  0
  9 27  2  0  0  0
 10 11  2  0  0  0
 10 15  1  0  0  0
 11 12  1  0  0  0
 11102  1  0  0  0
 12 13  2  0  0  0
 12103  1  0  0  0
 13 14  1  0  0  0
 13 31  1  0  0  0
 14 15  2  0  0  0
 14104  1  0  0  0
 15105  1  0  0  0
 16 17  2  0  0  0
 16 21  1  0  0  0
 16 31  1  0  0  0
 17 18  1  0  0  0
 17106  1  0  0  0
 18 19  2  0  0  0
 18107  1  0  0  0
 19 20  1  0  0  0
 19 24  1  0  0  0
 20 21  2  0  0  0
 20108  1  0  0  0
 21 23  1  0  0  0
 22 28  1  0  0  0
 22 32  2  0  0  0
 26 27  1  0  0  0
 28109  1  0  0  0
 28110  1  0  0  0
 29111  1  0  0  0
 29112  1  0  0  0
 33 34  1  0  0  0
 33 66  1  0  0  0
 33 70  2  0  0  0
 34 36  1  0  0  0
 34 59  1  0  0  0
 34113  1  0  0  0
 35 44  2  0  0  0
 35 45  1  0  0  0
 35 68  1  0  0  0
 36 56  1  0  0  0
 36114  1  0  0  0
 37 39  1  0  0  0
 37 47  1  0  0  0
 37 66  1  0  0  0
 37115  1  0  0  0
 38 43  2  0  0  0
 38 46  1  0  0  0
 38 47  1  0  0  0
 39 64  1  0  0  0
 39 67  2  0  0  0
 40 52  1  0  0  0
 40 53  2  0  0  0
 40 58  1  0  0  0
 41116  1  0  0  0
 41117  1  0  0  0
 41118  1  0  0  0
 41 48  1  0  0  0
 42 43  1  0  0  0
 42 66  1  0  0  0
 42119  1  0  0  0
 42120  1  0  0  0
 43 44  1  0  0  0
 44121  1  0  0  0
 45 46  2  0  0  0
 45122  1  0  0  0
 46123  1  0  0  0
 47124  1  0  0  0
 47125  1  0  0  0
 48 56  1  0  0  0
 48 65  1  0  0  0
 48126  1  0  0  0
 49 50  1  0  0  0
 49 53  1  0  0  0
 49 64  1  0  0  0
 49127  1  0  0  0
 50 51  1  0  0  0
 50128  1  0  0  0
 50129  1  0  0  0
 51 52  1  0  0  0
 51130  1  0  0  0
 51131  1  0  0  0
 52132  1  0  0  0
 52133  1  0  0  0
 53 54  1  0  0  0
 54 55  2  0  0  0
 54134  1  0  0  0
 55 57  1  0  0  0
 55135  1  0  0  0
 56 69  2  0  0  0
 57 58  2  0  0  0
 57136  1  0  0  0
 58137  1  0  0  0
 59 60  1  0  0  0
 59 61  1  0  0  0
 59 62  1  0  0  0
 60138  1  0  0  0
 60139  1  0  0  0
 60140  1  0  0  0
 61141  1  0  0  0
 61142  1  0  0  0
 61143  1  0  0  0
 62144  1  0  0  0
 62145  1  0  0  0
 62146  1  0  0  0
 63 65  1  0  0  0
 63147  1  0  0  0
 63148  1  0  0  0
 63149  1  0  0  0
 64150  1  0  0  0
 65151  1  0  0  0
 68 89  1  0  0  0
 71 72  2  0  0  0
 71 73  1  0  0  0
 71152  1  0  0  0
 72 76  1  0  0  0
 72153  1  0  0  0
 73 74  2  0  0  0
 73 84  1  0  0  0
 74 75  1  0  0  0
 74 86  1  0  0  0
 75 76  2  0  0  0
 75 87  1  0  0  0
 76 92  1  0  0  0
 77 80  1  0  0  0
 77 85  1  0  0  0
 77154  1  0  0  0
 77155  1  0  0  0
 78 82  1  0  0  0
 78 84  1  0  0  0
 78156  1  0  0  0
 78157  1  0  0  0
 79 83  1  0  0  0
 79 84  1  0  0  0
 79158  1  0  0  0
 79159  1  0  0  0
 80 90  1  0  0  0
 80160  1  0  0  0
 80161  1  0  0  0
 81 85  1  0  0  0
 81 90  1  0  0  0
 81162  1  0  0  0
 81163  1  0  0  0
 82 91  1  0  0  0
 82164  1  0  0  0
 82165  1  0  0  0
 83 91  1  0  0  0
 83166  1  0  0  0
 83167  1  0  0  0
 84168  1  0  0  0
 85 92  1  0  0  0
 85169  1  0  0  0
 86170  1  0  0  0
 86171  1  0  0  0
 86172  1  0  0  0
 87173  1  0  0  0
 87174  1  0  0  0
 87175  1  0  0  0
 88 89  1  0  0  0
 88176  1  0  0  0
 88177  1  0  0  0
 88 91  1  0  0  0
 89178  1  0  0  0
 89179  1  0  0  0
 91180  1  0  0  0
M  CHG  1  91   1
M  ISO  4   1 100  68 101  89 101  90 100
M  END
> <chiral flag>
0

> <version>
0

> <s_m_source_file>
/data/baiqing/PycharmProjects/Reinvent-master-3.2/result/LINK_invent/BTK/process_docking_weight1_custom_sum_contain_oxygen_bond_distance_aromatic_linkinvent_7_9_3/rearranged_h_0161.sdf

> <i_m_source_file_index>
8

> <r_mmod_Potential_Energy-OPLS-2005>
70.0512161254883

> <r_mmod_Stretch_Energy-OPLS-2005>
38.861400604248

> <r_mmod_Bend_Energy-OPLS-2005>
121.730094909668

> <r_mmod_Torsional_Energy-OPLS-2005>
401.136749267578

> <r_mmod_Improper_Torsional_Energy-OPLS-2005>
8.47629165649414

> <r_mmod_Van_der_Waal_Energy-OPLS-2005>
166.07600402832

> <r_mmod_Electrostatic_Energy-OPLS-2005>
-264.214111328125

> <r_mmod_Solvation_Energy-OPLS-2005>
-409.974151611328

> <b_mmod_Minimization_Converged-OPLS-2005>
0

> <r_mmod_RMS_Derivative-OPLS-2005>
2.16239905357361

$$$$
8
                    3D
 Structure written by MMmdl.
180190  0  0  1  0            999 V2000
  -30.7131  -14.5079   20.5565 C   0  0  0  0  0  0
  -30.4197  -12.3396   19.4071 C   0  0  0  0  0  0
  -29.4811  -12.5019   18.1939 C   0  0  0  0  0  0
  -28.0031  -12.3592   18.6145 C   0  0  0  0  0  0
  -27.6563  -13.1924   19.8783 C   0  0  2  0  0  0
  -28.7152  -12.9449   20.9803 C   0  0  0  0  0  0
  -25.2571  -13.8106   20.5664 C   0  0  0  0  0  0
  -24.1828  -13.0411   20.9201 C   0  0  0  0  0  0
  -24.6368  -11.6870   20.8773 C   0  0  0  0  0  0
  -23.9034  -10.4271   21.0429 C   0  0  0  0  0  0
  -24.3591   -9.4186   21.9207 C   0  0  0  0  0  0
  -23.6276   -8.2219   22.0762 C   0  0  0  0  0  0
  -22.4265   -8.0267   21.3540 C   0  0  0  0  0  0
  -21.9887   -9.0239   20.4649 C   0  0  0  0  0  0
  -22.7208  -10.2123   20.3069 C   0  0  0  0  0  0
  -21.6840   -6.0731   22.5285 C   0  0  0  0  0  0
  -21.4003   -6.5637   23.8217 C   0  0  0  0  0  0
  -21.3659   -5.6799   24.9189 C   0  0  0  0  0  0
  -21.6043   -4.3058   24.7228 C   0  0  0  0  0  0
  -21.8824   -3.8143   23.4348 C   0  0  0  0  0  0
  -21.9181   -4.6963   22.3408 C   0  0  0  0  0  0
  -22.7853  -13.5221   21.1851 C   0  0  0  0  0  0
  -22.1646   -4.2149   21.0983 F   0  0  0  0  0  0
  -21.5641   -3.4542   25.7735 F   0  0  0  0  0  0
  -30.0070  -13.3428   20.4108 N   0  0  0  0  0  0
  -26.2999  -12.9250   20.3424 N   0  0  0  0  0  0
  -25.9286  -11.6420   20.5817 N   0  0  0  0  0  0
  -22.0473  -12.8251   22.0419 N   0  0  0  0  0  0
  -25.4253  -15.1822   20.3964 N   0  0  0  0  0  0
  -31.8983  -14.5325   20.2037 O   0  0  0  0  0  0
  -21.6621   -6.8872   21.4243 O   0  0  0  0  0  0
  -22.3555  -14.5518   20.6677 O   0  0  0  0  0  0
  -24.6143  -31.8667   23.2112 C   0  0  0  0  0  0
  -25.9034  -32.4831   23.8392 C   0  0  1  0  0  0
  -27.2303  -27.4478   20.0933 C   0  0  0  0  0  0
  -25.5892  -33.8626   24.2329 N   0  0  0  0  0  0
  -23.4004  -30.4916   21.5521 C   0  0  2  0  0  0
  -24.8454  -28.9603   20.1131 C   0  0  0  0  0  0
  -22.7408  -29.4649   22.5002 C   0  0  0  0  0  0
  -18.0287  -28.1351   22.8506 C   0  0  0  0  0  0
  -24.1477  -36.7319   23.2639 C   0  0  0  0  0  0
  -25.9272  -30.8395   21.3601 C   0  0  0  0  0  0
  -26.0057  -29.4757   20.7050 C   0  0  0  0  0  0
  -27.2037  -28.7274   20.6897 C   0  0  0  0  0  0
  -26.0555  -26.9447   19.4932 C   0  0  0  0  0  0
  -24.8643  -27.6935   19.5036 C   0  0  0  0  0  0
  -23.6062  -29.8235   20.1664 C   0  0  0  0  0  0
  -25.4101  -36.3123   24.0339 C   0  0  1  0  0  0
  -20.5878  -28.3644   23.1342 C   0  0  2  0  0  0
  -20.6814  -26.9387   22.5420 C   0  0  0  0  0  0
  -19.5770  -26.6342   21.5240 C   0  0  0  0  0  0
  -18.1942  -26.7896   22.1643 C   0  0  0  0  0  0
  -19.1535  -28.8810   23.2930 C   0  0  0  0  0  0
  -18.9469  -30.1413   23.8936 C   0  0  0  0  0  0
  -17.6470  -30.6565   24.0597 C   0  0  0  0  0  0
  -25.9027  -34.9484   23.5134 C   0  0  0  0  0  0
  -16.5363  -29.9073   23.6343 C   0  0  0  0  0  0
  -16.7278  -28.6487   23.0358 C   0  0  0  0  0  0
  -26.4467  -31.6601   25.0711 C   0  0  0  0  0  0
  -25.3741  -31.3696   26.1466 C   0  0  0  0  0  0
  -27.0291  -30.3040   24.6081 C   0  0  0  0  0  0
  -27.6046  -32.4313   25.7474 C   0  0  0  0  0  0
  -27.5578  -37.1813   24.8464 C   0  0  0  0  0  0
  -21.4137  -29.3034   22.3761 N   0  0  0  0  0  0
  -26.4289  -37.3804   23.9408 N   0  0  0  0  0  0
  -24.6659  -31.0784   22.1001 N   0  0  0  0  0  0
  -23.4197  -28.8178   23.3022 O   0  0  0  0  0  0
  -28.3811  -26.6925   20.1206 O   0  0  0  0  0  0
  -26.5582  -34.8938   22.4693 O   0  0  0  0  0  0
  -23.5344  -32.1394   23.7534 O   0  0  0  0  0  0
  -28.5392  -19.9234   21.7592 C   0  0  0  0  0  0
  -26.9179  -22.2286   22.3764 C   0  0  0  0  0  0
  -28.2825  -20.9370   20.7654 C   0  0  0  0  0  0
  -28.0581  -20.1650   23.0832 C   0  0  0  0  0  0
  -27.4752  -22.0847   21.0754 C   0  0  0  0  0  0
  -27.2841  -21.3062   23.3794 C   0  0  0  0  0  0
  -24.6805  -23.0801   23.5356 C   0  0  0  0  0  0
  -24.5640  -23.4227   22.0785 C   0  0  0  0  0  0
  -28.2629  -17.3790   21.5316 C   0  0  0  0  0  0
  -30.1402  -18.2807   20.2948 C   0  0  0  0  0  0
  -28.9269  -15.9871   21.6503 C   0  0  0  0  0  0
  -30.8749  -16.9264   20.3955 C   0  0  0  0  0  0
  -29.2559  -18.5485   21.5165 C   0  0  0  0  0  0
  -25.9375  -23.3333   22.7210 C   0  0  0  0  0  0
  -28.8374  -20.8065   19.3451 C   0  0  0  0  0  0
  -28.3042  -19.2182   24.2664 C   0  0  0  0  0  0
  -27.5062  -22.5061   25.3896 C   0  0  0  0  0  0
  -27.1427  -23.1436   19.9983 C   0  0  0  0  0  0
  -28.2207  -24.2315   19.7413 C   0  0  0  0  0  0
  -28.2260  -25.4075   20.7454 C   0  0  0  0  0  0
  -30.0668  -15.7178   20.7366 N   0  0  0  0  0  0
  -26.8508  -21.4662   24.6739 O   0  0  0  0  0  0
  -31.4579  -12.4467   19.0875 H   0  0  0  0  0  0
  -30.3510  -11.3301   19.8147 H   0  0  0  0  0  0
  -29.7215  -11.7635   17.4275 H   0  0  0  0  0  0
  -29.6405  -13.4786   17.7346 H   0  0  0  0  0  0
  -27.8165  -11.3014   18.8067 H   0  0  0  0  0  0
  -27.3481  -12.6383   17.7876 H   0  0  0  0  0  0
  -27.7009  -14.2377   19.5751 H   0  0  0  0  0  0
  -28.7355  -11.8814   21.2230 H   0  0  0  0  0  0
  -28.5037  -13.4056   21.9427 H   0  0  0  0  0  0
  -25.2734   -9.5657   22.4788 H   0  0  0  0  0  0
  -23.9979   -7.4603   22.7475 H   0  0  0  0  0  0
  -21.0817   -8.8749   19.8956 H   0  0  0  0  0  0
  -22.3666  -10.9666   19.6181 H   0  0  0  0  0  0
  -21.1990   -7.6144   23.9727 H   0  0  0  0  0  0
  -21.1484   -6.0523   25.9100 H   0  0  0  0  0  0
  -22.0600   -2.7600   23.2843 H   0  0  0  0  0  0
  -22.4053  -11.9905   22.4820 H   0  0  0  0  0  0
  -21.1100  -13.1318   22.2601 H   0  0  0  0  0  0
  -24.6517  -15.8314   20.4851 H   0  0  0  0  0  0
  -26.2726  -15.6189   20.0567 H   0  0  0  0  0  0
  -26.7115  -32.5546   23.1171 H   0  0  0  0  0  0
  -25.0055  -33.9771   25.0486 H   0  0  0  0  0  0
  -22.6913  -31.3108   21.4163 H   0  0  0  0  0  0
  -23.3745  -35.9648   23.3314 H   0  0  0  0  0  0
  -24.3572  -36.8910   22.2051 H   0  0  0  0  0  0
  -23.7223  -37.6531   23.6632 H   0  0  0  0  0  0
  -26.0370  -31.6092   20.5958 H   0  0  0  0  0  0
  -26.8168  -30.8919   21.9767 H   0  0  0  0  0  0
  -28.1000  -29.1153   21.1531 H   0  0  0  0  0  0
  -26.0564  -25.9736   19.0213 H   0  0  0  0  0  0
  -23.9711  -27.2928   19.0454 H   0  0  0  0  0  0
  -23.7137  -30.5978   19.4058 H   0  0  0  0  0  0
  -22.7307  -29.2407   19.8725 H   0  0  0  0  0  0
  -25.1290  -36.1989   25.0834 H   0  0  0  0  0  0
  -20.9989  -28.3222   24.1455 H   0  0  0  0  0  0
  -20.5764  -26.2240   23.3589 H   0  0  0  0  0  0
  -21.6686  -26.7464   22.1191 H   0  0  0  0  0  0
  -19.6918  -25.6239   21.1299 H   0  0  0  0  0  0
  -19.6699  -27.3120   20.6744 H   0  0  0  0  0  0
  -17.4218  -26.6616   21.4049 H   0  0  0  0  0  0
  -18.0360  -26.0051   22.9059 H   0  0  0  0  0  0
  -19.7953  -30.7219   24.2303 H   0  0  0  0  0  0
  -17.5027  -31.6253   24.5191 H   0  0  0  0  0  0
  -15.5363  -30.2987   23.7633 H   0  0  0  0  0  0
  -15.8672  -28.0828   22.7047 H   0  0  0  0  0  0
  -24.5924  -30.7033   25.7803 H   0  0  0  0  0  0
  -24.8932  -32.2852   26.4916 H   0  0  0  0  0  0
  -25.8111  -30.8863   27.0215 H   0  0  0  0  0  0
  -26.2823  -29.6819   24.1140 H   0  0  0  0  0  0
  -27.4064  -29.7267   25.4536 H   0  0  0  0  0  0
  -27.8660  -30.4369   23.9226 H   0  0  0  0  0  0
  -27.2665  -33.3598   26.2093 H   0  0  0  0  0  0
  -28.3841  -32.6890   25.0290 H   0  0  0  0  0  0
  -28.0736  -31.8406   26.5359 H   0  0  0  0  0  0
  -28.2619  -38.0090   24.7520 H   0  0  0  0  0  0
  -28.1054  -36.2630   24.6292 H   0  0  0  0  0  0
  -27.2295  -37.1475   25.8865 H   0  0  0  0  0  0
  -20.9275  -29.8811   21.7050 H   0  0  0  0  0  0
  -26.0188  -38.2884   24.1414 H   0  0  0  0  0  0
  -24.4422  -22.0581   23.8234 H   0  0  0  0  0  0
  -24.3749  -23.8477   24.2436 H   0  0  0  0  0  0
  -24.1867  -24.4124   21.8279 H   0  0  0  0  0  0
  -24.2561  -22.6204   21.4107 H   0  0  0  0  0  0
  -27.5538  -17.4826   22.3521 H   0  0  0  0  0  0
  -27.6554  -17.4209   20.6266 H   0  0  0  0  0  0
  -29.5611  -18.2751   19.3729 H   0  0  0  0  0  0
  -30.9108  -19.0454   20.2131 H   0  0  0  0  0  0
  -28.0922  -15.3259   21.4729 H   0  0  0  0  0  0
  -29.2567  -15.8183   22.6773 H   0  0  0  0  0  0
  -31.6731  -17.0160   21.1356 H   0  0  0  0  0  0
  -31.3684  -16.7838   19.4316 H   0  0  0  0  0  0
  -29.9673  -18.4403   22.3324 H   0  0  0  0  0  0
  -26.4633  -24.2529   22.9603 H   0  0  0  0  0  0
  -28.3595  -19.9828   18.8169 H   0  0  0  0  0  0
  -29.9140  -20.6748   19.3582 H   0  0  0  0  0  0
  -28.7197  -21.6805   18.7150 H   0  0  0  0  0  0
  -28.9445  -18.3600   24.0909 H   0  0  0  0  0  0
  -27.3523  -18.8237   24.6230 H   0  0  0  0  0  0
  -28.7564  -19.7703   25.0903 H   0  0  0  0  0  0
  -27.3649  -22.3524   26.4592 H   0  0  0  0  0  0
  -27.0970  -23.4858   25.1485 H   0  0  0  0  0  0
  -28.5795  -22.5210   25.1948 H   0  0  0  0  0  0
  -26.2030  -23.6480   20.1983 H   0  0  0  0  0  0
  -26.9045  -22.6334   19.0661 H   0  0  0  0  0  0
  -28.0252  -24.6465   18.7529 H   0  0  0  0  0  0
  -29.2155  -23.7901   19.6731 H   0  0  0  0  0  0
  -29.0381  -25.2690   21.4592 H   0  0  0  0  0  0
  -27.3192  -25.3992   21.3476 H   0  0  0  0  0  0
  1 25  1  0  0  0
  1 30  2  0  0  0
  1 91  1  0  0  0
  2  3  1  0  0  0
  2 25  1  0  0  0
  2 93  1  0  0  0
  2 94  1  0  0  0
  3  4  1  0  0  0
  3 95  1  0  0  0
  3 96  1  0  0  0
  4  5  1  0  0  0
  4 97  1  0  0  0
  4 98  1  0  0  0
  5  6  1  0  0  0
  5 26  1  0  0  0
  5 99  1  0  0  0
  6 25  1  0  0  0
  6100  1  0  0  0
  6101  1  0  0  0
  7  8  2  0  0  0
  7 26  1  0  0  0
  7 29  1  0  0  0
  8  9  1  0  0  0
  8 22  1  0  0  0
  9 10  1  0  0  0
  9 27  2  0  0  0
 10 11  2  0  0  0
 10 15  1  0  0  0
 11 12  1  0  0  0
 11102  1  0  0  0
 12 13  2  0  0  0
 12103  1  0  0  0
 13 14  1  0  0  0
 13 31  1  0  0  0
 14 15  2  0  0  0
 14104  1  0  0  0
 15105  1  0  0  0
 16 17  2  0  0  0
 16 21  1  0  0  0
 16 31  1  0  0  0
 17 18  1  0  0  0
 17106  1  0  0  0
 18 19  2  0  0  0
 18107  1  0  0  0
 19 20  1  0  0  0
 19 24  1  0  0  0
 20 21  2  0  0  0
 20108  1  0  0  0
 21 23  1  0  0  0
 22 28  1  0  0  0
 22 32  2  0  0  0
 26 27  1  0  0  0
 28109  1  0  0  0
 28110  1  0  0  0
 29111  1  0  0  0
 29112  1  0  0  0
 33 34  1  0  0  0
 33 66  1  0  0  0
 33 70  2  0  0  0
 34 36  1  0  0  0
 34 59  1  0  0  0
 34113  1  0  0  0
 35 44  2  0  0  0
 35 45  1  0  0  0
 35 68  1  0  0  0
 36 56  1  0  0  0
 36114  1  0  0  0
 37 39  1  0  0  0
 37 47  1  0  0  0
 37 66  1  0  0  0
 37115  1  0  0  0
 38 43  2  0  0  0
 38 46  1  0  0  0
 38 47  1  0  0  0
 39 64  1  0  0  0
 39 67  2  0  0  0
 40 52  1  0  0  0
 40 53  2  0  0  0
 40 58  1  0  0  0
 41116  1  0  0  0
 41117  1  0  0  0
 41118  1  0  0  0
 41 48  1  0  0  0
 42 43  1  0  0  0
 42 66  1  0  0  0
 42119  1  0  0  0
 42120  1  0  0  0
 43 44  1  0  0  0
 44121  1  0  0  0
 45 46  2  0  0  0
 45122  1  0  0  0
 46123  1  0  0  0
 47124  1  0  0  0
 47125  1  0  0  0
 48 56  1  0  0  0
 48 65  1  0  0  0
 48126  1  0  0  0
 49 50  1  0  0  0
 49 53  1  0  0  0
 49 64  1  0  0  0
 49127  1  0  0  0
 50 51  1  0  0  0
 50128  1  0  0  0
 50129  1  0  0  0
 51 52  1  0  0  0
 51130  1  0  0  0
 51131  1  0  0  0
 52132  1  0  0  0
 52133  1  0  0  0
 53 54  1  0  0  0
 54 55  2  0  0  0
 54134  1  0  0  0
 55 57  1  0  0  0
 55135  1  0  0  0
 56 69  2  0  0  0
 57 58  2  0  0  0
 57136  1  0  0  0
 58137  1  0  0  0
 59 60  1  0  0  0
 59 61  1  0  0  0
 59 62  1  0  0  0
 60138  1  0  0  0
 60139  1  0  0  0
 60140  1  0  0  0
 61141  1  0  0  0
 61142  1  0  0  0
 61143  1  0  0  0
 62144  1  0  0  0
 62145  1  0  0  0
 62146  1  0  0  0
 63 65  1  0  0  0
 63147  1  0  0  0
 63148  1  0  0  0
 63149  1  0  0  0
 64150  1  0  0  0
 65151  1  0  0  0
 68 90  1  0  0  0
 71 73  2  0  0  0
 71 74  1  0  0  0
 71 83  1  0  0  0
 72 75  2  0  0  0
 72 76  1  0  0  0
 72 84  1  0  0  0
 73 75  1  0  0  0
 73 85  1  0  0  0
 74 76  2  0  0  0
 74 86  1  0  0  0
 75 88  1  0  0  0
 76 92  1  0  0  0
 77 78  1  0  0  0
 77 84  1  0  0  0
 77152  1  0  0  0
 77153  1  0  0  0
 78 84  1  0  0  0
 78154  1  0  0  0
 78155  1  0  0  0
 79 81  1  0  0  0
 79 83  1  0  0  0
 79156  1  0  0  0
 79157  1  0  0  0
 80 82  1  0  0  0
 80 83  1  0  0  0
 80158  1  0  0  0
 80159  1  0  0  0
 81 91  1  0  0  0
 81160  1  0  0  0
 81161  1  0  0  0
 82 91  1  0  0  0
 82162  1  0  0  0
 82163  1  0  0  0
 83164  1  0  0  0
 84165  1  0  0  0
 85166  1  0  0  0
 85167  1  0  0  0
 85168  1  0  0  0
 86169  1  0  0  0
 86170  1  0  0  0
 86171  1  0  0  0
 87 92  1  0  0  0
 87172  1  0  0  0
 87173  1  0  0  0
 87174  1  0  0  0
 88 89  1  0  0  0
 88175  1  0  0  0
 88176  1  0  0  0
 89 90  1  0  0  0
 89177  1  0  0  0
 89178  1  0  0  0
 90179  1  0  0  0
 90180  1  0  0  0
M  ISO  4   1 100  68 101  90 101  91 100
M  END
> <chiral flag>
0

> <version>
0

> <s_m_source_file>
/data/baiqing/PycharmProjects/Reinvent-master-3.2/result/LINK_invent/BTK/process_docking_weight1_custom_sum_contain_oxygen_bond_distance_aromatic_linkinvent_7_9_3/rearranged_h_0161.sdf

> <i_m_source_file_index>
9

> <r_mmod_Potential_Energy-OPLS-2005>
316.287658691406

> <r_mmod_Stretch_Energy-OPLS-2005>
61.566764831543

> <r_mmod_Bend_Energy-OPLS-2005>
168.105514526367

> <r_mmod_Torsional_Energy-OPLS-2005>
391.342346191406

> <r_mmod_Improper_Torsional_Energy-OPLS-2005>
11.1161651611328

> <r_mmod_Van_der_Waal_Energy-OPLS-2005>
198.647659301758

> <r_mmod_Electrostatic_Energy-OPLS-2005>
-339.036468505859

> <r_mmod_Solvation_Energy-OPLS-2005>
-196.157318115234

> <b_mmod_Minimization_Converged-OPLS-2005>
0

> <r_mmod_RMS_Derivative-OPLS-2005>
2.07902932167053

$$$$
9
                    3D
 Structure written by MMmdl.
164173  0  0  1  0            999 V2000
  -30.5125  -15.0131   20.4819 C   0  0  0  0  0  0
  -30.4596  -12.6506   19.4874 C   0  0  0  0  0  0
  -29.5310  -12.5418   18.2519 C   0  0  0  0  0  0
  -28.0590  -12.3109   18.6583 C   0  0  0  0  0  0
  -27.6339  -13.2138   19.8434 C   0  0  2  0  0  0
  -28.6959  -13.1781   20.9721 C   0  0  0  0  0  0
  -25.2381  -13.7967   20.5531 C   0  0  0  0  0  0
  -24.1740  -13.0249   20.9204 C   0  0  0  0  0  0
  -24.6374  -11.6751   20.8791 C   0  0  0  0  0  0
  -23.9036  -10.4151   21.0395 C   0  0  0  0  0  0
  -24.3547   -9.4062   21.9202 C   0  0  0  0  0  0
  -23.6195   -8.2115   22.0776 C   0  0  0  0  0  0
  -22.4199   -8.0147   21.3534 C   0  0  0  0  0  0
  -21.9837   -9.0132   20.4643 C   0  0  0  0  0  0
  -22.7186  -10.2007   20.3068 C   0  0  0  0  0  0
  -21.6772   -6.0650   22.5271 C   0  0  0  0  0  0
  -21.3947   -6.5596   23.8193 C   0  0  0  0  0  0
  -21.3622   -5.6780   24.9172 C   0  0  0  0  0  0
  -21.6025   -4.3046   24.7258 C   0  0  0  0  0  0
  -21.8840   -3.8107   23.4394 C   0  0  0  0  0  0
  -21.9187   -4.6882   22.3414 C   0  0  0  0  0  0
  -22.7771  -13.5072   21.1861 C   0  0  0  0  0  0
  -22.1716   -4.2090   21.1012 F   0  0  0  0  0  0
  -21.5626   -3.4572   25.7792 F   0  0  0  0  0  0
  -29.9318  -13.7292   20.3846 N   0  0  0  0  0  0
  -26.2883  -12.9198   20.3241 N   0  0  0  0  0  0
  -25.9304  -11.6363   20.5787 N   0  0  0  0  0  0
  -22.0380  -12.8147   22.0452 N   0  0  0  0  0  0
  -25.3704  -15.1644   20.3571 N   0  0  0  0  0  0
  -31.7191  -15.0539   20.1909 O   0  0  0  0  0  0
  -21.6557   -6.8743   21.4217 O   0  0  0  0  0  0
  -22.3508  -14.5410   20.6706 O   0  0  0  0  0  0
  -24.6465  -31.8466   23.1926 C   0  0  0  0  0  0
  -25.9271  -32.4725   23.8298 C   0  0  1  0  0  0
  -27.2155  -27.1280   20.1832 C   0  0  0  0  0  0
  -25.6031  -33.8517   24.2258 N   0  0  0  0  0  0
  -23.4492  -30.4668   21.5390 C   0  0  2  0  0  0
  -24.9003  -28.8950   20.1125 C   0  0  0  0  0  0
  -22.7534  -29.4548   22.4856 C   0  0  0  0  0  0
  -18.0301  -28.1389   22.8455 C   0  0  0  0  0  0
  -24.1459  -36.7165   23.2625 C   0  0  0  0  0  0
  -26.0049  -30.7237   21.3861 C   0  0  0  0  0  0
  -26.0804  -29.3341   20.7253 C   0  0  0  0  0  0
  -27.2430  -28.4733   20.7334 C   0  0  0  0  0  0
  -26.0077  -26.7916   19.5322 C   0  0  0  0  0  0
  -24.8774  -27.6343   19.4998 C   0  0  0  0  0  0
  -23.6784  -29.7995   20.1564 C   0  0  0  0  0  0
  -25.4106  -36.3004   24.0329 C   0  0  1  0  0  0
  -20.5922  -28.3699   23.1218 C   0  0  2  0  0  0
  -20.6753  -26.9388   22.5368 C   0  0  0  0  0  0
  -19.5771  -26.6386   21.5132 C   0  0  0  0  0  0
  -18.1972  -26.7961   22.1559 C   0  0  0  0  0  0
  -19.1561  -28.8865   23.2860 C   0  0  0  0  0  0
  -18.9467  -30.1441   23.8924 C   0  0  0  0  0  0
  -17.6472  -30.6607   24.0521 C   0  0  0  0  0  0
  -25.9062  -34.9392   23.5090 C   0  0  0  0  0  0
  -16.5366  -29.9077   23.6322 C   0  0  0  0  0  0
  -16.7282  -28.6472   23.0401 C   0  0  0  0  0  0
  -26.4613  -31.6573   25.0702 C   0  0  0  0  0  0
  -25.3801  -31.3749   26.1404 C   0  0  0  0  0  0
  -27.0414  -30.2969   24.6194 C   0  0  0  0  0  0
  -27.6211  -32.4250   25.7489 C   0  0  0  0  0  0
  -27.5568  -37.1732   24.8495 C   0  0  0  0  0  0
  -21.4243  -29.3026   22.3581 N   0  0  0  0  0  0
  -26.4259  -37.3727   23.9454 N   0  0  0  0  0  0
  -24.7203  -31.0291   22.0970 N   0  0  0  0  0  0
  -23.4162  -28.8063   23.2982 O   0  0  0  0  0  0
  -28.2523  -26.1272   20.3044 O   0  0  0  0  0  0
  -26.5587  -34.8887   22.4608 O   0  0  0  0  0  0
  -23.5585  -32.1340   23.7127 O   0  0  0  0  0  0
  -30.3573  -21.0354   21.7472 C   0  0  0  0  0  0
  -30.4662  -22.3494   22.2585 C   0  0  0  0  0  0
  -29.4694  -20.7064   20.7012 C   0  0  0  0  0  0
  -29.7027  -23.4446   21.7761 C   0  0  0  0  0  0
  -28.7315  -21.8881   20.1435 C   0  0  0  0  0  0
  -28.8229  -23.3004   20.6640 C   0  0  0  0  0  0
  -28.4291  -16.3650   21.2280 C   0  0  0  0  0  0
  -30.2917  -17.7760   20.6607 C   0  0  0  0  0  0
  -27.5768  -17.4536   20.5528 C   0  0  0  0  0  0
  -29.2640  -19.0964   20.3405 C   0  0  1  0  0  0
  -29.8281  -24.7589   22.5429 C   0  0  0  0  0  0
  -26.4946  -20.9567   19.1078 C   0  0  0  0  0  0
  -27.8668  -21.6286   18.8951 C   0  0  0  0  0  0
  -27.9053  -24.6116   20.2041 C   0  0  0  0  0  0
  -29.7861  -16.2625   20.6616 N   0  0  0  0  0  0
  -28.0447  -18.7268   20.9480 O   0  0  0  0  0  0
  -31.4771  -12.8672   19.1541 H   0  0  0  0  0  0
  -30.5285  -11.6953   20.0122 H   0  0  0  0  0  0
  -29.8673  -11.7374   17.5956 H   0  0  0  0  0  0
  -29.6042  -13.4603   17.6667 H   0  0  0  0  0  0
  -27.9419  -11.2569   18.9115 H   0  0  0  0  0  0
  -27.4099  -12.4887   17.8019 H   0  0  0  0  0  0
  -27.6014  -14.2118   19.4111 H   0  0  0  0  0  0
  -28.8379  -12.1504   21.3097 H   0  0  0  0  0  0
  -28.3971  -13.6934   21.8827 H   0  0  0  0  0  0
  -25.2662   -9.5455   22.4856 H   0  0  0  0  0  0
  -23.9811   -7.4498   22.7511 H   0  0  0  0  0  0
  -21.0766   -8.8633   19.8999 H   0  0  0  0  0  0
  -22.3587  -10.9558   19.6231 H   0  0  0  0  0  0
  -21.1931   -7.6117   23.9668 H   0  0  0  0  0  0
  -21.1431   -6.0538   25.9062 H   0  0  0  0  0  0
  -22.0681   -2.7571   23.2955 H   0  0  0  0  0  0
  -22.4044  -11.9929   22.5053 H   0  0  0  0  0  0
  -21.1068  -13.1330   22.2714 H   0  0  0  0  0  0
  -24.5609  -15.7738   20.4300 H   0  0  0  0  0  0
  -26.1060  -15.5587   19.7928 H   0  0  0  0  0  0
  -26.7319  -32.5346   23.0994 H   0  0  0  0  0  0
  -25.0323  -33.9662   25.0514 H   0  0  0  0  0  0
  -22.7523  -31.2920   21.3846 H   0  0  0  0  0  0
  -23.3785  -35.9437   23.3310 H   0  0  0  0  0  0
  -24.3522  -36.8738   22.2022 H   0  0  0  0  0  0
  -23.7096  -37.6314   23.6630 H   0  0  0  0  0  0
  -26.1461  -31.4804   20.6139 H   0  0  0  0  0  0
  -26.8793  -30.7822   22.0182 H   0  0  0  0  0  0
  -28.1446  -28.8050   21.2299 H   0  0  0  0  0  0
  -25.8813  -25.8182   19.0812 H   0  0  0  0  0  0
  -23.9738  -27.2810   19.0249 H   0  0  0  0  0  0
  -23.8235  -30.5799   19.4082 H   0  0  0  0  0  0
  -22.7901  -29.2535   19.8347 H   0  0  0  0  0  0
  -25.1263  -36.1835   25.0814 H   0  0  0  0  0  0
  -21.0037  -28.3281   24.1326 H   0  0  0  0  0  0
  -20.5530  -26.2293   23.3561 H   0  0  0  0  0  0
  -21.6652  -26.7350   22.1232 H   0  0  0  0  0  0
  -19.6916  -25.6275   21.1204 H   0  0  0  0  0  0
  -19.6762  -27.3146   20.6628 H   0  0  0  0  0  0
  -17.4183  -26.6655   21.3998 H   0  0  0  0  0  0
  -18.0438  -26.0113   22.8969 H   0  0  0  0  0  0
  -19.7947  -30.7223   24.2368 H   0  0  0  0  0  0
  -17.5028  -31.6319   24.5047 H   0  0  0  0  0  0
  -15.5374  -30.2967   23.7688 H   0  0  0  0  0  0
  -15.8672  -28.0759   22.7218 H   0  0  0  0  0  0
  -24.6071  -30.6998   25.7735 H   0  0  0  0  0  0
  -24.8902  -32.2896   26.4732 H   0  0  0  0  0  0
  -25.8133  -30.9006   27.0216 H   0  0  0  0  0  0
  -26.2997  -29.6729   24.1206 H   0  0  0  0  0  0
  -27.4042  -29.7253   25.4740 H   0  0  0  0  0  0
  -27.8907  -30.4214   23.9485 H   0  0  0  0  0  0
  -27.3011  -33.3672   26.1947 H   0  0  0  0  0  0
  -28.4167  -32.6567   25.0404 H   0  0  0  0  0  0
  -28.0704  -31.8348   26.5479 H   0  0  0  0  0  0
  -28.2605  -38.0015   24.7569 H   0  0  0  0  0  0
  -28.1055  -36.2545   24.6334 H   0  0  0  0  0  0
  -27.2292  -37.1400   25.8900 H   0  0  0  0  0  0
  -20.9421  -29.8695   21.6739 H   0  0  0  0  0  0
  -26.0144  -38.2772   24.1549 H   0  0  0  0  0  0
  -30.9523  -20.2589   22.2108 H   0  0  0  0  0  0
  -31.1380  -22.5174   23.0939 H   0  0  0  0  0  0
  -27.8418  -15.4753   21.1203 H   0  0  0  0  0  0
  -28.4872  -16.5411   22.3025 H   0  0  0  0  0  0
  -30.6913  -17.9282   21.6646 H   0  0  0  0  0  0
  -31.1585  -17.8406   20.0026 H   0  0  0  0  0  0
  -26.5429  -17.4037   20.8933 H   0  0  0  0  0  0
  -27.5556  -17.3459   19.4660 H   0  0  0  0  0  0
  -29.1087  -19.0810   19.2620 H   0  0  0  0  0  0
  -30.2889  -24.6053   23.5232 H   0  0  0  0  0  0
  -28.8541  -25.1972   22.7418 H   0  0  0  0  0  0
  -30.4288  -25.4958   22.0020 H   0  0  0  0  0  0
  -25.9402  -20.9315   18.1622 H   0  0  0  0  0  0
  -25.8711  -21.4729   19.8378 H   0  0  0  0  0  0
  -26.5926  -19.9235   19.4261 H   0  0  0  0  0  0
  -28.4528  -21.0218   18.2026 H   0  0  0  0  0  0
  -27.7037  -22.5497   18.3465 H   0  0  0  0  0  0
  -27.0004  -24.5017   20.8007 H   0  0  0  0  0  0
  -27.5861  -24.4513   19.1818 H   0  0  0  0  0  0
  1 25  1  0  0  0
  1 30  2  0  0  0
  1 85  1  0  0  0
  2  3  1  0  0  0
  2 25  1  0  0  0
  2 87  1  0  0  0
  2 88  1  0  0  0
  3  4  1  0  0  0
  3 89  1  0  0  0
  3 90  1  0  0  0
  4  5  1  0  0  0
  4 91  1  0  0  0
  4 92  1  0  0  0
  5  6  1  0  0  0
  5 26  1  0  0  0
  5 93  1  0  0  0
  6 25  1  0  0  0
  6 94  1  0  0  0
  6 95  1  0  0  0
  7  8  2  0  0  0
  7 26  1  0  0  0
  7 29  1  0  0  0
  8  9  1  0  0  0
  8 22  1  0  0  0
  9 10  1  0  0  0
  9 27  2  0  0  0
 10 11  2  0  0  0
 10 15  1  0  0  0
 11 12  1  0  0  0
 11 96  1  0  0  0
 12 13  2  0  0  0
 12 97  1  0  0  0
 13 14  1  0  0  0
 13 31  1  0  0  0
 14 15  2  0  0  0
 14 98  1  0  0  0
 15 99  1  0  0  0
 16 17  2  0  0  0
 16 21  1  0  0  0
 16 31  1  0  0  0
 17 18  1  0  0  0
 17100  1  0  0  0
 18 19  2  0  0  0
 18101  1  0  0  0
 19 20  1  0  0  0
 19 24  1  0  0  0
 20 21  2  0  0  0
 20102  1  0  0  0
 21 23  1  0  0  0
 22 28  1  0  0  0
 22 32  2  0  0  0
 26 27  1  0  0  0
 28103  1  0  0  0
 28104  1  0  0  0
 29105  1  0  0  0
 29106  1  0  0  0
 33 34  1  0  0  0
 33 66  1  0  0  0
 33 70  2  0  0  0
 34 36  1  0  0  0
 34 59  1  0  0  0
 34107  1  0  0  0
 35 44  2  0  0  0
 35 45  1  0  0  0
 35 68  1  0  0  0
 36 56  1  0  0  0
 36108  1  0  0  0
 37 39  1  0  0  0
 37 47  1  0  0  0
 37 66  1  0  0  0
 37109  1  0  0  0
 38 43  2  0  0  0
 38 46  1  0  0  0
 38 47  1  0  0  0
 39 64  1  0  0  0
 39 67  2  0  0  0
 40 52  1  0  0  0
 40 53  2  0  0  0
 40 58  1  0  0  0
 41110  1  0  0  0
 41111  1  0  0  0
 41112  1  0  0  0
 41 48  1  0  0  0
 42 43  1  0  0  0
 42 66  1  0  0  0
 42113  1  0  0  0
 42114  1  0  0  0
 43 44  1  0  0  0
 44115  1  0  0  0
 45 46  2  0  0  0
 45116  1  0  0  0
 46117  1  0  0  0
 47118  1  0  0  0
 47119  1  0  0  0
 48 56  1  0  0  0
 48 65  1  0  0  0
 48120  1  0  0  0
 49 50  1  0  0  0
 49 53  1  0  0  0
 49 64  1  0  0  0
 49121  1  0  0  0
 50 51  1  0  0  0
 50122  1  0  0  0
 50123  1  0  0  0
 51 52  1  0  0  0
 51124  1  0  0  0
 51125  1  0  0  0
 52126  1  0  0  0
 52127  1  0  0  0
 53 54  1  0  0  0
 54 55  2  0  0  0
 54128  1  0  0  0
 55 57  1  0  0  0
 55129  1  0  0  0
 56 69  2  0  0  0
 57 58  2  0  0  0
 57130  1  0  0  0
 58131  1  0  0  0
 59 60  1  0  0  0
 59 61  1  0  0  0
 59 62  1  0  0  0
 60132  1  0  0  0
 60133  1  0  0  0
 60134  1  0  0  0
 61135  1  0  0  0
 61136  1  0  0  0
 61137  1  0  0  0
 62138  1  0  0  0
 62139  1  0  0  0
 62140  1  0  0  0
 63 65  1  0  0  0
 63141  1  0  0  0
 63142  1  0  0  0
 63143  1  0  0  0
 64144  1  0  0  0
 65145  1  0  0  0
 68 84  1  0  0  0
 71 72  2  0  0  0
 71 73  1  0  0  0
 71146  1  0  0  0
 72 74  1  0  0  0
 72147  1  0  0  0
 73 75  2  0  0  0
 73 80  1  0  0  0
 74 76  2  0  0  0
 74 81  1  0  0  0
 75 76  1  0  0  0
 75 83  1  0  0  0
 76 84  1  0  0  0
 77 79  1  0  0  0
 77 85  1  0  0  0
 77148  1  0  0  0
 77149  1  0  0  0
 78 80  1  0  0  0
 78 85  1  0  0  0
 78150  1  0  0  0
 78151  1  0  0  0
 79 86  1  0  0  0
 79152  1  0  0  0
 79153  1  0  0  0
 80 86  1  0  0  0
 80154  1  0  0  0
 81155  1  0  0  0
 81156  1  0  0  0
 81157  1  0  0  0
 82 83  1  0  0  0
 82158  1  0  0  0
 82159  1  0  0  0
 82160  1  0  0  0
 83161  1  0  0  0
 83162  1  0  0  0
 84163  1  0  0  0
 84164  1  0  0  0
M  ISO  4   1 100  68 101  84 101  85 100
M  END
> <chiral flag>
0

> <version>
0

> <s_m_source_file>
/data/baiqing/PycharmProjects/Reinvent-master-3.2/result/LINK_invent/BTK/process_docking_weight1_custom_sum_contain_oxygen_bond_distance_aromatic_linkinvent_7_9_3/rearranged_h_0161.sdf

> <i_m_source_file_index>
10

> <r_mmod_Potential_Energy-OPLS-2005>
755.425231933594

> <r_mmod_Stretch_Energy-OPLS-2005>
306.456390380859

> <r_mmod_Bend_Energy-OPLS-2005>
283.249237060547

> <r_mmod_Torsional_Energy-OPLS-2005>
319.062408447266

> <r_mmod_Improper_Torsional_Energy-OPLS-2005>
8.51206016540527

> <r_mmod_Van_der_Waal_Energy-OPLS-2005>
153.360427856445

> <r_mmod_Electrostatic_Energy-OPLS-2005>
-325.823486328125

> <r_mmod_Solvation_Energy-OPLS-2005>
-205.988677978516

> <b_mmod_Minimization_Converged-OPLS-2005>
0

> <r_mmod_RMS_Derivative-OPLS-2005>
7.20846271514893

$$$$
10
                    3D
 Structure written by MMmdl.
172182  0  0  1  0            999 V2000
  -30.5700  -14.8150   20.4548 C   0  0  0  0  0  0
  -30.4170  -12.5134   19.4869 C   0  0  0  0  0  0
  -29.5012  -12.5228   18.2409 C   0  0  0  0  0  0
  -28.0282  -12.3463   18.6546 C   0  0  0  0  0  0
  -27.6244  -13.2524   19.8437 C   0  0  2  0  0  0
  -28.6627  -13.2247   20.9805 C   0  0  0  0  0  0
  -25.2384  -13.8183   20.5770 C   0  0  0  0  0  0
  -24.1707  -13.0424   20.9152 C   0  0  0  0  0  0
  -24.6338  -11.6920   20.8732 C   0  0  0  0  0  0
  -23.9019  -10.4325   21.0387 C   0  0  0  0  0  0
  -24.3582   -9.4221   21.9152 C   0  0  0  0  0  0
  -23.6258   -8.2243   22.0709 C   0  0  0  0  0  0
  -22.4216   -8.0273   21.3521 C   0  0  0  0  0  0
  -21.9865   -9.0245   20.4615 C   0  0  0  0  0  0
  -22.7204  -10.2115   20.3025 C   0  0  0  0  0  0
  -21.6894   -6.0736   22.5294 C   0  0  0  0  0  0
  -21.4054   -6.5621   23.8222 C   0  0  0  0  0  0
  -21.3636   -5.6756   24.9176 C   0  0  0  0  0  0
  -21.6011   -4.3031   24.7200 C   0  0  0  0  0  0
  -21.8806   -3.8137   23.4306 C   0  0  0  0  0  0
  -21.9208   -4.6969   22.3394 C   0  0  0  0  0  0
  -22.7717  -13.5167   21.1774 C   0  0  0  0  0  0
  -22.1663   -4.2159   21.0972 F   0  0  0  0  0  0
  -21.5591   -3.4491   25.7677 F   0  0  0  0  0  0
  -29.9492  -13.5922   20.3857 N   0  0  0  0  0  0
  -26.2830  -12.9469   20.3279 N   0  0  0  0  0  0
  -25.9284  -11.6552   20.5770 N   0  0  0  0  0  0
  -22.0402  -12.8229   22.0397 N   0  0  0  0  0  0
  -25.3941  -15.1991   20.4340 N   0  0  0  0  0  0
  -31.7597  -14.8932   20.1287 O   0  0  0  0  0  0
  -21.6577   -6.8863   21.4273 O   0  0  0  0  0  0
  -22.3369  -14.5468   20.6564 O   0  0  0  0  0  0
  -24.6270  -31.8650   23.2042 C   0  0  0  0  0  0
  -25.9145  -32.4786   23.8354 C   0  0  1  0  0  0
  -27.1915  -27.2600   20.1404 C   0  0  0  0  0  0
  -25.5951  -33.8586   24.2281 N   0  0  0  0  0  0
  -23.4200  -30.4921   21.5500 C   0  0  2  0  0  0
  -24.8543  -28.9337   20.1084 C   0  0  0  0  0  0
  -22.7568  -29.4652   22.5017 C   0  0  0  0  0  0
  -18.0363  -28.1374   22.8575 C   0  0  0  0  0  0
  -24.1491  -36.7288   23.2638 C   0  0  0  0  0  0
  -25.9687  -30.7719   21.3856 C   0  0  0  0  0  0
  -26.0273  -29.3950   20.7238 C   0  0  0  0  0  0
  -27.1951  -28.5708   20.7260 C   0  0  0  0  0  0
  -25.9964  -26.8616   19.5009 C   0  0  0  0  0  0
  -24.8476  -27.6743   19.4837 C   0  0  0  0  0  0
  -23.6332  -29.8331   20.1601 C   0  0  0  0  0  0
  -25.4136  -36.3108   24.0334 C   0  0  1  0  0  0
  -20.5957  -28.3675   23.1350 C   0  0  2  0  0  0
  -20.6829  -26.9414   22.5435 C   0  0  0  0  0  0
  -19.5746  -26.6397   21.5304 C   0  0  0  0  0  0
  -18.1958  -26.7944   22.1696 C   0  0  0  0  0  0
  -19.1598  -28.8895   23.2945 C   0  0  0  0  0  0
  -18.9461  -30.1510   23.8933 C   0  0  0  0  0  0
  -17.6435  -30.6573   24.0598 C   0  0  0  0  0  0
  -25.9075  -34.9455   23.5128 C   0  0  0  0  0  0
  -16.5379  -29.9039   23.6314 C   0  0  0  0  0  0
  -16.7340  -28.6461   23.0375 C   0  0  0  0  0  0
  -26.4502  -31.6575   25.0740 C   0  0  0  0  0  0
  -25.3696  -31.3691   26.1438 C   0  0  0  0  0  0
  -27.0324  -30.2994   24.6155 C   0  0  0  0  0  0
  -27.6093  -32.4291   25.7472 C   0  0  0  0  0  0
  -27.5614  -37.1815   24.8483 C   0  0  0  0  0  0
  -21.4289  -29.3017   22.3767 N   0  0  0  0  0  0
  -26.4323  -37.3797   23.9419 N   0  0  0  0  0  0
  -24.6897  -31.0634   22.0989 N   0  0  0  0  0  0
  -23.4324  -28.8301   23.3148 O   0  0  0  0  0  0
  -28.2978  -26.3870   20.2318 O   0  0  0  0  0  0
  -26.5645  -34.8935   22.4687 O   0  0  0  0  0  0
  -23.5427  -32.1508   23.7339 O   0  0  0  0  0  0
  -28.0225  -23.7719   22.2067 C   0  0  0  0  0  0
  -27.8688  -22.5642   22.9775 C   0  0  0  0  0  0
  -28.2699  -23.6425   20.7967 C   0  0  0  0  0  0
  -27.8764  -21.2595   22.3797 C   0  0  0  0  0  0
  -28.4941  -22.2813   20.2737 C   0  0  0  0  0  0
  -28.3011  -21.0585   21.0414 C   0  0  0  0  0  0
  -27.7017  -25.7773   24.1901 C   0  0  0  0  0  0
  -26.5595  -25.7297   23.2217 C   0  0  0  0  0  0
  -29.7582  -18.7794   18.7682 C   0  0  0  0  0  0
  -29.9230  -17.2685   18.6597 C   0  0  0  0  0  0
  -27.9293  -25.2041   22.7919 C   0  0  0  0  0  0
  -29.4596  -18.6915   20.2769 C   0  0  1  0  0  0
  -29.1921  -17.0813   20.0018 C   0  0  1  0  0  0
  -27.7730  -22.6558   24.4972 C   0  0  0  0  0  0
  -27.4191  -20.0184   23.1635 C   0  0  0  0  0  0
  -28.9681  -22.0877   18.8387 C   0  0  0  0  0  0
  -28.2946  -24.9358   19.8199 C   0  0  0  0  0  0
  -28.3286  -19.6700   20.5566 N   0  0  0  0  0  0
  -29.8676  -15.9659   20.8238 N   0  0  0  0  0  0
  -31.4584  -12.6445   19.1901 H   0  0  0  0  0  0
  -30.3743  -11.5581   20.0139 H   0  0  0  0  0  0
  -29.7959  -11.7348   17.5521 H   0  0  0  0  0  0
  -29.6190  -13.4600   17.6968 H   0  0  0  0  0  0
  -27.8876  -11.3021   18.9231 H   0  0  0  0  0  0
  -27.3626  -12.5284   17.8080 H   0  0  0  0  0  0
  -27.6062  -14.2685   19.4445 H   0  0  0  0  0  0
  -28.7200  -12.2392   21.4473 H   0  0  0  0  0  0
  -28.3787  -13.9284   21.7649 H   0  0  0  0  0  0
  -25.2739   -9.5672   22.4703 H   0  0  0  0  0  0
  -23.9952   -7.4629   22.7412 H   0  0  0  0  0  0
  -21.0796   -8.8791   19.8917 H   0  0  0  0  0  0
  -22.3694  -10.9649   19.6083 H   0  0  0  0  0  0
  -21.2073   -7.6145   23.9755 H   0  0  0  0  0  0
  -21.1463   -6.0469   25.9071 H   0  0  0  0  0  0
  -22.0596   -2.7598   23.2821 H   0  0  0  0  0  0
  -22.4094  -11.9991   22.4969 H   0  0  0  0  0  0
  -21.1000  -13.1250   22.2437 H   0  0  0  0  0  0
  -24.6240  -15.8419   20.5931 H   0  0  0  0  0  0
  -26.2564  -15.6725   20.2158 H   0  0  0  0  0  0
  -26.7243  -32.5481   23.1119 H   0  0  0  0  0  0
  -25.0145  -33.9689   25.0457 H   0  0  0  0  0  0
  -22.7043  -31.3095   21.4186 H   0  0  0  0  0  0
  -23.3779  -35.9588   23.3316 H   0  0  0  0  0  0
  -24.3638  -36.8895   22.2059 H   0  0  0  0  0  0
  -23.7195  -37.6474   23.6654 H   0  0  0  0  0  0
  -26.1148  -31.5290   20.6149 H   0  0  0  0  0  0
  -26.8458  -30.8129   22.0193 H   0  0  0  0  0  0
  -28.0919  -28.9164   21.2176 H   0  0  0  0  0  0
  -25.8946  -25.9008   19.0256 H   0  0  0  0  0  0
  -23.9536  -27.3069   18.9902 H   0  0  0  0  0  0
  -23.7736  -30.6178   19.4134 H   0  0  0  0  0  0
  -22.7390  -29.2860   19.8496 H   0  0  0  0  0  0
  -25.1313  -36.1981   25.0828 H   0  0  0  0  0  0
  -21.0094  -28.3233   24.1451 H   0  0  0  0  0  0
  -20.5841  -26.2345   23.3662 H   0  0  0  0  0  0
  -21.6687  -26.7504   22.1173 H   0  0  0  0  0  0
  -19.6858  -25.6326   21.1290 H   0  0  0  0  0  0
  -19.6572  -27.3290   20.6888 H   0  0  0  0  0  0
  -17.4268  -26.6904   21.4029 H   0  0  0  0  0  0
  -18.0165  -26.0049   22.8991 H   0  0  0  0  0  0
  -19.7928  -30.7374   24.2281 H   0  0  0  0  0  0
  -17.4943  -31.6237   24.5183 H   0  0  0  0  0  0
  -15.5336  -30.2879   23.7580 H   0  0  0  0  0  0
  -15.8805  -28.0727   22.6990 H   0  0  0  0  0  0
  -24.5865  -30.7072   25.7736 H   0  0  0  0  0  0
  -24.8874  -32.2827   26.4904 H   0  0  0  0  0  0
  -25.7957  -30.8820   27.0197 H   0  0  0  0  0  0
  -26.2865  -29.6755   24.1209 H   0  0  0  0  0  0
  -27.4097  -29.7243   25.4614 H   0  0  0  0  0  0
  -27.8714  -30.4355   23.9330 H   0  0  0  0  0  0
  -27.2762  -33.3593   26.2063 H   0  0  0  0  0  0
  -28.3835  -32.6826   25.0231 H   0  0  0  0  0  0
  -28.0815  -31.8402   26.5331 H   0  0  0  0  0  0
  -28.2643  -38.0097   24.7579 H   0  0  0  0  0  0
  -28.1087  -36.2652   24.6249 H   0  0  0  0  0  0
  -27.2368  -37.1421   25.8887 H   0  0  0  0  0  0
  -20.9545  -29.8714   21.6919 H   0  0  0  0  0  0
  -26.0215  -38.2888   24.1349 H   0  0  0  0  0  0
  -27.6882  -25.1597   25.0754 H   0  0  0  0  0  0
  -28.0451  -26.7948   24.3831 H   0  0  0  0  0  0
  -26.1957  -26.6664   22.8000 H   0  0  0  0  0  0
  -25.7867  -25.0185   23.4864 H   0  0  0  0  0  0
  -28.8968  -19.1171   18.1857 H   0  0  0  0  0  0
  -30.6534  -19.3456   18.5075 H   0  0  0  0  0  0
  -30.9739  -16.9815   18.6553 H   0  0  0  0  0  0
  -29.4050  -16.8398   17.8026 H   0  0  0  0  0  0
  -28.6923  -25.8413   22.3502 H   0  0  0  0  0  0
  -30.3380  -18.8550   20.9035 H   0  0  0  0  0  0
  -28.1320  -16.8818   19.8160 H   0  0  0  0  0  0
  -28.6197  -23.2322   24.8679 H   0  0  0  0  0  0
  -27.8882  -21.7058   25.0181 H   0  0  0  0  0  0
  -26.8360  -23.0998   24.8368 H   0  0  0  0  0  0
  -28.2686  -19.4063   23.4736 H   0  0  0  0  0  0
  -26.7561  -19.4056   22.5499 H   0  0  0  0  0  0
  -26.7945  -20.2141   24.0301 H   0  0  0  0  0  0
  -29.1449  -23.0050   18.2816 H   0  0  0  0  0  0
  -28.2628  -21.4867   18.2655 H   0  0  0  0  0  0
  -29.9158  -21.5546   18.8695 H   0  0  0  0  0  0
  -27.5886  -24.7590   19.0123 H   0  0  0  0  0  0
  -29.2596  -24.8654   19.3201 H   0  0  0  0  0  0
  -27.5532  -19.1483   20.9469 H   0  0  0  0  0  0
  -30.3991  -16.4177   21.5544 H   0  0  0  0  0  0
  1 25  1  0  0  0
  1 30  2  0  0  0
  1 89  1  0  0  0
  2  3  1  0  0  0
  2 25  1  0  0  0
  2 90  1  0  0  0
  2 91  1  0  0  0
  3  4  1  0  0  0
  3 92  1  0  0  0
  3 93  1  0  0  0
  4  5  1  0  0  0
  4 94  1  0  0  0
  4 95  1  0  0  0
  5  6  1  0  0  0
  5 26  1  0  0  0
  5 96  1  0  0  0
  6 25  1  0  0  0
  6 97  1  0  0  0
  6 98  1  0  0  0
  7  8  2  0  0  0
  7 26  1  0  0  0
  7 29  1  0  0  0
  8  9  1  0  0  0
  8 22  1  0  0  0
  9 10  1  0  0  0
  9 27  2  0  0  0
 10 11  2  0  0  0
 10 15  1  0  0  0
 11 12  1  0  0  0
 11 99  1  0  0  0
 12 13  2  0  0  0
 12100  1  0  0  0
 13 14  1  0  0  0
 13 31  1  0  0  0
 14 15  2  0  0  0
 14101  1  0  0  0
 15102  1  0  0  0
 16 17  2  0  0  0
 16 21  1  0  0  0
 16 31  1  0  0  0
 17 18  1  0  0  0
 17103  1  0  0  0
 18 19  2  0  0  0
 18104  1  0  0  0
 19 20  1  0  0  0
 19 24  1  0  0  0
 20 21  2  0  0  0
 20105  1  0  0  0
 21 23  1  0  0  0
 22 28  1  0  0  0
 22 32  2  0  0  0
 26 27  1  0  0  0
 28106  1  0  0  0
 28107  1  0  0  0
 29108  1  0  0  0
 29109  1  0  0  0
 33 34  1  0  0  0
 33 66  1  0  0  0
 33 70  2  0  0  0
 34 36  1  0  0  0
 34 59  1  0  0  0
 34110  1  0  0  0
 35 44  2  0  0  0
 35 45  1  0  0  0
 35 68  1  0  0  0
 36 56  1  0  0  0
 36111  1  0  0  0
 37 39  1  0  0  0
 37 47  1  0  0  0
 37 66  1  0  0  0
 37112  1  0  0  0
 38 43  2  0  0  0
 38 46  1  0  0  0
 38 47  1  0  0  0
 39 64  1  0  0  0
 39 67  2  0  0  0
 40 52  1  0  0  0
 40 53  2  0  0  0
 40 58  1  0  0  0
 41113  1  0  0  0
 41114  1  0  0  0
 41115  1  0  0  0
 41 48  1  0  0  0
 42 43  1  0  0  0
 42 66  1  0  0  0
 42116  1  0  0  0
 42117  1  0  0  0
 43 44  1  0  0  0
 44118  1  0  0  0
 45 46  2  0  0  0
 45119  1  0  0  0
 46120  1  0  0  0
 47121  1  0  0  0
 47122  1  0  0  0
 48 56  1  0  0  0
 48 65  1  0  0  0
 48123  1  0  0  0
 49 50  1  0  0  0
 49 53  1  0  0  0
 49 64  1  0  0  0
 49124  1  0  0  0
 50 51  1  0  0  0
 50125  1  0  0  0
 50126  1  0  0  0
 51 52  1  0  0  0
 51127  1  0  0  0
 51128  1  0  0  0
 52129  1  0  0  0
 52130  1  0  0  0
 53 54  1  0  0  0
 54 55  2  0  0  0
 54131  1  0  0  0
 55 57  1  0  0  0
 55132  1  0  0  0
 56 69  2  0  0  0
 57 58  2  0  0  0
 57133  1  0  0  0
 58134  1  0  0  0
 59 60  1  0  0  0
 59 61  1  0  0  0
 59 62  1  0  0  0
 60135  1  0  0  0
 60136  1  0  0  0
 60137  1  0  0  0
 61138  1  0  0  0
 61139  1  0  0  0
 61140  1  0  0  0
 62141  1  0  0  0
 62142  1  0  0  0
 62143  1  0  0  0
 63 65  1  0  0  0
 63144  1  0  0  0
 63145  1  0  0  0
 63146  1  0  0  0
 64147  1  0  0  0
 65148  1  0  0  0
 68 87  1  0  0  0
 71 72  2  0  0  0
 71 73  1  0  0  0
 71 81  1  0  0  0
 72 74  1  0  0  0
 72 84  1  0  0  0
 73 75  2  0  0  0
 73 87  1  0  0  0
 74 76  2  0  0  0
 74 85  1  0  0  0
 75 76  1  0  0  0
 75 86  1  0  0  0
 76 88  1  0  0  0
 77 78  1  0  0  0
 77 81  1  0  0  0
 77149  1  0  0  0
 77150  1  0  0  0
 78 81  1  0  0  0
 78151  1  0  0  0
 78152  1  0  0  0
 79 80  1  0  0  0
 79 82  1  0  0  0
 79153  1  0  0  0
 79154  1  0  0  0
 80 83  1  0  0  0
 80155  1  0  0  0
 80156  1  0  0  0
 81157  1  0  0  0
 82 83  1  0  0  0
 82 88  1  0  0  0
 82158  1  0  0  0
 83 89  1  0  0  0
 83159  1  0  0  0
 84160  1  0  0  0
 84161  1  0  0  0
 84162  1  0  0  0
 85163  1  0  0  0
 85164  1  0  0  0
 85165  1  0  0  0
 86166  1  0  0  0
 86167  1  0  0  0
 86168  1  0  0  0
 87169  1  0  0  0
 87170  1  0  0  0
 88171  1  0  0  0
 89172  1  0  0  0
M  ISO  4   1 100  68 101  87 101  89 100
M  END
> <chiral flag>
0

> <version>
0

> <s_m_source_file>
/data/baiqing/PycharmProjects/Reinvent-master-3.2/result/LINK_invent/BTK/process_docking_weight1_custom_sum_contain_oxygen_bond_distance_aromatic_linkinvent_7_9_3/rearranged_h_0161.sdf

> <i_m_source_file_index>
11

> <r_mmod_Potential_Energy-OPLS-2005>
415.792358398438

> <r_mmod_Stretch_Energy-OPLS-2005>
163.662261962891

> <r_mmod_Bend_Energy-OPLS-2005>
297.938385009766

> <r_mmod_Torsional_Energy-OPLS-2005>
373.111389160156

> <r_mmod_Improper_Torsional_Energy-OPLS-2005>
10.0261449813843

> <r_mmod_Van_der_Waal_Energy-OPLS-2005>
155.226318359375

> <r_mmod_Electrostatic_Energy-OPLS-2005>
-491.212768554688

> <r_mmod_Solvation_Energy-OPLS-2005>
-201.315338134766

> <b_mmod_Minimization_Converged-OPLS-2005>
0

> <r_mmod_RMS_Derivative-OPLS-2005>
9.42680263519287

$$$$
11
                    3D
 Structure written by MMmdl.
178187  0  0  1  0            999 V2000
  -30.6862  -14.7433   20.4685 C   0  0  0  0  0  0
  -30.3965  -12.4738   19.4660 C   0  0  0  0  0  0
  -29.4780  -12.5229   18.2300 C   0  0  0  0  0  0
  -28.0096  -12.3386   18.6475 C   0  0  0  0  0  0
  -27.6185  -13.2384   19.8454 C   0  0  2  0  0  0
  -28.6721  -13.2243   20.9758 C   0  0  0  0  0  0
  -25.2396  -13.8231   20.5724 C   0  0  0  0  0  0
  -24.1717  -13.0425   20.9215 C   0  0  0  0  0  0
  -24.6363  -11.6931   20.8769 C   0  0  0  0  0  0
  -23.9080  -10.4311   21.0393 C   0  0  0  0  0  0
  -24.3635   -9.4252   21.9175 C   0  0  0  0  0  0
  -23.6315   -8.2287   22.0740 C   0  0  0  0  0  0
  -22.4286   -8.0313   21.3546 C   0  0  0  0  0  0
  -21.9941   -9.0286   20.4626 C   0  0  0  0  0  0
  -22.7259  -10.2165   20.3043 C   0  0  0  0  0  0
  -21.6889   -6.0759   22.5286 C   0  0  0  0  0  0
  -21.4041   -6.5652   23.8212 C   0  0  0  0  0  0
  -21.3644   -5.6795   24.9168 C   0  0  0  0  0  0
  -21.6044   -4.3060   24.7213 C   0  0  0  0  0  0
  -21.8812   -3.8159   23.4336 C   0  0  0  0  0  0
  -21.9198   -4.6996   22.3401 C   0  0  0  0  0  0
  -22.7732  -13.5192   21.1824 C   0  0  0  0  0  0
  -22.1630   -4.2198   21.0977 F   0  0  0  0  0  0
  -21.5638   -3.4525   25.7714 F   0  0  0  0  0  0
  -29.9718  -13.5632   20.3789 N   0  0  0  0  0  0
  -26.2826  -12.9433   20.3349 N   0  0  0  0  0  0
  -25.9291  -11.6578   20.5849 N   0  0  0  0  0  0
  -22.0426  -12.8164   22.0427 N   0  0  0  0  0  0
  -25.3980  -15.1953   20.4107 N   0  0  0  0  0  0
  -31.8782  -14.7260   20.1471 O   0  0  0  0  0  0
  -21.6644   -6.8913   21.4245 O   0  0  0  0  0  0
  -22.3412  -14.5497   20.6710 O   0  0  0  0  0  0
  -24.6333  -31.8576   23.2000 C   0  0  0  0  0  0
  -25.9153  -32.4765   23.8365 C   0  0  1  0  0  0
  -27.2305  -27.2702   20.1371 C   0  0  0  0  0  0
  -25.5939  -33.8564   24.2285 N   0  0  0  0  0  0
  -23.4291  -30.4825   21.5438 C   0  0  2  0  0  0
  -24.8806  -28.9398   20.1140 C   0  0  0  0  0  0
  -22.7512  -29.4646   22.4938 C   0  0  0  0  0  0
  -18.0285  -28.1394   22.8504 C   0  0  0  0  0  0
  -24.1488  -36.7268   23.2646 C   0  0  0  0  0  0
  -25.9793  -30.7794   21.3821 C   0  0  0  0  0  0
  -26.0563  -29.4044   20.7208 C   0  0  0  0  0  0
  -27.2344  -28.5862   20.7158 C   0  0  0  0  0  0
  -26.0338  -26.8923   19.4785 C   0  0  0  0  0  0
  -24.8765  -27.6907   19.4829 C   0  0  0  0  0  0
  -23.6471  -29.8189   20.1626 C   0  0  0  0  0  0
  -25.4127  -36.3067   24.0334 C   0  0  1  0  0  0
  -20.5896  -28.3724   23.1258 C   0  0  2  0  0  0
  -20.6779  -26.9437   22.5396 C   0  0  0  0  0  0
  -19.5737  -26.6398   21.5215 C   0  0  0  0  0  0
  -18.1913  -26.7938   22.1636 C   0  0  0  0  0  0
  -19.1541  -28.8881   23.2860 C   0  0  0  0  0  0
  -18.9465  -30.1483   23.8887 C   0  0  0  0  0  0
  -17.6465  -30.6599   24.0567 C   0  0  0  0  0  0
  -25.9068  -34.9442   23.5113 C   0  0  0  0  0  0
  -16.5353  -29.9095   23.6345 C   0  0  0  0  0  0
  -16.7275  -28.6502   23.0388 C   0  0  0  0  0  0
  -26.4508  -31.6578   25.0750 C   0  0  0  0  0  0
  -25.3716  -31.3695   26.1453 C   0  0  0  0  0  0
  -27.0388  -30.3003   24.6256 C   0  0  0  0  0  0
  -27.6059  -32.4341   25.7512 C   0  0  0  0  0  0
  -27.5579  -37.1791   24.8470 C   0  0  0  0  0  0
  -21.4223  -29.3067   22.3647 N   0  0  0  0  0  0
  -26.4298  -37.3779   23.9425 N   0  0  0  0  0  0
  -24.6987  -31.0547   22.0977 N   0  0  0  0  0  0
  -23.4210  -28.8207   23.3051 O   0  0  0  0  0  0
  -28.3032  -26.3419   20.2372 O   0  0  0  0  0  0
  -26.5631  -34.8905   22.4681 O   0  0  0  0  0  0
  -23.5487  -32.1392   23.7310 O   0  0  0  0  0  0
  -29.6216  -20.7284   20.7834 C   0  0  0  0  0  0
  -29.6642  -21.4150   19.5238 C   0  0  0  0  0  0
  -29.4957  -21.6061   21.9133 C   0  0  0  0  0  0
  -29.0670  -22.9810   21.7859 C   0  0  0  0  0  0
  -28.8692  -23.6069   20.5130 C   0  0  0  0  0  0
  -29.3102  -22.8261   19.3829 C   0  0  0  0  0  0
  -28.8267  -18.1603   20.0821 C   0  0  0  0  0  0
  -31.0652  -18.4074   21.0483 C   0  0  0  0  0  0
  -28.8543  -16.5938   20.4090 C   0  0  0  0  0  0
  -30.9640  -16.9484   21.6327 C   0  0  0  0  0  0
  -29.6884  -19.1155   20.9792 C   0  0  0  0  0  0
  -30.1151  -20.6048   18.3079 C   0  0  0  0  0  0
  -28.7225  -23.7782   23.0486 C   0  0  0  0  0  0
  -28.6397  -20.6258   24.1225 C   0  0  0  0  0  0
  -30.1072  -24.8627   18.0077 C   0  0  0  0  0  0
  -28.0909  -23.4780   17.1971 C   0  0  0  0  0  0
  -29.8593  -21.0595   23.2984 C   0  0  0  0  0  0
  -27.9109  -24.8939   20.3780 C   0  0  0  0  0  0
  -29.4100  -23.4909   17.9889 C   0  0  0  0  0  0
  -30.1287  -15.9597   20.8824 N   0  0  0  0  0  0
  -31.4396  -12.5606   19.1564 H   0  0  0  0  0  0
  -30.3102  -11.5099   19.9721 H   0  0  0  0  0  0
  -29.7607  -11.7496   17.5159 H   0  0  0  0  0  0
  -29.6030  -13.4770   17.7142 H   0  0  0  0  0  0
  -27.8630  -11.2886   18.9031 H   0  0  0  0  0  0
  -27.3531  -12.5371   17.8005 H   0  0  0  0  0  0
  -27.5703  -14.2426   19.4410 H   0  0  0  0  0  0
  -28.7116  -12.2455   21.4529 H   0  0  0  0  0  0
  -28.4030  -13.9332   21.7599 H   0  0  0  0  0  0
  -25.2796   -9.5752   22.4702 H   0  0  0  0  0  0
  -24.0041   -7.4702   22.7464 H   0  0  0  0  0  0
  -21.0875   -8.8820   19.8919 H   0  0  0  0  0  0
  -22.3730  -10.9703   19.6126 H   0  0  0  0  0  0
  -21.2035   -7.6146   23.9731 H   0  0  0  0  0  0
  -21.1453   -6.0508   25.9067 H   0  0  0  0  0  0
  -22.0602   -2.7627   23.2819 H   0  0  0  0  0  0
  -22.4128  -11.9841   22.4748 H   0  0  0  0  0  0
  -21.1058  -13.1170   22.2699 H   0  0  0  0  0  0
  -24.6270  -15.8484   20.5204 H   0  0  0  0  0  0
  -26.2562  -15.6443   20.1192 H   0  0  0  0  0  0
  -26.7247  -32.5417   23.1140 H   0  0  0  0  0  0
  -25.0061  -33.9711   25.0408 H   0  0  0  0  0  0
  -22.7253  -31.3035   21.3951 H   0  0  0  0  0  0
  -23.3766  -35.9575   23.3299 H   0  0  0  0  0  0
  -24.3574  -36.8904   22.2063 H   0  0  0  0  0  0
  -23.7210  -37.6448   23.6685 H   0  0  0  0  0  0
  -26.1236  -31.5526   20.6251 H   0  0  0  0  0  0
  -26.8541  -30.8178   22.0191 H   0  0  0  0  0  0
  -28.1333  -28.9386   21.2052 H   0  0  0  0  0  0
  -25.9378  -25.9548   18.9542 H   0  0  0  0  0  0
  -23.9828  -27.3284   18.9947 H   0  0  0  0  0  0
  -23.7637  -30.5922   19.4032 H   0  0  0  0  0  0
  -22.7676  -29.2459   19.8614 H   0  0  0  0  0  0
  -25.1302  -36.1920   25.0824 H   0  0  0  0  0  0
  -20.9965  -28.3297   24.1393 H   0  0  0  0  0  0
  -20.5707  -26.2340   23.3610 H   0  0  0  0  0  0
  -21.6644  -26.7468   22.1190 H   0  0  0  0  0  0
  -19.6898  -25.6303   21.1261 H   0  0  0  0  0  0
  -19.6658  -27.3214   20.6750 H   0  0  0  0  0  0
  -17.4184  -26.6728   21.4027 H   0  0  0  0  0  0
  -18.0288  -26.0070   22.9017 H   0  0  0  0  0  0
  -19.7931  -30.7308   24.2252 H   0  0  0  0  0  0
  -17.5005  -31.6268   24.5162 H   0  0  0  0  0  0
  -15.5354  -30.2999   23.7652 H   0  0  0  0  0  0
  -15.8679  -28.0802   22.7157 H   0  0  0  0  0  0
  -24.5925  -30.7020   25.7754 H   0  0  0  0  0  0
  -24.8872  -32.2840   26.4887 H   0  0  0  0  0  0
  -25.8040  -30.8862   27.0220 H   0  0  0  0  0  0
  -26.3006  -29.6718   24.1278 H   0  0  0  0  0  0
  -27.4046  -29.7308   25.4798 H   0  0  0  0  0  0
  -27.8872  -30.4281   23.9540 H   0  0  0  0  0  0
  -27.2679  -33.3677   26.2036 H   0  0  0  0  0  0
  -28.3885  -32.6863   25.0336 H   0  0  0  0  0  0
  -28.0706  -31.8493   26.5455 H   0  0  0  0  0  0
  -28.2579  -38.0098   24.7550 H   0  0  0  0  0  0
  -28.1091  -36.2641   24.6280 H   0  0  0  0  0  0
  -27.2277  -37.1400   25.8856 H   0  0  0  0  0  0
  -20.9425  -29.8760   21.6808 H   0  0  0  0  0  0
  -26.0159  -38.2838   24.1447 H   0  0  0  0  0  0
  -27.7891  -18.4986   20.1276 H   0  0  0  0  0  0
  -29.1032  -18.2686   19.0352 H   0  0  0  0  0  0
  -31.5370  -18.3694   20.0661 H   0  0  0  0  0  0
  -31.7390  -18.9815   21.6852 H   0  0  0  0  0  0
  -28.5333  -16.0929   19.4965 H   0  0  0  0  0  0
  -28.0890  -16.3789   21.1557 H   0  0  0  0  0  0
  -30.5519  -17.0054   22.6406 H   0  0  0  0  0  0
  -31.9746  -16.5681   21.7820 H   0  0  0  0  0  0
  -29.2447  -18.9490   21.9566 H   0  0  0  0  0  0
  -30.6449  -19.7032   18.5909 H   0  0  0  0  0  0
  -30.8622  -21.1069   17.7001 H   0  0  0  0  0  0
  -29.2633  -20.3272   17.6897 H   0  0  0  0  0  0
  -29.4825  -23.6934   23.8236 H   0  0  0  0  0  0
  -27.7750  -23.4316   23.4577 H   0  0  0  0  0  0
  -28.6175  -24.8463   22.8749 H   0  0  0  0  0  0
  -28.9461  -20.1867   25.0725 H   0  0  0  0  0  0
  -28.0442  -19.8899   23.5842 H   0  0  0  0  0  0
  -27.9894  -21.4668   24.3539 H   0  0  0  0  0  0
  -30.9352  -24.8718   18.7183 H   0  0  0  0  0  0
  -29.4352  -25.6749   18.2634 H   0  0  0  0  0  0
  -30.5242  -25.1034   17.0278 H   0  0  0  0  0  0
  -27.6302  -22.4904   17.2258 H   0  0  0  0  0  0
  -28.2714  -23.7105   16.1484 H   0  0  0  0  0  0
  -27.3553  -24.2004   17.5439 H   0  0  0  0  0  0
  -30.4535  -21.7912   23.8469 H   0  0  0  0  0  0
  -30.5585  -20.2286   23.2044 H   0  0  0  0  0  0
  -27.2098  -24.8600   21.2104 H   0  0  0  0  0  0
  -27.2792  -24.6006   19.5577 H   0  0  0  0  0  0
  -30.0938  -22.9197   17.3742 H   0  0  0  0  0  0
  1 25  1  0  0  0
  1 30  2  0  0  0
  1 90  1  0  0  0
  2  3  1  0  0  0
  2 25  1  0  0  0
  2 91  1  0  0  0
  2 92  1  0  0  0
  3  4  1  0  0  0
  3 93  1  0  0  0
  3 94  1  0  0  0
  4  5  1  0  0  0
  4 95  1  0  0  0
  4 96  1  0  0  0
  5  6  1  0  0  0
  5 26  1  0  0  0
  5 97  1  0  0  0
  6 25  1  0  0  0
  6 98  1  0  0  0
  6 99  1  0  0  0
  7  8  2  0  0  0
  7 26  1  0  0  0
  7 29  1  0  0  0
  8  9  1  0  0  0
  8 22  1  0  0  0
  9 10  1  0  0  0
  9 27  2  0  0  0
 10 11  2  0  0  0
 10 15  1  0  0  0
 11 12  1  0  0  0
 11100  1  0  0  0
 12 13  2  0  0  0
 12101  1  0  0  0
 13 14  1  0  0  0
 13 31  1  0  0  0
 14 15  2  0  0  0
 14102  1  0  0  0
 15103  1  0  0  0
 16 17  2  0  0  0
 16 21  1  0  0  0
 16 31  1  0  0  0
 17 18  1  0  0  0
 17104  1  0  0  0
 18 19  2  0  0  0
 18105  1  0  0  0
 19 20  1  0  0  0
 19 24  1  0  0  0
 20 21  2  0  0  0
 20106  1  0  0  0
 21 23  1  0  0  0
 22 28  1  0  0  0
 22 32  2  0  0  0
 26 27  1  0  0  0
 28107  1  0  0  0
 28108  1  0  0  0
 29109  1  0  0  0
 29110  1  0  0  0
 33 34  1  0  0  0
 33 66  1  0  0  0
 33 70  2  0  0  0
 34 36  1  0  0  0
 34 59  1  0  0  0
 34111  1  0  0  0
 35 44  2  0  0  0
 35 45  1  0  0  0
 35 68  1  0  0  0
 36 56  1  0  0  0
 36112  1  0  0  0
 37 39  1  0  0  0
 37 47  1  0  0  0
 37 66  1  0  0  0
 37113  1  0  0  0
 38 43  2  0  0  0
 38 46  1  0  0  0
 38 47  1  0  0  0
 39 64  1  0  0  0
 39 67  2  0  0  0
 40 52  1  0  0  0
 40 53  2  0  0  0
 40 58  1  0  0  0
 41114  1  0  0  0
 41115  1  0  0  0
 41116  1  0  0  0
 41 48  1  0  0  0
 42 43  1  0  0  0
 42 66  1  0  0  0
 42117  1  0  0  0
 42118  1  0  0  0
 43 44  1  0  0  0
 44119  1  0  0  0
 45 46  2  0  0  0
 45120  1  0  0  0
 46121  1  0  0  0
 47122  1  0  0  0
 47123  1  0  0  0
 48 56  1  0  0  0
 48 65  1  0  0  0
 48124  1  0  0  0
 49 50  1  0  0  0
 49 53  1  0  0  0
 49 64  1  0  0  0
 49125  1  0  0  0
 50 51  1  0  0  0
 50126  1  0  0  0
 50127  1  0  0  0
 51 52  1  0  0  0
 51128  1  0  0  0
 51129  1  0  0  0
 52130  1  0  0  0
 52131  1  0  0  0
 53 54  1  0  0  0
 54 55  2  0  0  0
 54132  1  0  0  0
 55 57  1  0  0  0
 55133  1  0  0  0
 56 69  2  0  0  0
 57 58  2  0  0  0
 57134  1  0  0  0
 58135  1  0  0  0
 59 60  1  0  0  0
 59 61  1  0  0  0
 59 62  1  0  0  0
 60136  1  0  0  0
 60137  1  0  0  0
 60138  1  0  0  0
 61139  1  0  0  0
 61140  1  0  0  0
 61141  1  0  0  0
 62142  1  0  0  0
 62143  1  0  0  0
 62144  1  0  0  0
 63 65  1  0  0  0
 63145  1  0  0  0
 63146  1  0  0  0
 63147  1  0  0  0
 64148  1  0  0  0
 65149  1  0  0  0
 68 88  1  0  0  0
 71 72  2  0  0  0
 71 73  1  0  0  0
 71 81  1  0  0  0
 72 76  1  0  0  0
 72 82  1  0  0  0
 73 74  2  0  0  0
 73 87  1  0  0  0
 74 75  1  0  0  0
 74 83  1  0  0  0
 75 76  2  0  0  0
 75 88  1  0  0  0
 76 89  1  0  0  0
 77 79  1  0  0  0
 77 81  1  0  0  0
 77150  1  0  0  0
 77151  1  0  0  0
 78 80  1  0  0  0
 78 81  1  0  0  0
 78152  1  0  0  0
 78153  1  0  0  0
 79 90  1  0  0  0
 79154  1  0  0  0
 79155  1  0  0  0
 80 90  1  0  0  0
 80156  1  0  0  0
 80157  1  0  0  0
 81158  1  0  0  0
 82159  1  0  0  0
 82160  1  0  0  0
 82161  1  0  0  0
 83162  1  0  0  0
 83163  1  0  0  0
 83164  1  0  0  0
 84 87  1  0  0  0
 84165  1  0  0  0
 84166  1  0  0  0
 84167  1  0  0  0
 85168  1  0  0  0
 85169  1  0  0  0
 85170  1  0  0  0
 85 89  1  0  0  0
 86 89  1  0  0  0
 86171  1  0  0  0
 86172  1  0  0  0
 86173  1  0  0  0
 87174  1  0  0  0
 87175  1  0  0  0
 88176  1  0  0  0
 88177  1  0  0  0
 89178  1  0  0  0
M  ISO  4   1 100  68 101  88 101  90 100
M  END
> <chiral flag>
0

> <version>
0

> <s_m_source_file>
/data/baiqing/PycharmProjects/Reinvent-master-3.2/result/LINK_invent/BTK/process_docking_weight1_custom_sum_contain_oxygen_bond_distance_aromatic_linkinvent_7_9_3/rearranged_h_0161.sdf

> <i_m_source_file_index>
12

> <r_mmod_Potential_Energy-OPLS-2005>
520.409057617188

> <r_mmod_Stretch_Energy-OPLS-2005>
141.42236328125

> <r_mmod_Bend_Energy-OPLS-2005>
220.064514160156

> <r_mmod_Torsional_Energy-OPLS-2005>
383.397888183594

> <r_mmod_Improper_Torsional_Energy-OPLS-2005>
4.74651288986206

> <r_mmod_Van_der_Waal_Energy-OPLS-2005>
181.298126220703

> <r_mmod_Electrostatic_Energy-OPLS-2005>
-311.647766113281

> <r_mmod_Solvation_Energy-OPLS-2005>
-189.869094848633

> <b_mmod_Minimization_Converged-OPLS-2005>
0

> <r_mmod_RMS_Derivative-OPLS-2005>
5.58136892318726

$$$$
12
                    3D
 Structure written by MMmdl.
173182  0  0  1  0            999 V2000
  -30.7098  -14.6158   20.5486 C   0  0  0  0  0  0
  -30.4127  -12.3977   19.4583 C   0  0  0  0  0  0
  -29.4939  -12.4955   18.2239 C   0  0  0  0  0  0
  -28.0244  -12.3079   18.6400 C   0  0  0  0  0  0
  -27.6419  -13.1995   19.8462 C   0  0  2  0  0  0
  -28.6864  -13.1004   20.9878 C   0  0  0  0  0  0
  -25.2522  -13.8125   20.5643 C   0  0  0  0  0  0
  -24.1805  -13.0413   20.9201 C   0  0  0  0  0  0
  -24.6367  -11.6881   20.8762 C   0  0  0  0  0  0
  -23.9048  -10.4269   21.0427 C   0  0  0  0  0  0
  -24.3611   -9.4185   21.9195 C   0  0  0  0  0  0
  -23.6289   -8.2222   22.0759 C   0  0  0  0  0  0
  -22.4270   -8.0268   21.3546 C   0  0  0  0  0  0
  -21.9903   -9.0244   20.4650 C   0  0  0  0  0  0
  -22.7229  -10.2122   20.3070 C   0  0  0  0  0  0
  -21.6848   -6.0729   22.5281 C   0  0  0  0  0  0
  -21.4012   -6.5638   23.8213 C   0  0  0  0  0  0
  -21.3656   -5.6792   24.9177 C   0  0  0  0  0  0
  -21.6044   -4.3055   24.7230 C   0  0  0  0  0  0
  -21.8823   -3.8145   23.4351 C   0  0  0  0  0  0
  -21.9192   -4.6957   22.3404 C   0  0  0  0  0  0
  -22.7836  -13.5213   21.1865 C   0  0  0  0  0  0
  -22.1663   -4.2143   21.0981 F   0  0  0  0  0  0
  -21.5621   -3.4537   25.7743 F   0  0  0  0  0  0
  -29.9974  -13.4446   20.4240 N   0  0  0  0  0  0
  -26.2920  -12.9277   20.3240 N   0  0  0  0  0  0
  -25.9277  -11.6457   20.5758 N   0  0  0  0  0  0
  -22.0485  -12.8212   22.0427 N   0  0  0  0  0  0
  -25.4188  -15.1841   20.3998 N   0  0  0  0  0  0
  -31.8587  -14.6653   20.0978 O   0  0  0  0  0  0
  -21.6630   -6.8868   21.4242 O   0  0  0  0  0  0
  -22.3522  -14.5512   20.6697 O   0  0  0  0  0  0
  -24.6202  -31.8621   23.2048 C   0  0  0  0  0  0
  -25.9077  -32.4788   23.8358 C   0  0  1  0  0  0
  -27.2337  -27.3631   20.1030 C   0  0  0  0  0  0
  -25.5910  -33.8591   24.2288 N   0  0  0  0  0  0
  -23.4122  -30.4848   21.5458 C   0  0  2  0  0  0
  -24.8590  -28.9422   20.1098 C   0  0  0  0  0  0
  -22.7443  -29.4631   22.4951 C   0  0  0  0  0  0
  -18.0279  -28.1383   22.8490 C   0  0  0  0  0  0
  -24.1488  -36.7302   23.2637 C   0  0  0  0  0  0
  -25.9477  -30.8045   21.3697 C   0  0  0  0  0  0
  -26.0219  -29.4342   20.7137 C   0  0  0  0  0  0
  -27.2068  -28.6506   20.7098 C   0  0  0  0  0  0
  -26.0428  -26.8985   19.4995 C   0  0  0  0  0  0
  -24.8679  -27.6764   19.4994 C   0  0  0  0  0  0
  -23.6248  -29.8177   20.1603 C   0  0  0  0  0  0
  -25.4110  -36.3092   24.0330 C   0  0  1  0  0  0
  -20.5875  -28.3683   23.1300 C   0  0  2  0  0  0
  -20.6769  -26.9405   22.5429 C   0  0  0  0  0  0
  -19.5752  -26.6383   21.5219 C   0  0  0  0  0  0
  -18.1924  -26.7930   22.1620 C   0  0  0  0  0  0
  -19.1530  -28.8848   23.2893 C   0  0  0  0  0  0
  -18.9458  -30.1452   23.8909 C   0  0  0  0  0  0
  -17.6457  -30.6588   24.0569 C   0  0  0  0  0  0
  -25.9046  -34.9461   23.5111 C   0  0  0  0  0  0
  -16.5349  -29.9092   23.6324 C   0  0  0  0  0  0
  -16.7267  -28.6507   23.0348 C   0  0  0  0  0  0
  -26.4481  -31.6591   25.0719 C   0  0  0  0  0  0
  -25.3731  -31.3725   26.1460 C   0  0  0  0  0  0
  -27.0309  -30.3015   24.6150 C   0  0  0  0  0  0
  -27.6054  -32.4320   25.7476 C   0  0  0  0  0  0
  -27.5587  -37.1794   24.8452 C   0  0  0  0  0  0
  -21.4163  -29.3037   22.3691 N   0  0  0  0  0  0
  -26.4286  -37.3790   23.9416 N   0  0  0  0  0  0
  -24.6785  -31.0665   22.0976 N   0  0  0  0  0  0
  -23.4187  -28.8177   23.3019 O   0  0  0  0  0  0
  -28.3856  -26.5797   20.1717 O   0  0  0  0  0  0
  -26.5618  -34.8919   22.4680 O   0  0  0  0  0  0
  -23.5381  -32.1404   23.7404 O   0  0  0  0  0  0
  -28.0172  -23.0160   19.0232 C   0  0  0  0  0  0
  -28.7513  -23.9989   19.7265 C   0  0  0  0  0  0
  -28.2857  -21.6249   19.1339 C   0  0  0  0  0  0
  -29.7277  -23.5245   20.6542 C   0  0  0  0  0  0
  -30.0288  -22.1188   20.7534 C   0  0  0  0  0  0
  -29.3293  -21.1501   19.9727 C   0  0  0  0  0  0
  -28.7387  -17.6719   20.3713 C   0  0  0  0  0  0
  -31.1181  -18.0975   20.9184 C   0  0  0  0  0  0
  -28.8444  -16.3320   21.1771 C   0  0  0  0  0  0
  -31.1114  -16.7734   21.7420 C   0  0  0  0  0  0
  -29.7311  -18.7859   20.8061 C   0  0  0  0  0  0
  -30.5166  -24.5295   21.4858 C   0  0  0  0  0  0
  -31.1902  -21.6303   21.6108 C   0  0  0  0  0  0
  -27.8326  -20.8319   16.7711 C   0  0  0  0  0  0
  -25.9807  -20.7602   18.5134 C   0  0  0  0  0  0
  -28.6264  -25.4859   19.2386 C   0  0  0  0  0  0
  -27.4930  -20.6536   18.2589 C   0  0  0  0  0  0
  -30.2048  -15.7412   21.1817 N   0  0  0  0  0  0
  -29.7832  -19.8328   19.7968 O   0  0  0  0  0  0
  -31.4552  -12.4855   19.1497 H   0  0  0  0  0  0
  -30.3332  -11.4106   19.9163 H   0  0  0  0  0  0
  -29.7706  -11.7420   17.4855 H   0  0  0  0  0  0
  -29.6231  -13.4645   17.7389 H   0  0  0  0  0  0
  -27.8820  -11.2570   18.8955 H   0  0  0  0  0  0
  -27.3639  -12.5089   17.7958 H   0  0  0  0  0  0
  -27.6378  -14.2030   19.4296 H   0  0  0  0  0  0
  -28.7094  -12.0868   21.3904 H   0  0  0  0  0  0
  -28.4271  -13.7367   21.8341 H   0  0  0  0  0  0
  -25.2761   -9.5652   22.4768 H   0  0  0  0  0  0
  -23.9989   -7.4612   22.7480 H   0  0  0  0  0  0
  -21.0834   -8.8780   19.8955 H   0  0  0  0  0  0
  -22.3702  -10.9674   19.6187 H   0  0  0  0  0  0
  -21.2011   -7.6147   23.9711 H   0  0  0  0  0  0
  -21.1471   -6.0524   25.9077 H   0  0  0  0  0  0
  -22.0607   -2.7609   23.2856 H   0  0  0  0  0  0
  -22.4111  -11.9878   22.4828 H   0  0  0  0  0  0
  -21.1098  -13.1231   22.2628 H   0  0  0  0  0  0
  -24.6484  -15.8341   20.5086 H   0  0  0  0  0  0
  -26.2612  -15.6244   20.0546 H   0  0  0  0  0  0
  -26.7148  -32.5474   23.1110 H   0  0  0  0  0  0
  -25.0041  -33.9742   25.0420 H   0  0  0  0  0  0
  -22.7038  -31.3038   21.4047 H   0  0  0  0  0  0
  -23.3756  -35.9629   23.3286 H   0  0  0  0  0  0
  -24.3579  -36.8938   22.2054 H   0  0  0  0  0  0
  -23.7235  -37.6495   23.6669 H   0  0  0  0  0  0
  -26.0730  -31.5690   20.6018 H   0  0  0  0  0  0
  -26.8307  -30.8543   21.9953 H   0  0  0  0  0  0
  -28.1010  -29.0236   21.1900 H   0  0  0  0  0  0
  -25.9869  -25.9155   19.0561 H   0  0  0  0  0  0
  -23.9701  -27.2859   19.0403 H   0  0  0  0  0  0
  -23.7401  -30.5942   19.4033 H   0  0  0  0  0  0
  -22.7459  -29.2446   19.8602 H   0  0  0  0  0  0
  -25.1286  -36.1941   25.0823 H   0  0  0  0  0  0
  -20.9967  -28.3268   24.1421 H   0  0  0  0  0  0
  -20.5658  -26.2293   23.3631 H   0  0  0  0  0  0
  -21.6643  -26.7438   22.1232 H   0  0  0  0  0  0
  -19.6912  -25.6299   21.1241 H   0  0  0  0  0  0
  -19.6690  -27.3199   20.6750 H   0  0  0  0  0  0
  -17.4202  -26.6697   21.4009 H   0  0  0  0  0  0
  -18.0304  -26.0064   22.9003 H   0  0  0  0  0  0
  -19.7935  -30.7262   24.2286 H   0  0  0  0  0  0
  -17.5015  -31.6264   24.5179 H   0  0  0  0  0  0
  -15.5349  -30.3001   23.7636 H   0  0  0  0  0  0
  -15.8668  -28.0825   22.7058 H   0  0  0  0  0  0
  -24.5917  -30.7052   25.7809 H   0  0  0  0  0  0
  -24.8904  -32.2886   26.4869 H   0  0  0  0  0  0
  -25.8073  -30.8932   27.0242 H   0  0  0  0  0  0
  -26.2865  -29.6772   24.1192 H   0  0  0  0  0  0
  -27.4031  -29.7262   25.4638 H   0  0  0  0  0  0
  -27.8726  -30.4297   23.9340 H   0  0  0  0  0  0
  -27.2673  -33.3619   26.2057 H   0  0  0  0  0  0
  -28.3851  -32.6881   25.0290 H   0  0  0  0  0  0
  -28.0735  -31.8442   26.5381 H   0  0  0  0  0  0
  -28.2583  -38.0115   24.7547 H   0  0  0  0  0  0
  -28.1109  -36.2654   24.6214 H   0  0  0  0  0  0
  -27.2321  -37.1369   25.8857 H   0  0  0  0  0  0
  -20.9329  -29.8755   21.6903 H   0  0  0  0  0  0
  -26.0168  -38.2856   24.1461 H   0  0  0  0  0  0
  -27.2810  -23.3430   18.3027 H   0  0  0  0  0  0
  -27.7208  -18.0569   20.4400 H   0  0  0  0  0  0
  -28.9006  -17.4480   19.3162 H   0  0  0  0  0  0
  -31.4912  -17.8829   19.9165 H   0  0  0  0  0  0
  -31.8390  -18.7808   21.3631 H   0  0  0  0  0  0
  -28.0998  -15.6576   20.7929 H   0  0  0  0  0  0
  -28.5475  -16.5093   22.2125 H   0  0  0  0  0  0
  -30.8037  -16.9886   22.7664 H   0  0  0  0  0  0
  -32.1338  -16.4018   21.8354 H   0  0  0  0  0  0
  -29.4323  -19.1917   21.7740 H   0  0  0  0  0  0
  -30.0371  -25.5032   21.5414 H   0  0  0  0  0  0
  -31.5152  -24.6697   21.0705 H   0  0  0  0  0  0
  -30.6109  -24.1906   22.5176 H   0  0  0  0  0  0
  -31.8385  -22.4185   21.9864 H   0  0  0  0  0  0
  -31.8311  -20.9805   21.0168 H   0  0  0  0  0  0
  -30.8199  -21.0657   22.4664 H   0  0  0  0  0  0
  -28.9009  -20.6992   16.5962 H   0  0  0  0  0  0
  -27.5562  -21.8214   16.4064 H   0  0  0  0  0  0
  -27.3083  -20.0969   16.1598 H   0  0  0  0  0  0
  -25.7499  -20.5931   19.5662 H   0  0  0  0  0  0
  -25.4353  -20.0120   17.9374 H   0  0  0  0  0  0
  -25.5854  -21.7375   18.2364 H   0  0  0  0  0  0
  -27.9698  -25.5382   18.3710 H   0  0  0  0  0  0
  -29.6030  -25.7120   18.8096 H   0  0  0  0  0  0
  -27.7703  -19.6347   18.5232 H   0  0  0  0  0  0
  1 25  1  0  0  0
  1 30  2  0  0  0
  1 88  1  0  0  0
  2  3  1  0  0  0
  2 25  1  0  0  0
  2 90  1  0  0  0
  2 91  1  0  0  0
  3  4  1  0  0  0
  3 92  1  0  0  0
  3 93  1  0  0  0
  4  5  1  0  0  0
  4 94  1  0  0  0
  4 95  1  0  0  0
  5  6  1  0  0  0
  5 26  1  0  0  0
  5 96  1  0  0  0
  6 25  1  0  0  0
  6 97  1  0  0  0
  6 98  1  0  0  0
  7  8  2  0  0  0
  7 26  1  0  0  0
  7 29  1  0  0  0
  8  9  1  0  0  0
  8 22  1  0  0  0
  9 10  1  0  0  0
  9 27  2  0  0  0
 10 11  2  0  0  0
 10 15  1  0  0  0
 11 12  1  0  0  0
 11 99  1  0  0  0
 12 13  2  0  0  0
 12100  1  0  0  0
 13 14  1  0  0  0
 13 31  1  0  0  0
 14 15  2  0  0  0
 14101  1  0  0  0
 15102  1  0  0  0
 16 17  2  0  0  0
 16 21  1  0  0  0
 16 31  1  0  0  0
 17 18  1  0  0  0
 17103  1  0  0  0
 18 19  2  0  0  0
 18104  1  0  0  0
 19 20  1  0  0  0
 19 24  1  0  0  0
 20 21  2  0  0  0
 20105  1  0  0  0
 21 23  1  0  0  0
 22 28  1  0  0  0
 22 32  2  0  0  0
 26 27  1  0  0  0
 28106  1  0  0  0
 28107  1  0  0  0
 29108  1  0  0  0
 29109  1  0  0  0
 33 34  1  0  0  0
 33 66  1  0  0  0
 33 70  2  0  0  0
 34 36  1  0  0  0
 34 59  1  0  0  0
 34110  1  0  0  0
 35 44  2  0  0  0
 35 45  1  0  0  0
 35 68  1  0  0  0
 36 56  1  0  0  0
 36111  1  0  0  0
 37 39  1  0  0  0
 37 47  1  0  0  0
 37 66  1  0  0  0
 37112  1  0  0  0
 38 43  2  0  0  0
 38 46  1  0  0  0
 38 47  1  0  0  0
 39 64  1  0  0  0
 39 67  2  0  0  0
 40 52  1  0  0  0
 40 53  2  0  0  0
 40 58  1  0  0  0
 41113  1  0  0  0
 41114  1  0  0  0
 41115  1  0  0  0
 41 48  1  0  0  0
 42 43  1  0  0  0
 42 66  1  0  0  0
 42116  1  0  0  0
 42117  1  0  0  0
 43 44  1  0  0  0
 44118  1  0  0  0
 45 46  2  0  0  0
 45119  1  0  0  0
 46120  1  0  0  0
 47121  1  0  0  0
 47122  1  0  0  0
 48 56  1  0  0  0
 48 65  1  0  0  0
 48123  1  0  0  0
 49 50  1  0  0  0
 49 53  1  0  0  0
 49 64  1  0  0  0
 49124  1  0  0  0
 50 51  1  0  0  0
 50125  1  0  0  0
 50126  1  0  0  0
 51 52  1  0  0  0
 51127  1  0  0  0
 51128  1  0  0  0
 52129  1  0  0  0
 52130  1  0  0  0
 53 54  1  0  0  0
 54 55  2  0  0  0
 54131  1  0  0  0
 55 57  1  0  0  0
 55132  1  0  0  0
 56 69  2  0  0  0
 57 58  2  0  0  0
 57133  1  0  0  0
 58134  1  0  0  0
 59 60  1  0  0  0
 59 61  1  0  0  0
 59 62  1  0  0  0
 60135  1  0  0  0
 60136  1  0  0  0
 60137  1  0  0  0
 61138  1  0  0  0
 61139  1  0  0  0
 61140  1  0  0  0
 62141  1  0  0  0
 62142  1  0  0  0
 62143  1  0  0  0
 63 65  1  0  0  0
 63144  1  0  0  0
 63145  1  0  0  0
 63146  1  0  0  0
 64147  1  0  0  0
 65148  1  0  0  0
 68 86  1  0  0  0
 71 72  2  0  0  0
 71 73  1  0  0  0
 71149  1  0  0  0
 72 74  1  0  0  0
 72 86  1  0  0  0
 73 76  2  0  0  0
 73 87  1  0  0  0
 74 75  2  0  0  0
 74 82  1  0  0  0
 75 76  1  0  0  0
 75 83  1  0  0  0
 76 89  1  0  0  0
 77 79  1  0  0  0
 77 81  1  0  0  0
 77150  1  0  0  0
 77151  1  0  0  0
 78 80  1  0  0  0
 78 81  1  0  0  0
 78152  1  0  0  0
 78153  1  0  0  0
 79 88  1  0  0  0
 79154  1  0  0  0
 79155  1  0  0  0
 80 88  1  0  0  0
 80156  1  0  0  0
 80157  1  0  0  0
 81 89  1  0  0  0
 81158  1  0  0  0
 82159  1  0  0  0
 82160  1  0  0  0
 82161  1  0  0  0
 83162  1  0  0  0
 83163  1  0  0  0
 83164  1  0  0  0
 84165  1  0  0  0
 84166  1  0  0  0
 84167  1  0  0  0
 84 87  1  0  0  0
 85 87  1  0  0  0
 85168  1  0  0  0
 85169  1  0  0  0
 85170  1  0  0  0
 86171  1  0  0  0
 86172  1  0  0  0
 87173  1  0  0  0
M  ISO  4   1 100  68 101  86 101  88 100
M  END
> <chiral flag>
0

> <version>
0

> <s_m_source_file>
/data/baiqing/PycharmProjects/Reinvent-master-3.2/result/LINK_invent/BTK/process_docking_weight1_custom_sum_contain_oxygen_bond_distance_aromatic_linkinvent_7_9_3/rearranged_h_0161.sdf

> <i_m_source_file_index>
13

> <r_mmod_Potential_Energy-OPLS-2005>
302.359069824219

> <r_mmod_Stretch_Energy-OPLS-2005>
71.7957077026367

> <r_mmod_Bend_Energy-OPLS-2005>
178.247055053711

> <r_mmod_Torsional_Energy-OPLS-2005>
347.092468261719

> <r_mmod_Improper_Torsional_Energy-OPLS-2005>
6.23506689071655

> <r_mmod_Van_der_Waal_Energy-OPLS-2005>
159.609878540039

> <r_mmod_Electrostatic_Energy-OPLS-2005>
-302.387329101562

> <r_mmod_Solvation_Energy-OPLS-2005>
-196.094314575195

> <b_mmod_Minimization_Converged-OPLS-2005>
0

> <r_mmod_RMS_Derivative-OPLS-2005>
0.927625417709351

$$$$
13
                    3D
 Structure written by MMmdl.
178187  0  0  1  0            999 V2000
  -30.7938  -14.3712   20.6691 C   0  0  0  0  0  0
  -30.4059  -12.2916   19.3986 C   0  0  0  0  0  0
  -29.4795  -12.5261   18.1912 C   0  0  0  0  0  0
  -28.0024  -12.3917   18.6054 C   0  0  0  0  0  0
  -27.6636  -13.2134   19.8770 C   0  0  2  0  0  0
  -28.7056  -12.9775   20.9944 C   0  0  0  0  0  0
  -25.2577  -13.8179   20.5679 C   0  0  0  0  0  0
  -24.1844  -13.0456   20.9160 C   0  0  0  0  0  0
  -24.6406  -11.6919   20.8732 C   0  0  0  0  0  0
  -23.9077  -10.4302   21.0402 C   0  0  0  0  0  0
  -24.3624   -9.4211   21.9178 C   0  0  0  0  0  0
  -23.6295   -8.2246   22.0755 C   0  0  0  0  0  0
  -22.4275   -8.0287   21.3555 C   0  0  0  0  0  0
  -21.9919   -9.0251   20.4646 C   0  0  0  0  0  0
  -22.7252  -10.2131   20.3044 C   0  0  0  0  0  0
  -21.6854   -6.0740   22.5284 C   0  0  0  0  0  0
  -21.4003   -6.5637   23.8221 C   0  0  0  0  0  0
  -21.3660   -5.6793   24.9182 C   0  0  0  0  0  0
  -21.6043   -4.3053   24.7235 C   0  0  0  0  0  0
  -21.8820   -3.8148   23.4354 C   0  0  0  0  0  0
  -21.9185   -4.6962   22.3413 C   0  0  0  0  0  0
  -22.7850  -13.5232   21.1820 C   0  0  0  0  0  0
  -22.1660   -4.2144   21.0992 F   0  0  0  0  0  0
  -21.5632   -3.4546   25.7752 F   0  0  0  0  0  0
  -30.0481  -13.2550   20.4523 N   0  0  0  0  0  0
  -26.3037  -12.9372   20.3379 N   0  0  0  0  0  0
  -25.9336  -11.6519   20.5770 N   0  0  0  0  0  0
  -22.0492  -12.8222   22.0364 N   0  0  0  0  0  0
  -25.4291  -15.1908   20.4087 N   0  0  0  0  0  0
  -31.8047  -14.6344   20.0118 O   0  0  0  0  0  0
  -21.6646   -6.8880   21.4250 O   0  0  0  0  0  0
  -22.3539  -14.5546   20.6675 O   0  0  0  0  0  0
  -24.6112  -31.8704   23.2086 C   0  0  0  0  0  0
  -25.9016  -32.4803   23.8382 C   0  0  1  0  0  0
  -27.2334  -27.4404   20.1143 C   0  0  0  0  0  0
  -25.5893  -33.8608   24.2327 N   0  0  0  0  0  0
  -23.3986  -30.4902   21.5477 C   0  0  2  0  0  0
  -24.8537  -28.9637   20.1034 C   0  0  0  0  0  0
  -22.7393  -29.4636   22.4969 C   0  0  0  0  0  0
  -18.0259  -28.1354   22.8467 C   0  0  0  0  0  0
  -24.1500  -36.7335   23.2645 C   0  0  0  0  0  0
  -25.9222  -30.8357   21.3606 C   0  0  0  0  0  0
  -26.0031  -29.4636   20.7281 C   0  0  0  0  0  0
  -27.1941  -28.7038   20.7474 C   0  0  0  0  0  0
  -26.0906  -26.9841   19.4306 C   0  0  0  0  0  0
  -24.8950  -27.7243   19.4425 C   0  0  0  0  0  0
  -23.6065  -29.8189   20.1598 C   0  0  0  0  0  0
  -25.4108  -36.3095   24.0336 C   0  0  1  0  0  0
  -20.5844  -28.3639   23.1305 C   0  0  2  0  0  0
  -20.6734  -26.9369   22.5405 C   0  0  0  0  0  0
  -19.5720  -26.6368   21.5194 C   0  0  0  0  0  0
  -18.1897  -26.7901   22.1599 C   0  0  0  0  0  0
  -19.1507  -28.8811   23.2868 C   0  0  0  0  0  0
  -18.9439  -30.1405   23.8898 C   0  0  0  0  0  0
  -17.6446  -30.6549   24.0556 C   0  0  0  0  0  0
  -25.9041  -34.9464   23.5125 C   0  0  0  0  0  0
  -16.5334  -29.9065   23.6307 C   0  0  0  0  0  0
  -16.7251  -28.6478   23.0332 C   0  0  0  0  0  0
  -26.4456  -31.6540   25.0670 C   0  0  0  0  0  0
  -25.3741  -31.3616   26.1423 C   0  0  0  0  0  0
  -27.0283  -30.3008   24.5935 C   0  0  0  0  0  0
  -27.6036  -32.4246   25.7445 C   0  0  0  0  0  0
  -27.5564  -37.1826   24.8456 C   0  0  0  0  0  0
  -21.4121  -29.3021   22.3735 N   0  0  0  0  0  0
  -26.4294  -37.3764   23.9395 N   0  0  0  0  0  0
  -24.6624  -31.0814   22.0980 N   0  0  0  0  0  0
  -23.4183  -28.8167   23.2987 O   0  0  0  0  0  0
  -28.3625  -26.6548   20.0998 O   0  0  0  0  0  0
  -26.5588  -34.8898   22.4670 O   0  0  0  0  0  0
  -23.5309  -32.1430   23.7492 O   0  0  0  0  0  0
  -31.2683  -18.6584   21.8416 C   0  0  0  0  0  0
  -29.5815  -17.7528   23.3076 C   0  0  0  0  0  0
  -29.8421  -20.2075   23.1383 C   0  0  0  0  0  0
  -30.6804  -17.5440   22.4641 C   0  0  0  0  0  0
  -30.8538  -19.9731   22.1556 C   0  0  0  0  0  0
  -29.1415  -19.0546   23.6322 C   0  0  0  0  0  0
  -29.5450  -21.7547   25.2296 C   0  0  0  0  0  0
  -27.4950  -22.6997   24.2490 C   0  0  0  0  0  0
  -29.6495  -21.6585   23.6864 C   0  0  2  0  0  0
  -28.3106  -22.6098   25.5488 C   0  0  1  0  0  0
  -28.4952  -22.5230   23.0790 C   0  0  2  0  0  0
  -31.5658  -21.1034   21.4246 C   0  0  0  0  0  0
  -27.9231  -19.0985   24.5369 C   0  0  0  0  0  0
  -26.6566  -24.5841   21.8100 C   0  0  0  0  0  0
  -31.2897  -16.1559   22.3104 C   0  0  0  0  0  0
  -28.7263  -26.0496   21.3526 C   0  0  0  0  0  0
  -28.1850  -24.5912   21.5546 C   0  0  2  0  0  0
  -30.4291  -15.1349   21.7077 N   0  0  0  0  0  0
  -27.5333  -22.1444   26.7173 N   0  3  0  0  0  0
  -28.9733  -23.8674   22.6139 N   0  3  0  0  0  0
  -31.4502  -12.3739   19.0904 H   0  0  0  0  0  0
  -30.2887  -11.2734   19.7742 H   0  0  0  0  0  0
  -29.7091  -11.8169   17.3940 H   0  0  0  0  0  0
  -29.6558  -13.5199   17.7763 H   0  0  0  0  0  0
  -27.7963  -11.3348   18.7775 H   0  0  0  0  0  0
  -27.3558  -12.6961   17.7805 H   0  0  0  0  0  0
  -27.7142  -14.2658   19.5963 H   0  0  0  0  0  0
  -28.6661  -11.9419   21.3337 H   0  0  0  0  0  0
  -28.4601  -13.5823   21.8665 H   0  0  0  0  0  0
  -25.2776   -9.5683   22.4751 H   0  0  0  0  0  0
  -24.0004   -7.4642   22.7479 H   0  0  0  0  0  0
  -21.0845   -8.8765   19.8957 H   0  0  0  0  0  0
  -22.3712  -10.9657   19.6139 H   0  0  0  0  0  0
  -21.1988   -7.6146   23.9716 H   0  0  0  0  0  0
  -21.1483   -6.0531   25.9086 H   0  0  0  0  0  0
  -22.0593   -2.7605   23.2868 H   0  0  0  0  0  0
  -22.4107  -11.9873   22.4747 H   0  0  0  0  0  0
  -21.1097  -13.1232   22.2555 H   0  0  0  0  0  0
  -24.6661  -15.8502   20.5191 H   0  0  0  0  0  0
  -26.2924  -15.6301   20.1137 H   0  0  0  0  0  0
  -26.7084  -32.5532   23.1166 H   0  0  0  0  0  0
  -25.0083  -33.9800   25.0487 H   0  0  0  0  0  0
  -22.6838  -31.3036   21.4073 H   0  0  0  0  0  0
  -23.3734  -35.9691   23.3307 H   0  0  0  0  0  0
  -24.3616  -36.8940   22.2061 H   0  0  0  0  0  0
  -23.7285  -37.6560   23.6657 H   0  0  0  0  0  0
  -26.0098  -31.5793   20.5677 H   0  0  0  0  0  0
  -26.8240  -30.9159   21.9560 H   0  0  0  0  0  0
  -28.0785  -29.0866   21.2347 H   0  0  0  0  0  0
  -26.1255  -26.0437   18.9001 H   0  0  0  0  0  0
  -24.0276  -27.3511   18.9160 H   0  0  0  0  0  0
  -23.6919  -30.5914   19.3944 H   0  0  0  0  0  0
  -22.7317  -29.2239   19.8825 H   0  0  0  0  0  0
  -25.1263  -36.1972   25.0825 H   0  0  0  0  0  0
  -20.9925  -28.3210   24.1423 H   0  0  0  0  0  0
  -20.5611  -26.2231   23.3578 H   0  0  0  0  0  0
  -21.6598  -26.7375   22.1208 H   0  0  0  0  0  0
  -19.6868  -25.6297   21.1168 H   0  0  0  0  0  0
  -19.6682  -27.3211   20.6765 H   0  0  0  0  0  0
  -17.4167  -26.6646   21.4004 H   0  0  0  0  0  0
  -18.0280  -26.0041   22.8997 H   0  0  0  0  0  0
  -19.7932  -30.7187   24.2273 H   0  0  0  0  0  0
  -17.5026  -31.6224   24.5156 H   0  0  0  0  0  0
  -15.5334  -30.2969   23.7627 H   0  0  0  0  0  0
  -15.8653  -28.0802   22.7052 H   0  0  0  0  0  0
  -24.5960  -30.6868   25.7824 H   0  0  0  0  0  0
  -24.8859  -32.2744   26.4866 H   0  0  0  0  0  0
  -25.8118  -30.8860   27.0203 H   0  0  0  0  0  0
  -26.2788  -29.6781   24.1038 H   0  0  0  0  0  0
  -27.4194  -29.7172   25.4279 H   0  0  0  0  0  0
  -27.8519  -30.4385   23.8916 H   0  0  0  0  0  0
  -27.2676  -33.3583   26.1972 H   0  0  0  0  0  0
  -28.3888  -32.6765   25.0299 H   0  0  0  0  0  0
  -28.0632  -31.8384   26.5413 H   0  0  0  0  0  0
  -28.2576  -38.0140   24.7482 H   0  0  0  0  0  0
  -28.1043  -36.2644   24.6282 H   0  0  0  0  0  0
  -27.2256  -37.1482   25.8857 H   0  0  0  0  0  0
  -20.9238  -29.8882   21.7096 H   0  0  0  0  0  0
  -26.0161  -38.2828   24.1391 H   0  0  0  0  0  0
  -32.0830  -18.5028   21.1468 H   0  0  0  0  0  0
  -29.0972  -16.8957   23.7544 H   0  0  0  0  0  0
  -30.4357  -22.2304   25.6422 H   0  0  0  0  0  0
  -29.5164  -20.7863   25.7174 H   0  0  0  0  0  0
  -26.9666  -23.6504   24.2238 H   0  0  0  0  0  0
  -26.7142  -21.9451   24.1925 H   0  0  0  0  0  0
  -30.5866  -22.1739   23.4781 H   0  0  0  0  0  0
  -28.6592  -23.6172   25.7812 H   0  0  0  0  0  0
  -28.0518  -21.9972   22.2302 H   0  0  0  0  0  0
  -31.9793  -20.7557   20.4755 H   0  0  0  0  0  0
  -32.3940  -21.4960   22.0182 H   0  0  0  0  0  0
  -30.8819  -21.9155   21.1820 H   0  0  0  0  0  0
  -27.2921  -18.2245   24.3664 H   0  0  0  0  0  0
  -27.2992  -19.9535   24.3265 H   0  0  0  0  0  0
  -28.1959  -19.0871   25.5911 H   0  0  0  0  0  0
  -26.1078  -24.9134   20.9346 H   0  0  0  0  0  0
  -26.3759  -25.2429   22.6344 H   0  0  0  0  0  0
  -26.2666  -23.5903   22.0219 H   0  0  0  0  0  0
  -31.5471  -15.8008   23.3092 H   0  0  0  0  0  0
  -32.2430  -16.2502   21.7875 H   0  0  0  0  0  0
  -29.8163  -26.0262   21.3582 H   0  0  0  0  0  0
  -28.4475  -26.6840   22.1968 H   0  0  0  0  0  0
  -28.3648  -24.0367   20.6329 H   0  0  0  0  0  0
  -29.5992  -14.8655   22.2126 H   0  0  0  0  0  0
  -27.1786  -21.2120   26.5995 H   0  0  0  0  0  0
  -26.7531  -22.7585   26.8813 H   0  0  0  0  0  0
  -28.1018  -22.1627   27.5468 H   0  0  0  0  0  0
  -29.8987  -23.7243   22.2379 H   0  0  0  0  0  0
  -29.0932  -24.4704   23.4154 H   0  0  0  0  0  0
  1 25  1  0  0  0
  1 30  2  0  0  0
  1 88  1  0  0  0
  2  3  1  0  0  0
  2 25  1  0  0  0
  2 91  1  0  0  0
  2 92  1  0  0  0
  3  4  1  0  0  0
  3 93  1  0  0  0
  3 94  1  0  0  0
  4  5  1  0  0  0
  4 95  1  0  0  0
  4 96  1  0  0  0
  5  6  1  0  0  0
  5 26  1  0  0  0
  5 97  1  0  0  0
  6 25  1  0  0  0
  6 98  1  0  0  0
  6 99  1  0  0  0
  7  8  2  0  0  0
  7 26  1  0  0  0
  7 29  1  0  0  0
  8  9  1  0  0  0
  8 22  1  0  0  0
  9 10  1  0  0  0
  9 27  2  0  0  0
 10 11  2  0  0  0
 10 15  1  0  0  0
 11 12  1  0  0  0
 11100  1  0  0  0
 12 13  2  0  0  0
 12101  1  0  0  0
 13 14  1  0  0  0
 13 31  1  0  0  0
 14 15  2  0  0  0
 14102  1  0  0  0
 15103  1  0  0  0
 16 17  2  0  0  0
 16 21  1  0  0  0
 16 31  1  0  0  0
 17 18  1  0  0  0
 17104  1  0  0  0
 18 19  2  0  0  0
 18105  1  0  0  0
 19 20  1  0  0  0
 19 24  1  0  0  0
 20 21  2  0  0  0
 20106  1  0  0  0
 21 23  1  0  0  0
 22 28  1  0  0  0
 22 32  2  0  0  0
 26 27  1  0  0  0
 28107  1  0  0  0
 28108  1  0  0  0
 29109  1  0  0  0
 29110  1  0  0  0
 33 34  1  0  0  0
 33 66  1  0  0  0
 33 70  2  0  0  0
 34 36  1  0  0  0
 34 59  1  0  0  0
 34111  1  0  0  0
 35 44  2  0  0  0
 35 45  1  0  0  0
 35 68  1  0  0  0
 36 56  1  0  0  0
 36112  1  0  0  0
 37 39  1  0  0  0
 37 47  1  0  0  0
 37 66  1  0  0  0
 37113  1  0  0  0
 38 43  2  0  0  0
 38 46  1  0  0  0
 38 47  1  0  0  0
 39 64  1  0  0  0
 39 67  2  0  0  0
 40 52  1  0  0  0
 40 53  2  0  0  0
 40 58  1  0  0  0
 41114  1  0  0  0
 41115  1  0  0  0
 41116  1  0  0  0
 41 48  1  0  0  0
 42 43  1  0  0  0
 42 66  1  0  0  0
 42117  1  0  0  0
 42118  1  0  0  0
 43 44  1  0  0  0
 44119  1  0  0  0
 45 46  2  0  0  0
 45120  1  0  0  0
 46121  1  0  0  0
 47122  1  0  0  0
 47123  1  0  0  0
 48 56  1  0  0  0
 48 65  1  0  0  0
 48124  1  0  0  0
 49 50  1  0  0  0
 49 53  1  0  0  0
 49 64  1  0  0  0
 49125  1  0  0  0
 50 51  1  0  0  0
 50126  1  0  0  0
 50127  1  0  0  0
 51 52  1  0  0  0
 51128  1  0  0  0
 51129  1  0  0  0
 52130  1  0  0  0
 52131  1  0  0  0
 53 54  1  0  0  0
 54 55  2  0  0  0
 54132  1  0  0  0
 55 57  1  0  0  0
 55133  1  0  0  0
 56 69  2  0  0  0
 57 58  2  0  0  0
 57134  1  0  0  0
 58135  1  0  0  0
 59 60  1  0  0  0
 59 61  1  0  0  0
 59 62  1  0  0  0
 60136  1  0  0  0
 60137  1  0  0  0
 60138  1  0  0  0
 61139  1  0  0  0
 61140  1  0  0  0
 61141  1  0  0  0
 62142  1  0  0  0
 62143  1  0  0  0
 62144  1  0  0  0
 63 65  1  0  0  0
 63145  1  0  0  0
 63146  1  0  0  0
 63147  1  0  0  0
 64148  1  0  0  0
 65149  1  0  0  0
 68 86  1  0  0  0
 71 74  2  0  0  0
 71 75  1  0  0  0
 71150  1  0  0  0
 72 74  1  0  0  0
 72 76  2  0  0  0
 72151  1  0  0  0
 73 75  2  0  0  0
 73 76  1  0  0  0
 73 79  1  0  0  0
 74 85  1  0  0  0
 75 82  1  0  0  0
 76 83  1  0  0  0
 77 79  1  0  0  0
 77 80  1  0  0  0
 77152  1  0  0  0
 77153  1  0  0  0
 78 80  1  0  0  0
 78 81  1  0  0  0
 78154  1  0  0  0
 78155  1  0  0  0
 79 81  1  0  0  0
 79156  1  0  0  0
 80 89  1  0  0  0
 80157  1  0  0  0
 81 90  1  0  0  0
 81158  1  0  0  0
 82159  1  0  0  0
 82160  1  0  0  0
 82161  1  0  0  0
 83162  1  0  0  0
 83163  1  0  0  0
 83164  1  0  0  0
 84165  1  0  0  0
 84166  1  0  0  0
 84167  1  0  0  0
 84 87  1  0  0  0
 85 88  1  0  0  0
 85168  1  0  0  0
 85169  1  0  0  0
 86 87  1  0  0  0
 86170  1  0  0  0
 86171  1  0  0  0
 87 90  1  0  0  0
 87172  1  0  0  0
 88173  1  0  0  0
 89174  1  0  0  0
 89175  1  0  0  0
 89176  1  0  0  0
 90177  1  0  0  0
 90178  1  0  0  0
M  CHG  2  89   1  90   1
M  ISO  4   1 100  68 101  86 101  88 100
M  END
> <chiral flag>
0

> <version>
0

> <s_m_source_file>
/data/baiqing/PycharmProjects/Reinvent-master-3.2/result/LINK_invent/BTK/process_docking_weight1_custom_sum_contain_oxygen_bond_distance_aromatic_linkinvent_7_9_3/rearranged_h_0161.sdf

> <i_m_source_file_index>
14

> <r_mmod_Potential_Energy-OPLS-2005>
-297.755218505859

> <r_mmod_Stretch_Energy-OPLS-2005>
48.2377014160156

> <r_mmod_Bend_Energy-OPLS-2005>
135.536819458008

> <r_mmod_Torsional_Energy-OPLS-2005>
335.491027832031

> <r_mmod_Improper_Torsional_Energy-OPLS-2005>
3.18629884719849

> <r_mmod_Van_der_Waal_Energy-OPLS-2005>
158.486846923828

> <r_mmod_Electrostatic_Energy-OPLS-2005>
22.7882118225098

> <r_mmod_Solvation_Energy-OPLS-2005>
-1011.44372558594

> <b_mmod_Minimization_Converged-OPLS-2005>
0

> <r_mmod_RMS_Derivative-OPLS-2005>
3.73759913444519

$$$$
14
                    3D
 Structure written by MMmdl.
173182  0  0  1  0            999 V2000
  -30.6739  -14.5192   20.4518 C   0  0  0  0  0  0
  -30.4221  -12.3022   19.4309 C   0  0  0  0  0  0
  -29.4996  -12.4670   18.2058 C   0  0  0  0  0  0
  -28.0163  -12.3547   18.6210 C   0  0  0  0  0  0
  -27.6537  -13.2113   19.8636 C   0  0  2  0  0  0
  -28.7016  -13.0430   20.9867 C   0  0  0  0  0  0
  -25.2539  -13.8136   20.5649 C   0  0  0  0  0  0
  -24.1809  -13.0438   20.9157 C   0  0  0  0  0  0
  -24.6376  -11.6890   20.8722 C   0  0  0  0  0  0
  -23.9023  -10.4288   21.0390 C   0  0  0  0  0  0
  -24.3564   -9.4192   21.9184 C   0  0  0  0  0  0
  -23.6244   -8.2221   22.0753 C   0  0  0  0  0  0
  -22.4240   -8.0252   21.3523 C   0  0  0  0  0  0
  -21.9860   -9.0231   20.4634 C   0  0  0  0  0  0
  -22.7171  -10.2125   20.3049 C   0  0  0  0  0  0
  -21.6860   -6.0679   22.5244 C   0  0  0  0  0  0
  -21.4031   -6.5601   23.8166 C   0  0  0  0  0  0
  -21.3659   -5.6764   24.9154 C   0  0  0  0  0  0
  -21.6038   -4.3027   24.7214 C   0  0  0  0  0  0
  -21.8822   -3.8097   23.4352 C   0  0  0  0  0  0
  -21.9196   -4.6905   22.3390 C   0  0  0  0  0  0
  -22.7820  -13.5214   21.1847 C   0  0  0  0  0  0
  -22.1655   -4.2063   21.0978 F   0  0  0  0  0  0
  -21.5636   -3.4544   25.7754 F   0  0  0  0  0  0
  -30.0220  -13.3250   20.4089 N   0  0  0  0  0  0
  -26.3004  -12.9327   20.3351 N   0  0  0  0  0  0
  -25.9316  -11.6486   20.5743 N   0  0  0  0  0  0
  -22.0471  -12.8241   22.0417 N   0  0  0  0  0  0
  -25.4271  -15.1861   20.4000 N   0  0  0  0  0  0
  -31.8674  -14.6216   20.1565 O   0  0  0  0  0  0
  -21.6637   -6.8843   21.4202 O   0  0  0  0  0  0
  -22.3487  -14.5508   20.6671 O   0  0  0  0  0  0
  -24.6109  -31.8578   23.2139 C   0  0  0  0  0  0
  -25.9023  -32.4752   23.8351 C   0  0  1  0  0  0
  -27.2336  -27.4050   20.0888 C   0  0  0  0  0  0
  -25.5900  -33.8563   24.2266 N   0  0  0  0  0  0
  -23.3961  -30.4846   21.5515 C   0  0  2  0  0  0
  -24.8461  -28.9451   20.1098 C   0  0  0  0  0  0
  -22.7333  -29.4599   22.5009 C   0  0  0  0  0  0
  -18.0242  -28.1276   22.8565 C   0  0  0  0  0  0
  -24.1490  -36.7311   23.2639 C   0  0  0  0  0  0
  -25.9279  -30.8093   21.3746 C   0  0  0  0  0  0
  -26.0025  -29.4423   20.7258 C   0  0  0  0  0  0
  -27.1918  -28.6730   20.7274 C   0  0  0  0  0  0
  -26.0701  -26.9478   19.4352 C   0  0  0  0  0  0
  -24.8797  -27.6958   19.4626 C   0  0  0  0  0  0
  -23.6070  -29.8138   20.1662 C   0  0  0  0  0  0
  -25.4112  -36.3065   24.0304 C   0  0  1  0  0  0
  -20.5834  -28.3565   23.1370 C   0  0  2  0  0  0
  -20.6709  -26.9304   22.5442 C   0  0  0  0  0  0
  -19.5700  -26.6327   21.5204 C   0  0  0  0  0  0
  -18.1891  -26.7842   22.1640 C   0  0  0  0  0  0
  -19.1495  -28.8727   23.2968 C   0  0  0  0  0  0
  -18.9437  -30.1344   23.8959 C   0  0  0  0  0  0
  -17.6455  -30.6539   24.0539 C   0  0  0  0  0  0
  -25.9029  -34.9439   23.5083 C   0  0  0  0  0  0
  -16.5347  -29.9038   23.6315 C   0  0  0  0  0  0
  -16.7232  -28.6415   23.0407 C   0  0  0  0  0  0
  -26.4475  -31.6554   25.0684 C   0  0  0  0  0  0
  -25.3800  -31.3750   26.1507 C   0  0  0  0  0  0
  -27.0256  -30.2976   24.6015 C   0  0  0  0  0  0
  -27.5964  -32.4328   25.7510 C   0  0  0  0  0  0
  -27.5580  -37.1811   24.8466 C   0  0  0  0  0  0
  -21.4051  -29.2993   22.3777 N   0  0  0  0  0  0
  -26.4274  -37.3779   23.9438 N   0  0  0  0  0  0
  -24.6626  -31.0679   22.1051 N   0  0  0  0  0  0
  -23.4112  -28.8089   23.3011 O   0  0  0  0  0  0
  -28.4003  -26.6592   20.1311 O   0  0  0  0  0  0
  -26.5581  -34.8914   22.4634 O   0  0  0  0  0  0
  -23.5325  -32.1341   23.7566 O   0  0  0  0  0  0
  -28.1180  -20.4403   19.2774 C   0  0  0  0  0  0
  -29.3372  -22.3834   20.8604 C   0  0  0  0  0  0
  -29.1908  -20.0425   20.1207 C   0  0  0  0  0  0
  -29.8216  -21.0594   20.8898 C   0  0  0  0  0  0
  -28.2117  -22.7562   20.0949 C   0  0  0  0  0  0
  -27.6233  -21.7787   19.2531 C   0  0  0  0  0  0
  -29.4092  -17.7951   21.4815 C   0  0  0  0  0  0
  -29.1975  -17.6903   18.9914 C   0  0  0  0  0  0
  -29.1461  -16.2638   21.3662 C   0  0  0  0  0  0
  -29.9728  -16.3583   19.0005 C   0  0  0  0  0  0
  -29.6797  -18.5679   20.1570 C   0  0  0  0  0  0
  -31.0443  -20.8097   21.7584 C   0  0  0  0  0  0
  -26.3712  -23.3648   22.3910 C   0  0  0  0  0  0
  -26.1414  -21.3183   17.4055 C   0  0  0  0  0  0
  -27.2862  -24.4399   21.7740 C   0  0  0  0  0  0
  -28.4857  -25.2999   19.6190 C   0  0  0  0  0  0
  -27.6166  -24.1762   20.2823 C   0  0  1  0  0  0
  -29.8619  -15.5986   20.2634 N   0  0  0  0  0  0
  -26.5613  -22.1693   18.4654 O   0  0  0  0  0  0
  -31.4646  -12.3980   19.1213 H   0  0  0  0  0  0
  -30.3259  -11.3007   19.8569 H   0  0  0  0  0  0
  -29.7307  -11.7066   17.4595 H   0  0  0  0  0  0
  -29.6850  -13.4227   17.7153 H   0  0  0  0  0  0
  -27.8214  -11.3044   18.8332 H   0  0  0  0  0  0
  -27.3690  -12.6173   17.7844 H   0  0  0  0  0  0
  -27.6778  -14.2483   19.5313 H   0  0  0  0  0  0
  -28.6785  -12.0329   21.3998 H   0  0  0  0  0  0
  -28.4761  -13.7128   21.8159 H   0  0  0  0  0  0
  -25.2724   -9.5677   22.4749 H   0  0  0  0  0  0
  -23.9935   -7.4637   22.7518 H   0  0  0  0  0  0
  -21.0763   -8.8732   19.8989 H   0  0  0  0  0  0
  -22.3593  -10.9646   19.6152 H   0  0  0  0  0  0
  -21.2031   -7.6119   23.9631 H   0  0  0  0  0  0
  -21.1489   -6.0531   25.9041 H   0  0  0  0  0  0
  -22.0610   -2.7552   23.2885 H   0  0  0  0  0  0
  -22.4086  -11.9912   22.4817 H   0  0  0  0  0  0
  -21.1099  -13.1274   22.2651 H   0  0  0  0  0  0
  -24.6623  -15.8465   20.4918 H   0  0  0  0  0  0
  -26.2823  -15.6142   20.0743 H   0  0  0  0  0  0
  -26.7045  -32.5445   23.1044 H   0  0  0  0  0  0
  -25.0080  -33.9679   25.0443 H   0  0  0  0  0  0
  -22.6791  -31.2986   21.4143 H   0  0  0  0  0  0
  -23.3708  -35.9696   23.3264 H   0  0  0  0  0  0
  -24.3614  -36.8960   22.2073 H   0  0  0  0  0  0
  -23.7246  -37.6504   23.6674 H   0  0  0  0  0  0
  -26.0423  -31.5690   20.6021 H   0  0  0  0  0  0
  -26.8211  -30.8686   21.9857 H   0  0  0  0  0  0
  -28.0758  -29.0501   21.2233 H   0  0  0  0  0  0
  -26.0736  -26.0193   18.8864 H   0  0  0  0  0  0
  -24.0087  -27.3070   18.9519 H   0  0  0  0  0  0
  -23.7171  -30.5976   19.4153 H   0  0  0  0  0  0
  -22.7327  -29.2316   19.8610 H   0  0  0  0  0  0
  -25.1289  -36.1899   25.0782 H   0  0  0  0  0  0
  -20.9960  -28.3126   24.1475 H   0  0  0  0  0  0
  -20.5553  -26.2151   23.3608 H   0  0  0  0  0  0
  -21.6573  -26.7304   22.1250 H   0  0  0  0  0  0
  -19.6850  -25.6248   21.1185 H   0  0  0  0  0  0
  -19.6624  -27.3177   20.6761 H   0  0  0  0  0  0
  -17.4140  -26.6604   21.4064 H   0  0  0  0  0  0
  -18.0306  -25.9928   22.8976 H   0  0  0  0  0  0
  -19.7923  -30.7103   24.2389 H   0  0  0  0  0  0
  -17.5024  -31.6269   24.5036 H   0  0  0  0  0  0
  -15.5347  -30.2949   23.7583 H   0  0  0  0  0  0
  -15.8628  -28.0698   22.7166 H   0  0  0  0  0  0
  -24.5882  -30.7109   25.8024 H   0  0  0  0  0  0
  -24.9108  -32.2958   26.4994 H   0  0  0  0  0  0
  -25.8272  -30.8975   27.0220 H   0  0  0  0  0  0
  -26.2765  -29.6807   24.0991 H   0  0  0  0  0  0
  -27.3946  -29.7149   25.4459 H   0  0  0  0  0  0
  -27.8667  -30.4296   23.9192 H   0  0  0  0  0  0
  -27.2389  -33.3538   26.2144 H   0  0  0  0  0  0
  -28.3782  -32.7009   25.0400 H   0  0  0  0  0  0
  -28.0551  -31.8383   26.5409 H   0  0  0  0  0  0
  -28.2561  -38.0138   24.7492 H   0  0  0  0  0  0
  -28.1063  -36.2633   24.6260 H   0  0  0  0  0  0
  -27.2289  -37.1490   25.8866 H   0  0  0  0  0  0
  -20.9105  -29.8831   21.7169 H   0  0  0  0  0  0
  -26.0107  -38.2836   24.1449 H   0  0  0  0  0  0
  -27.6524  -19.6990   18.6469 H   0  0  0  0  0  0
  -29.8258  -23.1256   21.4767 H   0  0  0  0  0  0
  -28.5768  -18.2503   22.0206 H   0  0  0  0  0  0
  -30.2783  -17.9015   22.1258 H   0  0  0  0  0  0
  -28.1220  -17.5039   19.0499 H   0  0  0  0  0  0
  -29.3697  -18.1960   18.0418 H   0  0  0  0  0  0
  -29.4201  -15.7964   22.3144 H   0  0  0  0  0  0
  -28.0807  -16.0691   21.2488 H   0  0  0  0  0  0
  -29.6297  -15.7313   18.1783 H   0  0  0  0  0  0
  -31.0202  -16.5773   18.7891 H   0  0  0  0  0  0
  -30.7649  -18.6350   20.0508 H   0  0  0  0  0  0
  -31.0883  -19.8200   22.2009 H   0  0  0  0  0  0
  -31.0697  -21.5226   22.5861 H   0  0  0  0  0  0
  -31.9449  -20.9641   21.1638 H   0  0  0  0  0  0
  -26.8444  -22.3826   22.4036 H   0  0  0  0  0  0
  -25.4274  -23.2686   21.8450 H   0  0  0  0  0  0
  -26.1530  -23.6180   23.4281 H   0  0  0  0  0  0
  -25.3968  -21.8403   16.8038 H   0  0  0  0  0  0
  -25.6840  -20.3974   17.7715 H   0  0  0  0  0  0
  -26.9737  -21.0790   16.7428 H   0  0  0  0  0  0
  -28.2014  -24.5149   22.3676 H   0  0  0  0  0  0
  -26.7793  -25.3995   21.8816 H   0  0  0  0  0  0
  -28.3520  -25.2813   18.5360 H   0  0  0  0  0  0
  -29.5300  -25.0263   19.7713 H   0  0  0  0  0  0
  -26.6464  -24.1778   19.7849 H   0  0  0  0  0  0
  1 25  1  0  0  0
  1 30  2  0  0  0
  1 88  1  0  0  0
  2  3  1  0  0  0
  2 25  1  0  0  0
  2 90  1  0  0  0
  2 91  1  0  0  0
  3  4  1  0  0  0
  3 92  1  0  0  0
  3 93  1  0  0  0
  4  5  1  0  0  0
  4 94  1  0  0  0
  4 95  1  0  0  0
  5  6  1  0  0  0
  5 26  1  0  0  0
  5 96  1  0  0  0
  6 25  1  0  0  0
  6 97  1  0  0  0
  6 98  1  0  0  0
  7  8  2  0  0  0
  7 26  1  0  0  0
  7 29  1  0  0  0
  8  9  1  0  0  0
  8 22  1  0  0  0
  9 10  1  0  0  0
  9 27  2  0  0  0
 10 11  2  0  0  0
 10 15  1  0  0  0
 11 12  1  0  0  0
 11 99  1  0  0  0
 12 13  2  0  0  0
 12100  1  0  0  0
 13 14  1  0  0  0
 13 31  1  0  0  0
 14 15  2  0  0  0
 14101  1  0  0  0
 15102  1  0  0  0
 16 17  2  0  0  0
 16 21  1  0  0  0
 16 31  1  0  0  0
 17 18  1  0  0  0
 17103  1  0  0  0
 18 19  2  0  0  0
 18104  1  0  0  0
 19 20  1  0  0  0
 19 24  1  0  0  0
 20 21  2  0  0  0
 20105  1  0  0  0
 21 23  1  0  0  0
 22 28  1  0  0  0
 22 32  2  0  0  0
 26 27  1  0  0  0
 28106  1  0  0  0
 28107  1  0  0  0
 29108  1  0  0  0
 29109  1  0  0  0
 33 34  1  0  0  0
 33 66  1  0  0  0
 33 70  2  0  0  0
 34 36  1  0  0  0
 34 59  1  0  0  0
 34110  1  0  0  0
 35 44  2  0  0  0
 35 45  1  0  0  0
 35 68  1  0  0  0
 36 56  1  0  0  0
 36111  1  0  0  0
 37 39  1  0  0  0
 37 47  1  0  0  0
 37 66  1  0  0  0
 37112  1  0  0  0
 38 43  2  0  0  0
 38 46  1  0  0  0
 38 47  1  0  0  0
 39 64  1  0  0  0
 39 67  2  0  0  0
 40 52  1  0  0  0
 40 53  2  0  0  0
 40 58  1  0  0  0
 41113  1  0  0  0
 41114  1  0  0  0
 41115  1  0  0  0
 41 48  1  0  0  0
 42 43  1  0  0  0
 42 66  1  0  0  0
 42116  1  0  0  0
 42117  1  0  0  0
 43 44  1  0  0  0
 44118  1  0  0  0
 45 46  2  0  0  0
 45119  1  0  0  0
 46120  1  0  0  0
 47121  1  0  0  0
 47122  1  0  0  0
 48 56  1  0  0  0
 48 65  1  0  0  0
 48123  1  0  0  0
 49 50  1  0  0  0
 49 53  1  0  0  0
 49 64  1  0  0  0
 49124  1  0  0  0
 50 51  1  0  0  0
 50125  1  0  0  0
 50126  1  0  0  0
 51 52  1  0  0  0
 51127  1  0  0  0
 51128  1  0  0  0
 52129  1  0  0  0
 52130  1  0  0  0
 53 54  1  0  0  0
 54 55  2  0  0  0
 54131  1  0  0  0
 55 57  1  0  0  0
 55132  1  0  0  0
 56 69  2  0  0  0
 57 58  2  0  0  0
 57133  1  0  0  0
 58134  1  0  0  0
 59 60  1  0  0  0
 59 61  1  0  0  0
 59 62  1  0  0  0
 60135  1  0  0  0
 60136  1  0  0  0
 60137  1  0  0  0
 61138  1  0  0  0
 61139  1  0  0  0
 61140  1  0  0  0
 62141  1  0  0  0
 62142  1  0  0  0
 62143  1  0  0  0
 63 65  1  0  0  0
 63144  1  0  0  0
 63145  1  0  0  0
 63146  1  0  0  0
 64147  1  0  0  0
 65148  1  0  0  0
 68 86  1  0  0  0
 71 73  2  0  0  0
 71 76  1  0  0  0
 71149  1  0  0  0
 72 74  2  0  0  0
 72 75  1  0  0  0
 72150  1  0  0  0
 73 74  1  0  0  0
 73 81  1  0  0  0
 74 82  1  0  0  0
 75 76  2  0  0  0
 75 87  1  0  0  0
 76 89  1  0  0  0
 77 79  1  0  0  0
 77 81  1  0  0  0
 77151  1  0  0  0
 77152  1  0  0  0
 78 80  1  0  0  0
 78 81  1  0  0  0
 78153  1  0  0  0
 78154  1  0  0  0
 79 88  1  0  0  0
 79155  1  0  0  0
 79156  1  0  0  0
 80 88  1  0  0  0
 80157  1  0  0  0
 80158  1  0  0  0
 81159  1  0  0  0
 82160  1  0  0  0
 82161  1  0  0  0
 82162  1  0  0  0
 83 85  1  0  0  0
 83163  1  0  0  0
 83164  1  0  0  0
 83165  1  0  0  0
 84 89  1  0  0  0
 84166  1  0  0  0
 84167  1  0  0  0
 84168  1  0  0  0
 85169  1  0  0  0
 85170  1  0  0  0
 85 87  1  0  0  0
 86 87  1  0  0  0
 86171  1  0  0  0
 86172  1  0  0  0
 87173  1  0  0  0
M  ISO  4   1 100  68 101  86 101  88 100
M  END
> <chiral flag>
0

> <version>
0

> <s_m_source_file>
/data/baiqing/PycharmProjects/Reinvent-master-3.2/result/LINK_invent/BTK/process_docking_weight1_custom_sum_contain_oxygen_bond_distance_aromatic_linkinvent_7_9_3/rearranged_h_0161.sdf

> <i_m_source_file_index>
15

> <r_mmod_Potential_Energy-OPLS-2005>
263.982482910156

> <r_mmod_Stretch_Energy-OPLS-2005>
51.8813133239746

> <r_mmod_Bend_Energy-OPLS-2005>
134.633895874023

> <r_mmod_Torsional_Energy-OPLS-2005>
348.739990234375

> <r_mmod_Improper_Torsional_Energy-OPLS-2005>
20.0532855987549

> <r_mmod_Van_der_Waal_Energy-OPLS-2005>
166.02766418457

> <r_mmod_Electrostatic_Energy-OPLS-2005>
-295.122344970703

> <r_mmod_Solvation_Energy-OPLS-2005>
-187.267196655273

> <b_mmod_Minimization_Converged-OPLS-2005>
0

> <r_mmod_RMS_Derivative-OPLS-2005>
6.95674753189087

$$$$
15
                    3D
 Structure written by MMmdl.
172181  0  0  1  0            999 V2000
  -30.7229  -14.4615   20.6009 C   0  0  0  0  0  0
  -30.4202  -12.3137   19.4198 C   0  0  0  0  0  0
  -29.4912  -12.5120   18.2052 C   0  0  0  0  0  0
  -28.0134  -12.3710   18.6179 C   0  0  0  0  0  0
  -27.6606  -13.2099   19.8753 C   0  0  2  0  0  0
  -28.7028  -12.9934   20.9957 C   0  0  0  0  0  0
  -25.2573  -13.8171   20.5681 C   0  0  0  0  0  0
  -24.1832  -13.0439   20.9170 C   0  0  0  0  0  0
  -24.6394  -11.6906   20.8721 C   0  0  0  0  0  0
  -23.9066  -10.4294   21.0398 C   0  0  0  0  0  0
  -24.3618   -9.4207   21.9175 C   0  0  0  0  0  0
  -23.6291   -8.2244   22.0747 C   0  0  0  0  0  0
  -22.4271   -8.0282   21.3544 C   0  0  0  0  0  0
  -21.9913   -9.0253   20.4639 C   0  0  0  0  0  0
  -22.7238  -10.2132   20.3045 C   0  0  0  0  0  0
  -21.6850   -6.0733   22.5277 C   0  0  0  0  0  0
  -21.4017   -6.5639   23.8211 C   0  0  0  0  0  0
  -21.3660   -5.6790   24.9171 C   0  0  0  0  0  0
  -21.6046   -4.3054   24.7227 C   0  0  0  0  0  0
  -21.8822   -3.8142   23.4346 C   0  0  0  0  0  0
  -21.9195   -4.6957   22.3398 C   0  0  0  0  0  0
  -22.7855  -13.5228   21.1840 C   0  0  0  0  0  0
  -22.1663   -4.2143   21.0974 F   0  0  0  0  0  0
  -21.5629   -3.4539   25.7745 F   0  0  0  0  0  0
  -30.0344  -13.2972   20.4451 N   0  0  0  0  0  0
  -26.3018  -12.9345   20.3369 N   0  0  0  0  0  0
  -25.9324  -11.6502   20.5763 N   0  0  0  0  0  0
  -22.0504  -12.8214   22.0398 N   0  0  0  0  0  0
  -25.4283  -15.1892   20.4095 N   0  0  0  0  0  0
  -31.8291  -14.6569   20.0902 O   0  0  0  0  0  0
  -21.6635   -6.8877   21.4240 O   0  0  0  0  0  0
  -22.3535  -14.5535   20.6694 O   0  0  0  0  0  0
  -24.6146  -31.8680   23.2112 C   0  0  0  0  0  0
  -25.9039  -32.4815   23.8407 C   0  0  1  0  0  0
  -27.2270  -27.4151   20.0985 C   0  0  0  0  0  0
  -25.5895  -33.8620   24.2332 N   0  0  0  0  0  0
  -23.4026  -30.4942   21.5524 C   0  0  2  0  0  0
  -24.8467  -28.9619   20.1139 C   0  0  0  0  0  0
  -22.7398  -29.4671   22.4987 C   0  0  0  0  0  0
  -18.0271  -28.1370   22.8487 C   0  0  0  0  0  0
  -24.1492  -36.7324   23.2643 C   0  0  0  0  0  0
  -25.9347  -30.8264   21.3689 C   0  0  0  0  0  0
  -26.0089  -29.4615   20.7126 C   0  0  0  0  0  0
  -27.1998  -28.6967   20.7014 C   0  0  0  0  0  0
  -26.0423  -26.9415   19.4822 C   0  0  0  0  0  0
  -24.8593  -27.7014   19.4958 C   0  0  0  0  0  0
  -23.6105  -29.8311   20.1659 C   0  0  0  0  0  0
  -25.4113  -36.3113   24.0341 C   0  0  1  0  0  0
  -20.5861  -28.3663   23.1307 C   0  0  2  0  0  0
  -20.6762  -26.9404   22.5408 C   0  0  0  0  0  0
  -19.5746  -26.6381   21.5203 C   0  0  0  0  0  0
  -18.1919  -26.7916   22.1610 C   0  0  0  0  0  0
  -19.1521  -28.8831   23.2895 C   0  0  0  0  0  0
  -18.9453  -30.1434   23.8910 C   0  0  0  0  0  0
  -17.6460  -30.6581   24.0561 C   0  0  0  0  0  0
  -25.9039  -34.9478   23.5137 C   0  0  0  0  0  0
  -16.5348  -29.9084   23.6330 C   0  0  0  0  0  0
  -16.7263  -28.6499   23.0357 C   0  0  0  0  0  0
  -26.4474  -31.6592   25.0729 C   0  0  0  0  0  0
  -25.3739  -31.3668   26.1470 C   0  0  0  0  0  0
  -27.0321  -30.3033   24.6117 C   0  0  0  0  0  0
  -27.6054  -32.4314   25.7479 C   0  0  0  0  0  0
  -27.5590  -37.1810   24.8466 C   0  0  0  0  0  0
  -21.4130  -29.3033   22.3713 N   0  0  0  0  0  0
  -26.4305  -37.3790   23.9409 N   0  0  0  0  0  0
  -24.6689  -31.0777   22.1014 N   0  0  0  0  0  0
  -23.4168  -28.8203   23.3021 O   0  0  0  0  0  0
  -28.3933  -26.6664   20.1410 O   0  0  0  0  0  0
  -26.5608  -34.8921   22.4702 O   0  0  0  0  0  0
  -23.5343  -32.1459   23.7494 O   0  0  0  0  0  0
  -29.7262  -19.1080   22.0991 C   0  0  0  0  0  0
  -28.5490  -18.1437   24.4457 C   0  0  0  0  0  0
  -29.0429  -20.0214   22.9498 C   0  0  0  0  0  0
  -29.8359  -17.7225   22.4132 C   0  0  0  0  0  0
  -28.4296  -19.5077   24.1241 C   0  0  0  0  0  0
  -29.2684  -17.2547   23.6280 C   0  0  0  0  0  0
  -30.1488  -22.3215   23.3516 C   0  0  0  0  0  0
  -30.1946  -23.6698   22.6099 C   0  0  0  0  0  0
  -29.0079  -21.5471   22.6858 C   0  0  1  0  0  0
  -29.0241  -22.1185   21.2519 C   0  0  1  0  0  0
  -27.6538  -20.3926   25.0905 C   0  0  0  0  0  0
  -29.4327  -15.8276   24.1292 C   0  0  0  0  0  0
  -27.7521  -21.8065   20.4455 C   0  0  0  0  0  0
  -30.6334  -16.7991   21.4727 C   0  0  0  0  0  0
  -29.5329  -24.4488   20.3161 C   0  0  0  0  0  0
  -28.3078  -25.2615   19.8227 C   0  0  0  0  0  0
  -30.0891  -15.4466   21.2626 N   0  0  0  0  0  0
  -29.2214  -23.5789   21.4932 N   0  3  2  0  0  0
  -31.4638  -12.4121   19.1150 H   0  0  0  0  0  0
  -30.3216  -11.3028   19.8175 H   0  0  0  0  0  0
  -29.7307  -11.7892   17.4238 H   0  0  0  0  0  0
  -29.6581  -13.4992   17.7702 H   0  0  0  0  0  0
  -27.8228  -11.3148   18.8114 H   0  0  0  0  0  0
  -27.3631  -12.6484   17.7876 H   0  0  0  0  0  0
  -27.7047  -14.2579   19.5781 H   0  0  0  0  0  0
  -28.6795  -11.9587   21.3403 H   0  0  0  0  0  0
  -28.4586  -13.5951   21.8708 H   0  0  0  0  0  0
  -25.2766   -9.5684   22.4742 H   0  0  0  0  0  0
  -24.0003   -7.4640   22.7469 H   0  0  0  0  0  0
  -21.0843   -8.8764   19.8945 H   0  0  0  0  0  0
  -22.3693  -10.9665   19.6148 H   0  0  0  0  0  0
  -21.2008   -7.6148   23.9715 H   0  0  0  0  0  0
  -21.1481   -6.0518   25.9076 H   0  0  0  0  0  0
  -22.0601   -2.7605   23.2847 H   0  0  0  0  0  0
  -22.4132  -11.9873   22.4772 H   0  0  0  0  0  0
  -21.1118  -13.1220   22.2609 H   0  0  0  0  0  0
  -24.6628  -15.8441   20.5230 H   0  0  0  0  0  0
  -26.2860  -15.6322   20.1049 H   0  0  0  0  0  0
  -26.7096  -32.5510   23.1159 H   0  0  0  0  0  0
  -25.0016  -33.9795   25.0454 H   0  0  0  0  0  0
  -22.6920  -31.3121   21.4161 H   0  0  0  0  0  0
  -23.3754  -35.9658   23.3301 H   0  0  0  0  0  0
  -24.3590  -36.8957   22.2061 H   0  0  0  0  0  0
  -23.7255  -37.6530   23.6664 H   0  0  0  0  0  0
  -26.0563  -31.5921   20.6011 H   0  0  0  0  0  0
  -26.8199  -30.8739   21.9925 H   0  0  0  0  0  0
  -28.0953  -29.0776   21.1736 H   0  0  0  0  0  0
  -26.0000  -25.9847   18.9828 H   0  0  0  0  0  0
  -23.9654  -27.3120   19.0282 H   0  0  0  0  0  0
  -23.7163  -30.6078   19.4068 H   0  0  0  0  0  0
  -22.7328  -29.2529   19.8714 H   0  0  0  0  0  0
  -25.1285  -36.1986   25.0834 H   0  0  0  0  0  0
  -20.9957  -28.3242   24.1427 H   0  0  0  0  0  0
  -20.5666  -26.2278   23.3598 H   0  0  0  0  0  0
  -21.6640  -26.7438   22.1221 H   0  0  0  0  0  0
  -19.6920  -25.6295   21.1226 H   0  0  0  0  0  0
  -19.6692  -27.3189   20.6736 H   0  0  0  0  0  0
  -17.4195  -26.6669   21.4001 H   0  0  0  0  0  0
  -18.0316  -26.0043   22.8992 H   0  0  0  0  0  0
  -19.7937  -30.7228   24.2300 H   0  0  0  0  0  0
  -17.5028  -31.6271   24.5149 H   0  0  0  0  0  0
  -15.5353  -30.2997   23.7652 H   0  0  0  0  0  0
  -15.8655  -28.0819   22.7084 H   0  0  0  0  0  0
  -24.5959  -30.6955   25.7809 H   0  0  0  0  0  0
  -24.8860  -32.2795   26.4897 H   0  0  0  0  0  0
  -25.8113  -30.8872   27.0237 H   0  0  0  0  0  0
  -26.2876  -29.6752   24.1206 H   0  0  0  0  0  0
  -27.4141  -29.7299   25.4577 H   0  0  0  0  0  0
  -27.8681  -30.4364   23.9246 H   0  0  0  0  0  0
  -27.2706  -33.3627   26.2064 H   0  0  0  0  0  0
  -28.3852  -32.6863   25.0283 H   0  0  0  0  0  0
  -28.0733  -31.8427   26.5383 H   0  0  0  0  0  0
  -28.2599  -38.0113   24.7523 H   0  0  0  0  0  0
  -28.1105  -36.2648   24.6287 H   0  0  0  0  0  0
  -27.2305  -37.1456   25.8868 H   0  0  0  0  0  0
  -20.9279  -29.8770   21.6951 H   0  0  0  0  0  0
  -26.0200  -38.2877   24.1392 H   0  0  0  0  0  0
  -30.2031  -19.4761   21.2015 H   0  0  0  0  0  0
  -28.1010  -17.7743   25.3589 H   0  0  0  0  0  0
  -30.0057  -22.4420   24.4257 H   0  0  0  0  0  0
  -31.0941  -21.7977   23.2050 H   0  0  0  0  0  0
  -31.2062  -23.8400   22.2383 H   0  0  0  0  0  0
  -29.9409  -24.5042   23.2648 H   0  0  0  0  0  0
  -28.0782  -21.9210   23.1130 H   0  0  0  0  0  0
  -29.8959  -21.7364   20.7178 H   0  0  0  0  0  0
  -27.3310  -19.8384   25.9724 H   0  0  0  0  0  0
  -26.7572  -20.7899   24.6139 H   0  0  0  0  0  0
  -28.2623  -21.2250   25.4423 H   0  0  0  0  0  0
  -29.3134  -15.7767   25.2120 H   0  0  0  0  0  0
  -30.4246  -15.4336   23.9066 H   0  0  0  0  0  0
  -28.6809  -15.1760   23.6857 H   0  0  0  0  0  0
  -26.8557  -22.1997   20.9249 H   0  0  0  0  0  0
  -27.6203  -20.7296   20.3376 H   0  0  0  0  0  0
  -27.8075  -22.2240   19.4396 H   0  0  0  0  0  0
  -31.6443  -16.7144   21.8768 H   0  0  0  0  0  0
  -30.7349  -17.2783   20.4980 H   0  0  0  0  0  0
  -30.3370  -25.1471   20.5524 H   0  0  0  0  0  0
  -29.9144  -23.8273   19.5050 H   0  0  0  0  0  0
  -27.4027  -24.8165   20.2391 H   0  0  0  0  0  0
  -28.2337  -25.1699   18.7382 H   0  0  0  0  0  0
  -29.1717  -15.2515   21.6304 H   0  0  0  0  0  0
  -28.3565  -23.9243   21.8850 H   0  0  0  0  0  0
  1 25  1  0  0  0
  1 30  2  0  0  0
  1 87  1  0  0  0
  2  3  1  0  0  0
  2 25  1  0  0  0
  2 89  1  0  0  0
  2 90  1  0  0  0
  3  4  1  0  0  0
  3 91  1  0  0  0
  3 92  1  0  0  0
  4  5  1  0  0  0
  4 93  1  0  0  0
  4 94  1  0  0  0
  5  6  1  0  0  0
  5 26  1  0  0  0
  5 95  1  0  0  0
  6 25  1  0  0  0
  6 96  1  0  0  0
  6 97  1  0  0  0
  7  8  2  0  0  0
  7 26  1  0  0  0
  7 29  1  0  0  0
  8  9  1  0  0  0
  8 22  1  0  0  0
  9 10  1  0  0  0
  9 27  2  0  0  0
 10 11  2  0  0  0
 10 15  1  0  0  0
 11 12  1  0  0  0
 11 98  1  0  0  0
 12 13  2  0  0  0
 12 99  1  0  0  0
 13 14  1  0  0  0
 13 31  1  0  0  0
 14 15  2  0  0  0
 14100  1  0  0  0
 15101  1  0  0  0
 16 17  2  0  0  0
 16 21  1  0  0  0
 16 31  1  0  0  0
 17 18  1  0  0  0
 17102  1  0  0  0
 18 19  2  0  0  0
 18103  1  0  0  0
 19 20  1  0  0  0
 19 24  1  0  0  0
 20 21  2  0  0  0
 20104  1  0  0  0
 21 23  1  0  0  0
 22 28  1  0  0  0
 22 32  2  0  0  0
 26 27  1  0  0  0
 28105  1  0  0  0
 28106  1  0  0  0
 29107  1  0  0  0
 29108  1  0  0  0
 33 34  1  0  0  0
 33 66  1  0  0  0
 33 70  2  0  0  0
 34 36  1  0  0  0
 34 59  1  0  0  0
 34109  1  0  0  0
 35 44  2  0  0  0
 35 45  1  0  0  0
 35 68  1  0  0  0
 36 56  1  0  0  0
 36110  1  0  0  0
 37 39  1  0  0  0
 37 47  1  0  0  0
 37 66  1  0  0  0
 37111  1  0  0  0
 38 43  2  0  0  0
 38 46  1  0  0  0
 38 47  1  0  0  0
 39 64  1  0  0  0
 39 67  2  0  0  0
 40 52  1  0  0  0
 40 53  2  0  0  0
 40 58  1  0  0  0
 41112  1  0  0  0
 41113  1  0  0  0
 41114  1  0  0  0
 41 48  1  0  0  0
 42 43  1  0  0  0
 42 66  1  0  0  0
 42115  1  0  0  0
 42116  1  0  0  0
 43 44  1  0  0  0
 44117  1  0  0  0
 45 46  2  0  0  0
 45118  1  0  0  0
 46119  1  0  0  0
 47120  1  0  0  0
 47121  1  0  0  0
 48 56  1  0  0  0
 48 65  1  0  0  0
 48122  1  0  0  0
 49 50  1  0  0  0
 49 53  1  0  0  0
 49 64  1  0  0  0
 49123  1  0  0  0
 50 51  1  0  0  0
 50124  1  0  0  0
 50125  1  0  0  0
 51 52  1  0  0  0
 51126  1  0  0  0
 51127  1  0  0  0
 52128  1  0  0  0
 52129  1  0  0  0
 53 54  1  0  0  0
 54 55  2  0  0  0
 54130  1  0  0  0
 55 57  1  0  0  0
 55131  1  0  0  0
 56 69  2  0  0  0
 57 58  2  0  0  0
 57132  1  0  0  0
 58133  1  0  0  0
 59 60  1  0  0  0
 59 61  1  0  0  0
 59 62  1  0  0  0
 60134  1  0  0  0
 60135  1  0  0  0
 60136  1  0  0  0
 61137  1  0  0  0
 61138  1  0  0  0
 61139  1  0  0  0
 62140  1  0  0  0
 62141  1  0  0  0
 62142  1  0  0  0
 63 65  1  0  0  0
 63143  1  0  0  0
 63144  1  0  0  0
 63145  1  0  0  0
 64146  1  0  0  0
 65147  1  0  0  0
 68 86  1  0  0  0
 71 73  2  0  0  0
 71 74  1  0  0  0
 71148  1  0  0  0
 72 75  2  0  0  0
 72 76  1  0  0  0
 72149  1  0  0  0
 73 75  1  0  0  0
 73 79  1  0  0  0
 74 76  2  0  0  0
 74 84  1  0  0  0
 75 81  1  0  0  0
 76 82  1  0  0  0
 77 78  1  0  0  0
 77 79  1  0  0  0
 77150  1  0  0  0
 77151  1  0  0  0
 78 88  1  0  0  0
 78152  1  0  0  0
 78153  1  0  0  0
 79 80  1  0  0  0
 79154  1  0  0  0
 80 83  1  0  0  0
 80 88  1  0  0  0
 80155  1  0  0  0
 81156  1  0  0  0
 81157  1  0  0  0
 81158  1  0  0  0
 82159  1  0  0  0
 82160  1  0  0  0
 82161  1  0  0  0
 83162  1  0  0  0
 83163  1  0  0  0
 83164  1  0  0  0
 84 87  1  0  0  0
 84165  1  0  0  0
 84166  1  0  0  0
 85 86  1  0  0  0
 85167  1  0  0  0
 85168  1  0  0  0
 85 88  1  0  0  0
 86169  1  0  0  0
 86170  1  0  0  0
 87171  1  0  0  0
 88172  1  0  0  0
M  CHG  1  88   1
M  ISO  4   1 100  68 101  86 101  87 100
M  END
> <chiral flag>
0

> <version>
0

> <s_m_source_file>
/data/baiqing/PycharmProjects/Reinvent-master-3.2/result/LINK_invent/BTK/process_docking_weight1_custom_sum_contain_oxygen_bond_distance_aromatic_linkinvent_7_9_3/rearranged_h_0161.sdf

> <i_m_source_file_index>
16

> <r_mmod_Potential_Energy-OPLS-2005>
-104.443702697754

> <r_mmod_Stretch_Energy-OPLS-2005>
43.76513671875

> <r_mmod_Bend_Energy-OPLS-2005>
140.318359375

> <r_mmod_Torsional_Energy-OPLS-2005>
271.735809326172

> <r_mmod_Improper_Torsional_Energy-OPLS-2005>
2.69694972038269

> <r_mmod_Van_der_Waal_Energy-OPLS-2005>
155.809753417969

> <r_mmod_Electrostatic_Energy-OPLS-2005>
-318.090972900391

> <r_mmod_Solvation_Energy-OPLS-2005>
-414.393920898438

> <b_mmod_Minimization_Converged-OPLS-2005>
0

> <r_mmod_RMS_Derivative-OPLS-2005>
1.40379130840302

$$$$
16
                    3D
 Structure written by MMmdl.
171180  0  0  1  0            999 V2000
  -30.6701  -14.5195   20.4837 C   0  0  0  0  0  0
  -30.4271  -12.3041   19.4510 C   0  0  0  0  0  0
  -29.5044  -12.4520   18.2217 C   0  0  0  0  0  0
  -28.0242  -12.3178   18.6340 C   0  0  0  0  0  0
  -27.6536  -13.1972   19.8604 C   0  0  2  0  0  0
  -28.6969  -13.0332   20.9888 C   0  0  0  0  0  0
  -25.2593  -13.8149   20.5734 C   0  0  0  0  0  0
  -24.1812  -13.0438   20.9209 C   0  0  0  0  0  0
  -24.6333  -11.6902   20.8734 C   0  0  0  0  0  0
  -23.9009  -10.4298   21.0400 C   0  0  0  0  0  0
  -24.3589   -9.4226   21.9173 C   0  0  0  0  0  0
  -23.6284   -8.2249   22.0735 C   0  0  0  0  0  0
  -22.4271   -8.0266   21.3522 C   0  0  0  0  0  0
  -21.9895   -9.0240   20.4632 C   0  0  0  0  0  0
  -22.7196  -10.2138   20.3046 C   0  0  0  0  0  0
  -21.6857   -6.0731   22.5272 C   0  0  0  0  0  0
  -21.3992   -6.5626   23.8207 C   0  0  0  0  0  0
  -21.3671   -5.6779   24.9171 C   0  0  0  0  0  0
  -21.6056   -4.3041   24.7217 C   0  0  0  0  0  0
  -21.8810   -3.8128   23.4330 C   0  0  0  0  0  0
  -21.9190   -4.6954   22.3386 C   0  0  0  0  0  0
  -22.7850  -13.5266   21.1853 C   0  0  0  0  0  0
  -22.1667   -4.2142   21.0961 F   0  0  0  0  0  0
  -21.5659   -3.4530   25.7733 F   0  0  0  0  0  0
  -30.0197  -13.3265   20.4233 N   0  0  0  0  0  0
  -26.2968  -12.9269   20.3327 N   0  0  0  0  0  0
  -25.9249  -11.6444   20.5748 N   0  0  0  0  0  0
  -22.0435  -12.8295   22.0393 N   0  0  0  0  0  0
  -25.4414  -15.1857   20.4184 N   0  0  0  0  0  0
  -31.8643  -14.6338   20.1886 O   0  0  0  0  0  0
  -21.6639   -6.8868   21.4224 O   0  0  0  0  0  0
  -22.3580  -14.5562   20.6663 O   0  0  0  0  0  0
  -24.6151  -31.8693   23.2060 C   0  0  0  0  0  0
  -25.9061  -32.4823   23.8363 C   0  0  1  0  0  0
  -27.2294  -27.4198   20.1097 C   0  0  0  0  0  0
  -25.5924  -33.8619   24.2308 N   0  0  0  0  0  0
  -23.4044  -30.4944   21.5438 C   0  0  2  0  0  0
  -24.8494  -28.9529   20.1157 C   0  0  0  0  0  0
  -22.7411  -29.4708   22.4932 C   0  0  0  0  0  0
  -18.0284  -28.1400   22.8465 C   0  0  0  0  0  0
  -24.1504  -36.7319   23.2634 C   0  0  0  0  0  0
  -25.9358  -30.8313   21.3604 C   0  0  0  0  0  0
  -26.0111  -29.4646   20.7061 C   0  0  0  0  0  0
  -27.2059  -28.7096   20.6916 C   0  0  0  0  0  0
  -26.0486  -26.9195   19.5153 C   0  0  0  0  0  0
  -24.8640  -27.6805   19.5147 C   0  0  0  0  0  0
  -23.6150  -29.8251   20.1592 C   0  0  0  0  0  0
  -25.4128  -36.3110   24.0322 C   0  0  1  0  0  0
  -20.5875  -28.3706   23.1263 C   0  0  2  0  0  0
  -20.6789  -26.9441   22.5392 C   0  0  0  0  0  0
  -19.5770  -26.6399   21.5196 C   0  0  0  0  0  0
  -18.1944  -26.7943   22.1602 C   0  0  0  0  0  0
  -19.1536  -28.8863   23.2867 C   0  0  0  0  0  0
  -18.9470  -30.1464   23.8886 C   0  0  0  0  0  0
  -17.6473  -30.6592   24.0579 C   0  0  0  0  0  0
  -25.9051  -34.9473   23.5116 C   0  0  0  0  0  0
  -16.5364  -29.9098   23.6331 C   0  0  0  0  0  0
  -16.7275  -28.6526   23.0326 C   0  0  0  0  0  0
  -26.4470  -31.6606   25.0705 C   0  0  0  0  0  0
  -25.3720  -31.3716   26.1440 C   0  0  0  0  0  0
  -27.0312  -30.3034   24.6129 C   0  0  0  0  0  0
  -27.6053  -32.4309   25.7471 C   0  0  0  0  0  0
  -27.5594  -37.1814   24.8457 C   0  0  0  0  0  0
  -21.4146  -29.3065   22.3650 N   0  0  0  0  0  0
  -26.4318  -37.3790   23.9392 N   0  0  0  0  0  0
  -24.6701  -31.0788   22.0940 N   0  0  0  0  0  0
  -23.4177  -28.8261   23.2998 O   0  0  0  0  0  0
  -28.3980  -26.6852   20.1247 O   0  0  0  0  0  0
  -26.5601  -34.8925   22.4666 O   0  0  0  0  0  0
  -23.5336  -32.1455   23.7430 O   0  0  0  0  0  0
  -29.0979  -17.9275   21.0636 C   0  0  0  0  0  0
  -30.6401  -17.6322   19.0847 C   0  0  0  0  0  0
  -29.3441  -16.4262   21.4309 C   0  0  0  0  0  0
  -29.8641  -16.2985   19.0262 C   0  0  0  0  0  0
  -29.3662  -20.8285   20.7478 C   0  0  0  0  0  0
  -30.9715  -22.1712   19.5477 C   0  0  2  0  0  0
  -30.2770  -18.5602   20.2739 C   0  0  0  0  0  0
  -29.6642  -22.2910   20.3413 C   0  0  1  0  0  0
  -31.3524  -20.6801   19.6156 C   0  0  2  0  0  0
  -32.0911  -23.0794   20.0849 C   0  0  0  0  0  0
  -32.1330  -20.2640   18.3542 C   0  0  0  0  0  0
  -28.6761  -24.3794   19.2697 C   0  0  0  0  0  0
  -28.3007  -25.2850   20.4678 C   0  0  0  0  0  0
  -29.8530  -15.5980   20.3181 N   0  0  0  0  0  0
  -30.0770  -19.9587   19.7993 N   0  0  0  0  0  0
  -28.5783  -22.9086   19.5322 N   0  3  0  0  0  0
  -31.4739  -12.3989   19.1611 H   0  0  0  0  0  0
  -30.3366  -11.3103   19.8905 H   0  0  0  0  0  0
  -29.7524  -11.6951   17.4774 H   0  0  0  0  0  0
  -29.6735  -13.4130   17.7393 H   0  0  0  0  0  0
  -27.8565  -11.2658   18.8734 H   0  0  0  0  0  0
  -27.3742  -12.5448   17.7884 H   0  0  0  0  0  0
  -27.6755  -14.2328   19.5241 H   0  0  0  0  0  0
  -28.6799  -12.0138   21.3770 H   0  0  0  0  0  0
  -28.4685  -13.6838   21.8340 H   0  0  0  0  0  0
  -25.2729   -9.5729   22.4777 H   0  0  0  0  0  0
  -24.0001   -7.4642   22.7447 H   0  0  0  0  0  0
  -21.0835   -8.8728   19.8946 H   0  0  0  0  0  0
  -22.3616  -10.9671   19.6173 H   0  0  0  0  0  0
  -21.1939   -7.6133   23.9700 H   0  0  0  0  0  0
  -21.1532   -6.0518   25.9091 H   0  0  0  0  0  0
  -22.0574   -2.7584   23.2826 H   0  0  0  0  0  0
  -22.4055  -12.0034   22.4916 H   0  0  0  0  0  0
  -21.0997  -13.1307   22.2401 H   0  0  0  0  0  0
  -24.6897  -15.8524   20.5588 H   0  0  0  0  0  0
  -26.3022  -15.6157   20.1052 H   0  0  0  0  0  0
  -26.7134  -32.5530   23.1126 H   0  0  0  0  0  0
  -25.0105  -33.9788   25.0463 H   0  0  0  0  0  0
  -22.6951  -31.3129   21.3989 H   0  0  0  0  0  0
  -23.3767  -35.9656   23.3303 H   0  0  0  0  0  0
  -24.3592  -36.8940   22.2053 H   0  0  0  0  0  0
  -23.7268  -37.6528   23.6638 H   0  0  0  0  0  0
  -26.0602  -31.5999   20.5959 H   0  0  0  0  0  0
  -26.8181  -30.8732   21.9872 H   0  0  0  0  0  0
  -28.1025  -29.1065   21.1458 H   0  0  0  0  0  0
  -26.0333  -25.9438   19.0505 H   0  0  0  0  0  0
  -23.9705  -27.2801   19.0570 H   0  0  0  0  0  0
  -23.7324  -30.5998   19.4002 H   0  0  0  0  0  0
  -22.7383  -29.2508   19.8546 H   0  0  0  0  0  0
  -25.1315  -36.1985   25.0816 H   0  0  0  0  0  0
  -20.9981  -28.3310   24.1375 H   0  0  0  0  0  0
  -20.5710  -26.2337   23.3600 H   0  0  0  0  0  0
  -21.6665  -26.7504   22.1187 H   0  0  0  0  0  0
  -19.6961  -25.6312   21.1228 H   0  0  0  0  0  0
  -19.6704  -27.3206   20.6723 H   0  0  0  0  0  0
  -17.4225  -26.6673   21.3998 H   0  0  0  0  0  0
  -18.0360  -26.0088   22.9002 H   0  0  0  0  0  0
  -19.7957  -30.7279   24.2244 H   0  0  0  0  0  0
  -17.5041  -31.6262   24.5210 H   0  0  0  0  0  0
  -15.5373  -30.3008   23.7659 H   0  0  0  0  0  0
  -15.8676  -28.0858   22.7016 H   0  0  0  0  0  0
  -24.5904  -30.7061   25.7761 H   0  0  0  0  0  0
  -24.8888  -32.2869   26.4860 H   0  0  0  0  0  0
  -25.8052  -30.8896   27.0219 H   0  0  0  0  0  0
  -26.2874  -29.6777   24.1188 H   0  0  0  0  0  0
  -27.4075  -29.7291   25.4614 H   0  0  0  0  0  0
  -27.8699  -30.4331   23.9287 H   0  0  0  0  0  0
  -27.2700  -33.3615   26.2057 H   0  0  0  0  0  0
  -28.3856  -32.6872   25.0293 H   0  0  0  0  0  0
  -28.0727  -31.8430   26.5383 H   0  0  0  0  0  0
  -28.2614  -38.0109   24.7520 H   0  0  0  0  0  0
  -28.1095  -36.2646   24.6278 H   0  0  0  0  0  0
  -27.2300  -37.1465   25.8856 H   0  0  0  0  0  0
  -20.9319  -29.8748   21.6830 H   0  0  0  0  0  0
  -26.0218  -38.2882   24.1351 H   0  0  0  0  0  0
  -28.9213  -18.4722   21.9924 H   0  0  0  0  0  0
  -28.1754  -18.0185   20.4863 H   0  0  0  0  0  0
  -30.4858  -18.1425   18.1338 H   0  0  0  0  0  0
  -31.7037  -17.4011   19.1415 H   0  0  0  0  0  0
  -28.4115  -15.9986   21.7974 H   0  0  0  0  0  0
  -30.0524  -16.3797   22.2610 H   0  0  0  0  0  0
  -28.8294  -16.4737   18.7327 H   0  0  0  0  0  0
  -30.2908  -15.6749   18.2382 H   0  0  0  0  0  0
  -28.2992  -20.6109   20.7986 H   0  0  0  0  0  0
  -29.7704  -20.6630   21.7478 H   0  0  0  0  0  0
  -30.7948  -22.4306   18.5024 H   0  0  0  0  0  0
  -31.1160  -18.5615   20.9705 H   0  0  0  0  0  0
  -29.8012  -22.8743   21.2545 H   0  0  0  0  0  0
  -31.9793  -20.5259   20.4973 H   0  0  0  0  0  0
  -32.2806  -22.8908   21.1425 H   0  0  0  0  0  0
  -31.8339  -24.1338   19.9795 H   0  0  0  0  0  0
  -33.0308  -22.9167   19.5529 H   0  0  0  0  0  0
  -31.4882  -20.2235   17.4766 H   0  0  0  0  0  0
  -32.6233  -19.2994   18.4671 H   0  0  0  0  0  0
  -32.9305  -20.9727   18.1340 H   0  0  0  0  0  0
  -29.6740  -24.6377   18.9181 H   0  0  0  0  0  0
  -28.0008  -24.6131   18.4451 H   0  0  0  0  0  0
  -28.9882  -25.1099   21.2954 H   0  0  0  0  0  0
  -27.3160  -25.0180   20.8541 H   0  0  0  0  0  0
  -27.6919  -22.6994   19.9627 H   0  0  0  0  0  0
  -28.5828  -22.4300   18.6440 H   0  0  0  0  0  0
  1 25  1  0  0  0
  1 30  2  0  0  0
  1 84  1  0  0  0
  2  3  1  0  0  0
  2 25  1  0  0  0
  2 87  1  0  0  0
  2 88  1  0  0  0
  3  4  1  0  0  0
  3 89  1  0  0  0
  3 90  1  0  0  0
  4  5  1  0  0  0
  4 91  1  0  0  0
  4 92  1  0  0  0
  5  6  1  0  0  0
  5 26  1  0  0  0
  5 93  1  0  0  0
  6 25  1  0  0  0
  6 94  1  0  0  0
  6 95  1  0  0  0
  7  8  2  0  0  0
  7 26  1  0  0  0
  7 29  1  0  0  0
  8  9  1  0  0  0
  8 22  1  0  0  0
  9 10  1  0  0  0
  9 27  2  0  0  0
 10 11  2  0  0  0
 10 15  1  0  0  0
 11 12  1  0  0  0
 11 96  1  0  0  0
 12 13  2  0  0  0
 12 97  1  0  0  0
 13 14  1  0  0  0
 13 31  1  0  0  0
 14 15  2  0  0  0
 14 98  1  0  0  0
 15 99  1  0  0  0
 16 17  2  0  0  0
 16 21  1  0  0  0
 16 31  1  0  0  0
 17 18  1  0  0  0
 17100  1  0  0  0
 18 19  2  0  0  0
 18101  1  0  0  0
 19 20  1  0  0  0
 19 24  1  0  0  0
 20 21  2  0  0  0
 20102  1  0  0  0
 21 23  1  0  0  0
 22 28  1  0  0  0
 22 32  2  0  0  0
 26 27  1  0  0  0
 28103  1  0  0  0
 28104  1  0  0  0
 29105  1  0  0  0
 29106  1  0  0  0
 33 34  1  0  0  0
 33 66  1  0  0  0
 33 70  2  0  0  0
 34 36  1  0  0  0
 34 59  1  0  0  0
 34107  1  0  0  0
 35 44  2  0  0  0
 35 45  1  0  0  0
 35 68  1  0  0  0
 36 56  1  0  0  0
 36108  1  0  0  0
 37 39  1  0  0  0
 37 47  1  0  0  0
 37 66  1  0  0  0
 37109  1  0  0  0
 38 43  2  0  0  0
 38 46  1  0  0  0
 38 47  1  0  0  0
 39 64  1  0  0  0
 39 67  2  0  0  0
 40 52  1  0  0  0
 40 53  2  0  0  0
 40 58  1  0  0  0
 41110  1  0  0  0
 41111  1  0  0  0
 41112  1  0  0  0
 41 48  1  0  0  0
 42 43  1  0  0  0
 42 66  1  0  0  0
 42113  1  0  0  0
 42114  1  0  0  0
 43 44  1  0  0  0
 44115  1  0  0  0
 45 46  2  0  0  0
 45116  1  0  0  0
 46117  1  0  0  0
 47118  1  0  0  0
 47119  1  0  0  0
 48 56  1  0  0  0
 48 65  1  0  0  0
 48120  1  0  0  0
 49 50  1  0  0  0
 49 53  1  0  0  0
 49 64  1  0  0  0
 49121  1  0  0  0
 50 51  1  0  0  0
 50122  1  0  0  0
 50123  1  0  0  0
 51 52  1  0  0  0
 51124  1  0  0  0
 51125  1  0  0  0
 52126  1  0  0  0
 52127  1  0  0  0
 53 54  1  0  0  0
 54 55  2  0  0  0
 54128  1  0  0  0
 55 57  1  0  0  0
 55129  1  0  0  0
 56 69  2  0  0  0
 57 58  2  0  0  0
 57130  1  0  0  0
 58131  1  0  0  0
 59 60  1  0  0  0
 59 61  1  0  0  0
 59 62  1  0  0  0
 60132  1  0  0  0
 60133  1  0  0  0
 60134  1  0  0  0
 61135  1  0  0  0
 61136  1  0  0  0
 61137  1  0  0  0
 62138  1  0  0  0
 62139  1  0  0  0
 62140  1  0  0  0
 63 65  1  0  0  0
 63141  1  0  0  0
 63142  1  0  0  0
 63143  1  0  0  0
 64144  1  0  0  0
 65145  1  0  0  0
 68 83  1  0  0  0
 71 73  1  0  0  0
 71 77  1  0  0  0
 71146  1  0  0  0
 71147  1  0  0  0
 72 74  1  0  0  0
 72 77  1  0  0  0
 72148  1  0  0  0
 72149  1  0  0  0
 73 84  1  0  0  0
 73150  1  0  0  0
 73151  1  0  0  0
 74 84  1  0  0  0
 74152  1  0  0  0
 74153  1  0  0  0
 75 78  1  0  0  0
 75154  1  0  0  0
 75155  1  0  0  0
 75 85  1  0  0  0
 76 78  1  0  0  0
 76 79  1  0  0  0
 76 80  1  0  0  0
 76156  1  0  0  0
 77 85  1  0  0  0
 77157  1  0  0  0
 78 86  1  0  0  0
 78158  1  0  0  0
 79 81  1  0  0  0
 79 85  1  0  0  0
 79159  1  0  0  0
 80160  1  0  0  0
 80161  1  0  0  0
 80162  1  0  0  0
 81163  1  0  0  0
 81164  1  0  0  0
 81165  1  0  0  0
 82 83  1  0  0  0
 82 86  1  0  0  0
 82166  1  0  0  0
 82167  1  0  0  0
 83168  1  0  0  0
 83169  1  0  0  0
 86170  1  0  0  0
 86171  1  0  0  0
M  CHG  1  86   1
M  ISO  4   1 100  68 101  83 101  84 100
M  END
> <chiral flag>
0

> <version>
0

> <s_m_source_file>
/data/baiqing/PycharmProjects/Reinvent-master-3.2/result/LINK_invent/BTK/process_docking_weight1_custom_sum_contain_oxygen_bond_distance_aromatic_linkinvent_7_9_3/rearranged_h_0161.sdf

> <i_m_source_file_index>
17

> <r_mmod_Potential_Energy-OPLS-2005>
133.721939086914

> <r_mmod_Stretch_Energy-OPLS-2005>
45.5290908813477

> <r_mmod_Bend_Energy-OPLS-2005>
126.187400817871

> <r_mmod_Torsional_Energy-OPLS-2005>
422.648376464844

> <r_mmod_Improper_Torsional_Energy-OPLS-2005>
19.8724021911621

> <r_mmod_Van_der_Waal_Energy-OPLS-2005>
140.267059326172

> <r_mmod_Electrostatic_Energy-OPLS-2005>
-219.689117431641

> <r_mmod_Solvation_Energy-OPLS-2005>
-424.463226318359

> <b_mmod_Minimization_Converged-OPLS-2005>
0

> <r_mmod_RMS_Derivative-OPLS-2005>
4.0018424987793

$$$$
17
                    3D
 Structure written by MMmdl.
166175  0  0  1  0            999 V2000
  -30.5292  -14.9982   20.3795 C   0  0  0  0  0  0
  -30.4363  -12.6105   19.5182 C   0  0  0  0  0  0
  -29.5276  -12.5410   18.2686 C   0  0  0  0  0  0
  -28.0599  -12.3247   18.6772 C   0  0  0  0  0  0
  -27.6295  -13.2572   19.8412 C   0  0  2  0  0  0
  -28.6692  -13.3065   20.9832 C   0  0  0  0  0  0
  -25.2467  -13.8224   20.5717 C   0  0  0  0  0  0
  -24.1790  -13.0440   20.9216 C   0  0  0  0  0  0
  -24.6408  -11.6925   20.8748 C   0  0  0  0  0  0
  -23.9092  -10.4294   21.0399 C   0  0  0  0  0  0
  -24.3642   -9.4208   21.9169 C   0  0  0  0  0  0
  -23.6309   -8.2250   22.0739 C   0  0  0  0  0  0
  -22.4295   -8.0283   21.3534 C   0  0  0  0  0  0
  -21.9936   -9.0255   20.4638 C   0  0  0  0  0  0
  -22.7272  -10.2129   20.3042 C   0  0  0  0  0  0
  -21.6861   -6.0739   22.5274 C   0  0  0  0  0  0
  -21.4019   -6.5642   23.8205 C   0  0  0  0  0  0
  -21.3658   -5.6793   24.9166 C   0  0  0  0  0  0
  -21.6042   -4.3056   24.7221 C   0  0  0  0  0  0
  -21.8822   -3.8146   23.4345 C   0  0  0  0  0  0
  -21.9196   -4.6964   22.3404 C   0  0  0  0  0  0
  -22.7807  -13.5201   21.1872 C   0  0  0  0  0  0
  -22.1666   -4.2148   21.0984 F   0  0  0  0  0  0
  -21.5623   -3.4541   25.7737 F   0  0  0  0  0  0
  -29.9473  -13.7246   20.3888 N   0  0  0  0  0  0
  -26.2891  -12.9470   20.3246 N   0  0  0  0  0  0
  -25.9345  -11.6590   20.5737 N   0  0  0  0  0  0
  -22.0480  -12.8169   22.0428 N   0  0  0  0  0  0
  -25.4148  -15.1959   20.4149 N   0  0  0  0  0  0
  -31.7106  -15.0444   20.0214 O   0  0  0  0  0  0
  -21.6647   -6.8888   21.4237 O   0  0  0  0  0  0
  -22.3482  -14.5509   20.6725 O   0  0  0  0  0  0
  -24.6490  -31.8388   23.1805 C   0  0  0  0  0  0
  -25.9229  -32.4672   23.8227 C   0  0  1  0  0  0
  -27.2227  -27.0790   20.1541 C   0  0  0  0  0  0
  -25.5974  -33.8481   24.2149 N   0  0  0  0  0  0
  -23.4560  -30.4552   21.5275 C   0  0  2  0  0  0
  -24.9069  -28.8694   20.1113 C   0  0  0  0  0  0
  -22.7595  -29.4516   22.4815 C   0  0  0  0  0  0
  -18.0315  -28.1419   22.8482 C   0  0  0  0  0  0
  -24.1485  -36.7242   23.2647 C   0  0  0  0  0  0
  -26.0160  -30.6941   21.3866 C   0  0  0  0  0  0
  -26.0874  -29.2988   20.7295 C   0  0  0  0  0  0
  -27.2440  -28.4212   20.7297 C   0  0  0  0  0  0
  -26.0101  -26.7609   19.5025 C   0  0  0  0  0  0
  -24.8837  -27.6146   19.4830 C   0  0  0  0  0  0
  -23.6872  -29.7795   20.1490 C   0  0  0  0  0  0
  -25.4118  -36.3007   24.0306 C   0  0  1  0  0  0
  -20.5930  -28.3743   23.1214 C   0  0  2  0  0  0
  -20.6808  -26.9439   22.5407 C   0  0  0  0  0  0
  -19.5782  -26.6400   21.5222 C   0  0  0  0  0  0
  -18.1955  -26.7964   22.1631 C   0  0  0  0  0  0
  -19.1581  -28.8895   23.2846 C   0  0  0  0  0  0
  -18.9499  -30.1485   23.8873 C   0  0  0  0  0  0
  -17.6497  -30.6611   24.0559 C   0  0  0  0  0  0
  -25.9078  -34.9396   23.5037 C   0  0  0  0  0  0
  -16.5380  -29.9106   23.6344 C   0  0  0  0  0  0
  -16.7297  -28.6528   23.0363 C   0  0  0  0  0  0
  -26.4533  -31.6559   25.0690 C   0  0  0  0  0  0
  -25.3685  -31.3775   26.1364 C   0  0  0  0  0  0
  -27.0387  -30.2941   24.6290 C   0  0  0  0  0  0
  -27.6053  -32.4329   25.7487 C   0  0  0  0  0  0
  -27.5558  -37.1765   24.8464 C   0  0  0  0  0  0
  -21.4279  -29.3053   22.3565 N   0  0  0  0  0  0
  -26.4266  -37.3728   23.9421 N   0  0  0  0  0  0
  -24.7270  -31.0176   22.0877 N   0  0  0  0  0  0
  -23.4209  -28.8058   23.2980 O   0  0  0  0  0  0
  -28.2743  -26.0710   20.2108 O   0  0  0  0  0  0
  -26.5670  -34.8906   22.4612 O   0  0  0  0  0  0
  -23.5592  -32.1313   23.6972 O   0  0  0  0  0  0
  -30.2529  -21.5520   21.7485 C   0  0  0  0  0  0
  -29.7298  -20.5879   20.8518 C   0  0  0  0  0  0
  -31.1216  -21.2093   22.7987 C   0  0  0  0  0  0
  -30.1610  -19.1190   20.9588 C   0  0  0  0  0  0
  -31.5470  -19.8698   22.9295 C   0  0  0  0  0  0
  -31.1703  -18.8982   21.9592 C   0  0  0  0  0  0
  -29.8330  -23.0273   21.5164 C   0  0  0  0  0  0
  -28.8030  -21.5447   19.9375 C   0  0  0  0  0  0
  -29.1233  -23.1905   20.1545 C   0  0  2  0  0  0
  -31.6467  -22.3200   23.7099 C   0  0  0  0  0  0
  -32.4517  -19.4781   24.1047 C   0  0  0  0  0  0
  -31.9985  -17.6145   21.9350 C   0  0  0  0  0  0
  -30.1668  -23.5524   19.0784 C   0  0  0  0  0  0
  -29.8034  -17.7364   20.0939 C   0  0  0  0  0  0
  -28.0153  -24.5103   20.1094 C   0  0  0  0  0  0
  -29.7618  -16.1956   20.5774 N   0  0  0  0  0  0
  -31.4741  -12.7546   19.2147 H   0  0  0  0  0  0
  -30.4192  -11.6628   20.0584 H   0  0  0  0  0  0
  -29.8534  -11.7400   17.6038 H   0  0  0  0  0  0
  -29.6171  -13.4680   17.7002 H   0  0  0  0  0  0
  -27.9529  -11.2827   18.9787 H   0  0  0  0  0  0
  -27.4016  -12.4574   17.8177 H   0  0  0  0  0  0
  -27.5858  -14.2565   19.4066 H   0  0  0  0  0  0
  -28.7612  -12.3377   21.4770 H   0  0  0  0  0  0
  -28.3590  -14.0166   21.7513 H   0  0  0  0  0  0
  -25.2784   -9.5679   22.4741 H   0  0  0  0  0  0
  -24.0011   -7.4643   22.7459 H   0  0  0  0  0  0
  -21.0864   -8.8781   19.8948 H   0  0  0  0  0  0
  -22.3728  -10.9664   19.6150 H   0  0  0  0  0  0
  -21.2014   -7.6150   23.9708 H   0  0  0  0  0  0
  -21.1474   -6.0526   25.9068 H   0  0  0  0  0  0
  -22.0604   -2.7612   23.2848 H   0  0  0  0  0  0
  -22.4128  -11.9830   22.4804 H   0  0  0  0  0  0
  -21.1081  -13.1133   22.2630 H   0  0  0  0  0  0
  -24.6503  -15.8522   20.5267 H   0  0  0  0  0  0
  -26.2564  -15.6301   20.0595 H   0  0  0  0  0  0
  -26.7295  -32.5248   23.0946 H   0  0  0  0  0  0
  -25.0085  -33.9597   25.0273 H   0  0  0  0  0  0
  -22.7606  -31.2819   21.3655 H   0  0  0  0  0  0
  -23.3752  -35.9569   23.3289 H   0  0  0  0  0  0
  -24.3556  -36.8904   22.2067 H   0  0  0  0  0  0
  -23.7248  -37.6434   23.6703 H   0  0  0  0  0  0
  -26.1708  -31.4444   20.6104 H   0  0  0  0  0  0
  -26.8885  -30.7512   22.0256 H   0  0  0  0  0  0
  -28.1420  -28.7465   21.2360 H   0  0  0  0  0  0
  -25.8923  -25.8041   19.0165 H   0  0  0  0  0  0
  -23.9817  -27.2767   18.9920 H   0  0  0  0  0  0
  -23.8302  -30.5551   19.3954 H   0  0  0  0  0  0
  -22.8010  -29.2268   19.8316 H   0  0  0  0  0  0
  -25.1303  -36.1811   25.0797 H   0  0  0  0  0  0
  -21.0041  -28.3354   24.1327 H   0  0  0  0  0  0
  -20.5728  -26.2343   23.3630 H   0  0  0  0  0  0
  -21.6666  -26.7459   22.1177 H   0  0  0  0  0  0
  -19.6946  -25.6304   21.1273 H   0  0  0  0  0  0
  -19.6737  -27.3193   20.6732 H   0  0  0  0  0  0
  -17.4231  -26.6721   21.4022 H   0  0  0  0  0  0
  -18.0331  -26.0106   22.9029 H   0  0  0  0  0  0
  -19.7979  -30.7315   24.2238 H   0  0  0  0  0  0
  -17.5055  -31.6292   24.5173 H   0  0  0  0  0  0
  -15.5391  -30.3008   23.7680 H   0  0  0  0  0  0
  -15.8700  -28.0841   22.7090 H   0  0  0  0  0  0
  -24.5897  -30.7096   25.7667 H   0  0  0  0  0  0
  -24.8847  -32.2972   26.4678 H   0  0  0  0  0  0
  -25.7954  -30.9029   27.0206 H   0  0  0  0  0  0
  -26.3008  -29.6672   24.1274 H   0  0  0  0  0  0
  -27.3986  -29.7239   25.4864 H   0  0  0  0  0  0
  -27.8913  -30.4186   23.9604 H   0  0  0  0  0  0
  -27.2654  -33.3679   26.1956 H   0  0  0  0  0  0
  -28.3913  -32.6818   25.0344 H   0  0  0  0  0  0
  -28.0643  -31.8515   26.5498 H   0  0  0  0  0  0
  -28.2545  -38.0081   24.7490 H   0  0  0  0  0  0
  -28.1080  -36.2606   24.6299 H   0  0  0  0  0  0
  -27.2264  -37.1402   25.8860 H   0  0  0  0  0  0
  -20.9485  -29.8760   21.6746 H   0  0  0  0  0  0
  -26.0120  -38.2783   24.1464 H   0  0  0  0  0  0
  -30.6898  -23.6978   21.5833 H   0  0  0  0  0  0
  -29.1462  -23.3063   22.3155 H   0  0  0  0  0  0
  -27.7700  -21.3429   20.2233 H   0  0  0  0  0  0
  -28.8892  -21.2546   18.8896 H   0  0  0  0  0  0
  -30.8373  -22.9789   24.0253 H   0  0  0  0  0  0
  -32.3754  -22.9203   23.1654 H   0  0  0  0  0  0
  -32.1417  -21.9835   24.6175 H   0  0  0  0  0  0
  -32.1326  -19.9413   25.0371 H   0  0  0  0  0  0
  -33.4877  -19.7584   23.9090 H   0  0  0  0  0  0
  -32.4149  -18.4121   24.3303 H   0  0  0  0  0  0
  -32.9924  -17.7297   22.3635 H   0  0  0  0  0  0
  -32.2161  -17.3259   20.9102 H   0  0  0  0  0  0
  -31.4952  -16.8046   22.4620 H   0  0  0  0  0  0
  -31.0137  -22.8628   19.0879 H   0  0  0  0  0  0
  -30.5658  -24.5580   19.2261 H   0  0  0  0  0  0
  -29.7297  -23.5186   18.0797 H   0  0  0  0  0  0
  -30.4788  -17.7514   19.2361 H   0  0  0  0  0  0
  -28.8215  -17.9254   19.6566 H   0  0  0  0  0  0
  -27.2532  -24.2941   20.8582 H   0  0  0  0  0  0
  -27.5053  -24.3764   19.1564 H   0  0  0  0  0  0
  -28.8540  -15.9680   20.9532 H   0  0  0  0  0  0
  1 25  1  0  0  0
  1 30  2  0  0  0
  1 86  1  0  0  0
  2  3  1  0  0  0
  2 25  1  0  0  0
  2 87  1  0  0  0
  2 88  1  0  0  0
  3  4  1  0  0  0
  3 89  1  0  0  0
  3 90  1  0  0  0
  4  5  1  0  0  0
  4 91  1  0  0  0
  4 92  1  0  0  0
  5  6  1  0  0  0
  5 26  1  0  0  0
  5 93  1  0  0  0
  6 25  1  0  0  0
  6 94  1  0  0  0
  6 95  1  0  0  0
  7  8  2  0  0  0
  7 26  1  0  0  0
  7 29  1  0  0  0
  8  9  1  0  0  0
  8 22  1  0  0  0
  9 10  1  0  0  0
  9 27  2  0  0  0
 10 11  2  0  0  0
 10 15  1  0  0  0
 11 12  1  0  0  0
 11 96  1  0  0  0
 12 13  2  0  0  0
 12 97  1  0  0  0
 13 14  1  0  0  0
 13 31  1  0  0  0
 14 15  2  0  0  0
 14 98  1  0  0  0
 15 99  1  0  0  0
 16 17  2  0  0  0
 16 21  1  0  0  0
 16 31  1  0  0  0
 17 18  1  0  0  0
 17100  1  0  0  0
 18 19  2  0  0  0
 18101  1  0  0  0
 19 20  1  0  0  0
 19 24  1  0  0  0
 20 21  2  0  0  0
 20102  1  0  0  0
 21 23  1  0  0  0
 22 28  1  0  0  0
 22 32  2  0  0  0
 26 27  1  0  0  0
 28103  1  0  0  0
 28104  1  0  0  0
 29105  1  0  0  0
 29106  1  0  0  0
 33 34  1  0  0  0
 33 66  1  0  0  0
 33 70  2  0  0  0
 34 36  1  0  0  0
 34 59  1  0  0  0
 34107  1  0  0  0
 35 44  2  0  0  0
 35 45  1  0  0  0
 35 68  1  0  0  0
 36 56  1  0  0  0
 36108  1  0  0  0
 37 39  1  0  0  0
 37 47  1  0  0  0
 37 66  1  0  0  0
 37109  1  0  0  0
 38 43  2  0  0  0
 38 46  1  0  0  0
 38 47  1  0  0  0
 39 64  1  0  0  0
 39 67  2  0  0  0
 40 52  1  0  0  0
 40 53  2  0  0  0
 40 58  1  0  0  0
 41110  1  0  0  0
 41111  1  0  0  0
 41112  1  0  0  0
 41 48  1  0  0  0
 42 43  1  0  0  0
 42 66  1  0  0  0
 42113  1  0  0  0
 42114  1  0  0  0
 43 44  1  0  0  0
 44115  1  0  0  0
 45 46  2  0  0  0
 45116  1  0  0  0
 46117  1  0  0  0
 47118  1  0  0  0
 47119  1  0  0  0
 48 56  1  0  0  0
 48 65  1  0  0  0
 48120  1  0  0  0
 49 50  1  0  0  0
 49 53  1  0  0  0
 49 64  1  0  0  0
 49121  1  0  0  0
 50 51  1  0  0  0
 50122  1  0  0  0
 50123  1  0  0  0
 51 52  1  0  0  0
 51124  1  0  0  0
 51125  1  0  0  0
 52126  1  0  0  0
 52127  1  0  0  0
 53 54  1  0  0  0
 54 55  2  0  0  0
 54128  1  0  0  0
 55 57  1  0  0  0
 55129  1  0  0  0
 56 69  2  0  0  0
 57 58  2  0  0  0
 57130  1  0  0  0
 58131  1  0  0  0
 59 60  1  0  0  0
 59 61  1  0  0  0
 59 62  1  0  0  0
 60132  1  0  0  0
 60133  1  0  0  0
 60134  1  0  0  0
 61135  1  0  0  0
 61136  1  0  0  0
 61137  1  0  0  0
 62138  1  0  0  0
 62139  1  0  0  0
 62140  1  0  0  0
 63 65  1  0  0  0
 63141  1  0  0  0
 63142  1  0  0  0
 63143  1  0  0  0
 64144  1  0  0  0
 65145  1  0  0  0
 68 85  1  0  0  0
 71 72  1  0  0  0
 71 73  2  0  0  0
 71 77  1  0  0  0
 72 74  2  0  0  0
 72 78  1  0  0  0
 73 75  1  0  0  0
 73 80  1  0  0  0
 74 76  1  0  0  0
 74 84  1  0  0  0
 75 76  2  0  0  0
 75 81  1  0  0  0
 76 82  1  0  0  0
 77 79  1  0  0  0
 77146  1  0  0  0
 77147  1  0  0  0
 78 79  1  0  0  0
 78148  1  0  0  0
 78149  1  0  0  0
 79 83  1  0  0  0
 79 85  1  0  0  0
 80150  1  0  0  0
 80151  1  0  0  0
 80152  1  0  0  0
 81153  1  0  0  0
 81154  1  0  0  0
 81155  1  0  0  0
 82156  1  0  0  0
 82157  1  0  0  0
 82158  1  0  0  0
 83159  1  0  0  0
 83160  1  0  0  0
 83161  1  0  0  0
 84 86  1  0  0  0
 84162  1  0  0  0
 84163  1  0  0  0
 85164  1  0  0  0
 85165  1  0  0  0
 86166  1  0  0  0
M  ISO  4   1 100  68 101  85 101  86 100
M  END
> <chiral flag>
0

> <version>
0

> <s_m_source_file>
/data/baiqing/PycharmProjects/Reinvent-master-3.2/result/LINK_invent/BTK/process_docking_weight1_custom_sum_contain_oxygen_bond_distance_aromatic_linkinvent_7_9_3/rearranged_h_0161.sdf

> <i_m_source_file_index>
18

> <r_mmod_Potential_Energy-OPLS-2005>
686.998291015625

> <r_mmod_Stretch_Energy-OPLS-2005>
339.243347167969

> <r_mmod_Bend_Energy-OPLS-2005>
382.573272705078

> <r_mmod_Torsional_Energy-OPLS-2005>
224.844146728516

> <r_mmod_Improper_Torsional_Energy-OPLS-2005>
5.7255482673645

> <r_mmod_Van_der_Waal_Energy-OPLS-2005>
155.267547607422

> <r_mmod_Electrostatic_Energy-OPLS-2005>
-442.183410644531

> <r_mmod_Solvation_Energy-OPLS-2005>
-212.816635131836

> <b_mmod_Minimization_Converged-OPLS-2005>
0

> <r_mmod_RMS_Derivative-OPLS-2005>
2.77959227561951

$$$$
18
                    3D
 Structure written by MMmdl.
164173  0  0  1  0            999 V2000
  -30.6451  -14.7842   20.4577 C   0  0  0  0  0  0
  -30.4099  -12.4861   19.4873 C   0  0  0  0  0  0
  -29.5045  -12.5102   18.2393 C   0  0  0  0  0  0
  -28.0314  -12.3361   18.6510 C   0  0  0  0  0  0
  -27.6288  -13.2498   19.8404 C   0  0  2  0  0  0
  -28.6704  -13.2383   20.9799 C   0  0  0  0  0  0
  -25.2443  -13.8231   20.5719 C   0  0  0  0  0  0
  -24.1762  -13.0436   20.9224 C   0  0  0  0  0  0
  -24.6393  -11.6923   20.8751 C   0  0  0  0  0  0
  -23.9075  -10.4293   21.0408 C   0  0  0  0  0  0
  -24.3626   -9.4205   21.9177 C   0  0  0  0  0  0
  -23.6295   -8.2239   22.0744 C   0  0  0  0  0  0
  -22.4270   -8.0287   21.3545 C   0  0  0  0  0  0
  -21.9912   -9.0259   20.4639 C   0  0  0  0  0  0
  -22.7247  -10.2132   20.3057 C   0  0  0  0  0  0
  -21.6851   -6.0739   22.5279 C   0  0  0  0  0  0
  -21.4022   -6.5645   23.8215 C   0  0  0  0  0  0
  -21.3656   -5.6796   24.9177 C   0  0  0  0  0  0
  -21.6050   -4.3058   24.7233 C   0  0  0  0  0  0
  -21.8812   -3.8148   23.4351 C   0  0  0  0  0  0
  -21.9195   -4.6967   22.3408 C   0  0  0  0  0  0
  -22.7788  -13.5199   21.1885 C   0  0  0  0  0  0
  -22.1660   -4.2151   21.0982 F   0  0  0  0  0  0
  -21.5621   -3.4537   25.7739 F   0  0  0  0  0  0
  -29.9626  -13.5852   20.3830 N   0  0  0  0  0  0
  -26.2872  -12.9470   20.3250 N   0  0  0  0  0  0
  -25.9323  -11.6588   20.5733 N   0  0  0  0  0  0
  -22.0453  -12.8187   22.0446 N   0  0  0  0  0  0
  -25.4120  -15.1959   20.4162 N   0  0  0  0  0  0
  -31.8410  -14.7741   20.1569 O   0  0  0  0  0  0
  -21.6637   -6.8880   21.4239 O   0  0  0  0  0  0
  -22.3471  -14.5514   20.6735 O   0  0  0  0  0  0
  -24.6321  -31.8514   23.1946 C   0  0  0  0  0  0
  -25.9136  -32.4738   23.8304 C   0  0  1  0  0  0
  -27.2274  -27.2395   20.1378 C   0  0  0  0  0  0
  -25.5940  -33.8542   24.2229 N   0  0  0  0  0  0
  -23.4316  -30.4707   21.5352 C   0  0  2  0  0  0
  -24.8827  -28.9086   20.1034 C   0  0  0  0  0  0
  -22.7501  -29.4568   22.4858 C   0  0  0  0  0  0
  -18.0295  -28.1383   22.8485 C   0  0  0  0  0  0
  -24.1492  -36.7263   23.2640 C   0  0  0  0  0  0
  -25.9775  -30.7532   21.3823 C   0  0  0  0  0  0
  -26.0479  -29.3739   20.7231 C   0  0  0  0  0  0
  -27.2165  -28.5469   20.7373 C   0  0  0  0  0  0
  -26.0417  -26.8370   19.4907 C   0  0  0  0  0  0
  -24.8844  -27.6472   19.4795 C   0  0  0  0  0  0
  -23.6545  -29.8002   20.1520 C   0  0  0  0  0  0
  -25.4128  -36.3055   24.0318 C   0  0  1  0  0  0
  -20.5902  -28.3694   23.1252 C   0  0  2  0  0  0
  -20.6779  -26.9400   22.5410 C   0  0  0  0  0  0
  -19.5761  -26.6370   21.5208 C   0  0  0  0  0  0
  -18.1939  -26.7927   22.1620 C   0  0  0  0  0  0
  -19.1551  -28.8849   23.2872 C   0  0  0  0  0  0
  -18.9474  -30.1450   23.8891 C   0  0  0  0  0  0
  -17.6474  -30.6584   24.0557 C   0  0  0  0  0  0
  -25.9067  -34.9429   23.5072 C   0  0  0  0  0  0
  -16.5363  -29.9078   23.6337 C   0  0  0  0  0  0
  -16.7282  -28.6500   23.0352 C   0  0  0  0  0  0
  -26.4500  -31.6591   25.0717 C   0  0  0  0  0  0
  -25.3700  -31.3776   26.1425 C   0  0  0  0  0  0
  -27.0364  -30.3002   24.6255 C   0  0  0  0  0  0
  -27.6041  -32.4344   25.7506 C   0  0  0  0  0  0
  -27.5581  -37.1790   24.8464 C   0  0  0  0  0  0
  -21.4203  -29.3044   22.3630 N   0  0  0  0  0  0
  -26.4295  -37.3759   23.9398 N   0  0  0  0  0  0
  -24.6987  -31.0441   22.0936 N   0  0  0  0  0  0
  -23.4185  -28.8108   23.2973 O   0  0  0  0  0  0
  -28.3289  -26.3584   20.2716 O   0  0  0  0  0  0
  -26.5638  -34.8913   22.4640 O   0  0  0  0  0  0
  -23.5472  -32.1351   23.7224 O   0  0  0  0  0  0
  -32.0008  -20.8337   19.6986 C   0  0  0  0  0  0
  -31.8402  -19.4922   20.0686 C   0  0  0  0  0  0
  -30.5731  -18.9290   20.4097 C   0  0  0  0  0  0
  -30.9602  -21.7642   19.8031 C   0  0  0  0  0  0
  -29.5001  -19.9306   20.5552 C   0  0  0  0  0  0
  -29.6844  -21.3778   20.2795 C   0  0  0  0  0  0
  -33.1254  -18.6817   20.2458 C   0  0  0  0  0  0
  -33.1355  -17.9113   21.5905 C   0  0  0  0  0  0
  -31.7620  -17.3327   22.0072 C   0  0  0  0  0  0
  -30.7633  -17.3597   20.8310 C   0  0  2  0  0  0
  -31.3273  -23.2064   19.5351 C   0  0  0  0  0  0
  -28.1674  -19.4769   21.1108 C   0  0  0  0  0  0
  -28.5558  -25.0779   19.5102 C   0  0  0  0  0  0
  -28.1551  -23.5056   19.8356 C   0  0  0  0  0  0
  -30.0052  -16.0177   20.6913 N   0  0  0  0  0  0
  -28.8003  -22.4362   20.6906 O   0  0  0  0  0  0
  -30.3388  -11.5244   19.9983 H   0  0  0  0  0  0
  -31.4537  -12.5847   19.1844 H   0  0  0  0  0  0
  -29.7958  -11.7222   17.5432 H   0  0  0  0  0  0
  -29.6316  -13.4547   17.7078 H   0  0  0  0  0  0
  -27.8932  -11.2895   18.9249 H   0  0  0  0  0  0
  -27.3774  -12.5192   17.7980 H   0  0  0  0  0  0
  -27.6077  -14.2640   19.4393 H   0  0  0  0  0  0
  -28.3969  -13.9574   21.7548 H   0  0  0  0  0  0
  -28.7161  -12.2617   21.4639 H   0  0  0  0  0  0
  -25.2772   -9.5674   22.4745 H   0  0  0  0  0  0
  -24.0009   -7.4631   22.7455 H   0  0  0  0  0  0
  -21.0844   -8.8782   19.8951 H   0  0  0  0  0  0
  -22.3707  -10.9673   19.6164 H   0  0  0  0  0  0
  -21.2022   -7.6148   23.9723 H   0  0  0  0  0  0
  -21.1480   -6.0521   25.9080 H   0  0  0  0  0  0
  -22.0596   -2.7610   23.2848 H   0  0  0  0  0  0
  -22.4095  -11.9856   22.4831 H   0  0  0  0  0  0
  -21.1068  -13.1195   22.2653 H   0  0  0  0  0  0
  -24.6402  -15.8455   20.5251 H   0  0  0  0  0  0
  -26.2554  -15.6387   20.0747 H   0  0  0  0  0  0
  -26.7194  -32.5371   23.1036 H   0  0  0  0  0  0
  -25.0105  -33.9685   25.0393 H   0  0  0  0  0  0
  -22.7291  -31.2935   21.3847 H   0  0  0  0  0  0
  -23.3768  -35.9579   23.3306 H   0  0  0  0  0  0
  -24.3577  -36.8886   22.2051 H   0  0  0  0  0  0
  -23.7229  -37.6453   23.6675 H   0  0  0  0  0  0
  -26.1273  -31.5119   20.6129 H   0  0  0  0  0  0
  -26.8500  -30.7965   22.0227 H   0  0  0  0  0  0
  -28.1021  -28.8911   21.2528 H   0  0  0  0  0  0
  -25.9770  -25.8589   19.0356 H   0  0  0  0  0  0
  -23.9888  -27.2752   19.0027 H   0  0  0  0  0  0
  -23.7860  -30.5761   19.3972 H   0  0  0  0  0  0
  -22.7724  -29.2372   19.8434 H   0  0  0  0  0  0
  -25.1314  -36.1894   25.0810 H   0  0  0  0  0  0
  -21.0018  -28.3290   24.1362 H   0  0  0  0  0  0
  -20.5650  -26.2304   23.3621 H   0  0  0  0  0  0
  -21.6644  -26.7396   22.1217 H   0  0  0  0  0  0
  -19.6908  -25.6271   21.1248 H   0  0  0  0  0  0
  -19.6710  -27.3168   20.6730 H   0  0  0  0  0  0
  -17.4204  -26.6670   21.4027 H   0  0  0  0  0  0
  -18.0347  -26.0073   22.9021 H   0  0  0  0  0  0
  -19.7945  -30.7270   24.2264 H   0  0  0  0  0  0
  -17.5023  -31.6270   24.5141 H   0  0  0  0  0  0
  -15.5360  -30.2970   23.7664 H   0  0  0  0  0  0
  -15.8688  -28.0811   22.7066 H   0  0  0  0  0  0
  -24.5873  -30.7133   25.7750 H   0  0  0  0  0  0
  -24.8901  -32.2961   26.4807 H   0  0  0  0  0  0
  -25.7986  -30.8975   27.0227 H   0  0  0  0  0  0
  -26.2979  -29.6741   24.1237 H   0  0  0  0  0  0
  -27.3977  -29.7286   25.4812 H   0  0  0  0  0  0
  -27.8881  -30.4276   23.9571 H   0  0  0  0  0  0
  -27.2643  -33.3651   26.2068 H   0  0  0  0  0  0
  -28.3873  -32.6890   25.0350 H   0  0  0  0  0  0
  -28.0689  -31.8475   26.5440 H   0  0  0  0  0  0
  -28.2591  -38.0095   24.7511 H   0  0  0  0  0  0
  -28.1083  -36.2618   24.6298 H   0  0  0  0  0  0
  -27.2293  -37.1445   25.8867 H   0  0  0  0  0  0
  -20.9365  -29.8795   21.6870 H   0  0  0  0  0  0
  -26.0170  -38.2826   24.1411 H   0  0  0  0  0  0
  -32.9878  -21.1860   19.4345 H   0  0  0  0  0  0
  -34.0070  -19.3230   20.1937 H   0  0  0  0  0  0
  -33.2267  -17.9948   19.4049 H   0  0  0  0  0  0
  -33.4554  -18.5926   22.3795 H   0  0  0  0  0  0
  -33.8890  -17.1239   21.5558 H   0  0  0  0  0  0
  -31.9011  -16.3334   22.4193 H   0  0  0  0  0  0
  -31.3485  -17.9252   22.8259 H   0  0  0  0  0  0
  -31.3215  -17.1144   19.9314 H   0  0  0  0  0  0
  -30.9947  -23.8390   20.3576 H   0  0  0  0  0  0
  -30.8885  -23.5247   18.5903 H   0  0  0  0  0  0
  -32.4057  -23.3467   19.4518 H   0  0  0  0  0  0
  -28.2034  -19.4488   22.1988 H   0  0  0  0  0  0
  -27.9173  -18.4800   20.7480 H   0  0  0  0  0  0
  -27.3675  -20.1560   20.8121 H   0  0  0  0  0  0
  -28.1012  -25.2750   18.5383 H   0  0  0  0  0  0
  -29.6095  -25.1295   19.2656 H   0  0  0  0  0  0
  -28.1069  -23.0279   18.8562 H   0  0  0  0  0  0
  -27.1150  -23.5284   20.1606 H   0  0  0  0  0  0
  -29.0134  -16.0160   20.8721 H   0  0  0  0  0  0
  1 25  1  0  0  0
  1 30  2  0  0  0
  1 85  1  0  0  0
  2  3  1  0  0  0
  2 25  1  0  0  0
  2 87  1  0  0  0
  2 88  1  0  0  0
  3  4  1  0  0  0
  3 89  1  0  0  0
  3 90  1  0  0  0
  4  5  1  0  0  0
  4 91  1  0  0  0
  4 92  1  0  0  0
  5  6  1  0  0  0
  5 26  1  0  0  0
  5 93  1  0  0  0
  6 25  1  0  0  0
  6 94  1  0  0  0
  6 95  1  0  0  0
  7  8  2  0  0  0
  7 26  1  0  0  0
  7 29  1  0  0  0
  8  9  1  0  0  0
  8 22  1  0  0  0
  9 10  1  0  0  0
  9 27  2  0  0  0
 10 11  2  0  0  0
 10 15  1  0  0  0
 11 12  1  0  0  0
 11 96  1  0  0  0
 12 13  2  0  0  0
 12 97  1  0  0  0
 13 14  1  0  0  0
 13 31  1  0  0  0
 14 15  2  0  0  0
 14 98  1  0  0  0
 15 99  1  0  0  0
 16 17  2  0  0  0
 16 21  1  0  0  0
 16 31  1  0  0  0
 17 18  1  0  0  0
 17100  1  0  0  0
 18 19  2  0  0  0
 18101  1  0  0  0
 19 20  1  0  0  0
 19 24  1  0  0  0
 20 21  2  0  0  0
 20102  1  0  0  0
 21 23  1  0  0  0
 22 28  1  0  0  0
 22 32  2  0  0  0
 26 27  1  0  0  0
 28103  1  0  0  0
 28104  1  0  0  0
 29105  1  0  0  0
 29106  1  0  0  0
 33 34  1  0  0  0
 33 66  1  0  0  0
 33 70  2  0  0  0
 34 36  1  0  0  0
 34 59  1  0  0  0
 34107  1  0  0  0
 35 44  2  0  0  0
 35 45  1  0  0  0
 35 68  1  0  0  0
 36 56  1  0  0  0
 36108  1  0  0  0
 37 39  1  0  0  0
 37 47  1  0  0  0
 37 66  1  0  0  0
 37109  1  0  0  0
 38 43  2  0  0  0
 38 46  1  0  0  0
 38 47  1  0  0  0
 39 64  1  0  0  0
 39 67  2  0  0  0
 40 52  1  0  0  0
 40 53  2  0  0  0
 40 58  1  0  0  0
 41110  1  0  0  0
 41111  1  0  0  0
 41112  1  0  0  0
 41 48  1  0  0  0
 42 43  1  0  0  0
 42 66  1  0  0  0
 42113  1  0  0  0
 42114  1  0  0  0
 43 44  1  0  0  0
 44115  1  0  0  0
 45 46  2  0  0  0
 45116  1  0  0  0
 46117  1  0  0  0
 47118  1  0  0  0
 47119  1  0  0  0
 48 56  1  0  0  0
 48 65  1  0  0  0
 48120  1  0  0  0
 49 50  1  0  0  0
 49 53  1  0  0  0
 49 64  1  0  0  0
 49121  1  0  0  0
 50 51  1  0  0  0
 50122  1  0  0  0
 50123  1  0  0  0
 51 52  1  0  0  0
 51124  1  0  0  0
 51125  1  0  0  0
 52126  1  0  0  0
 52127  1  0  0  0
 53 54  1  0  0  0
 54 55  2  0  0  0
 54128  1  0  0  0
 55 57  1  0  0  0
 55129  1  0  0  0
 56 69  2  0  0  0
 57 58  2  0  0  0
 57130  1  0  0  0
 58131  1  0  0  0
 59 60  1  0  0  0
 59 61  1  0  0  0
 59 62  1  0  0  0
 60132  1  0  0  0
 60133  1  0  0  0
 60134  1  0  0  0
 61135  1  0  0  0
 61136  1  0  0  0
 61137  1  0  0  0
 62138  1  0  0  0
 62139  1  0  0  0
 62140  1  0  0  0
 63 65  1  0  0  0
 63141  1  0  0  0
 63142  1  0  0  0
 63143  1  0  0  0
 64144  1  0  0  0
 65145  1  0  0  0
 68 83  1  0  0  0
 71 72  2  0  0  0
 71 74  1  0  0  0
 71146  1  0  0  0
 72 73  1  0  0  0
 72 77  1  0  0  0
 73 75  2  0  0  0
 73 80  1  0  0  0
 74 76  2  0  0  0
 74 81  1  0  0  0
 75 76  1  0  0  0
 75 82  1  0  0  0
 76 86  1  0  0  0
 77 78  1  0  0  0
 77147  1  0  0  0
 77148  1  0  0  0
 78 79  1  0  0  0
 78149  1  0  0  0
 78150  1  0  0  0
 79 80  1  0  0  0
 79151  1  0  0  0
 79152  1  0  0  0
 80 85  1  0  0  0
 80153  1  0  0  0
 81154  1  0  0  0
 81155  1  0  0  0
 81156  1  0  0  0
 82157  1  0  0  0
 82158  1  0  0  0
 82159  1  0  0  0
 83 84  1  0  0  0
 83160  1  0  0  0
 83161  1  0  0  0
 84 86  1  0  0  0
 84162  1  0  0  0
 84163  1  0  0  0
 85164  1  0  0  0
M  ISO  4   1 100  68 101  83 101  85 100
M  END
> <chiral flag>
0

> <version>
0

> <s_m_source_file>
/data/baiqing/PycharmProjects/Reinvent-master-3.2/result/LINK_invent/BTK/process_docking_weight1_custom_sum_contain_oxygen_bond_distance_aromatic_linkinvent_7_9_3/rearranged_h_0161.sdf

> <i_m_source_file_index>
19

> <r_mmod_Potential_Energy-OPLS-2005>
449.283416748047

> <r_mmod_Stretch_Energy-OPLS-2005>
175.160537719727

> <r_mmod_Bend_Energy-OPLS-2005>
385.096893310547

> <r_mmod_Torsional_Energy-OPLS-2005>
248.904861450195

> <r_mmod_Improper_Torsional_Energy-OPLS-2005>
8.89784622192383

> <r_mmod_Van_der_Waal_Energy-OPLS-2005>
166.388031005859

> <r_mmod_Electrostatic_Energy-OPLS-2005>
-427.086395263672

> <r_mmod_Solvation_Energy-OPLS-2005>
-213.868057250977

> <b_mmod_Minimization_Converged-OPLS-2005>
0

> <r_mmod_RMS_Derivative-OPLS-2005>
2.10421371459961

$$$$
19
                    3D
 Structure written by MMmdl.
186196  0  0  1  0            999 V2000
  -30.7269  -14.4253   20.4952 C   0  0  0  0  0  0
  -30.4017  -12.2547   19.4257 C   0  0  0  0  0  0
  -29.4841  -12.4750   18.2056 C   0  0  0  0  0  0
  -28.0061  -12.3496   18.6229 C   0  0  0  0  0  0
  -27.6558  -13.2052   19.8692 C   0  0  2  0  0  0
  -28.7016  -13.0141   20.9949 C   0  0  0  0  0  0
  -25.2574  -13.8179   20.5687 C   0  0  0  0  0  0
  -24.1820  -13.0425   20.9199 C   0  0  0  0  0  0
  -24.6384  -11.6907   20.8751 C   0  0  0  0  0  0
  -23.9055  -10.4282   21.0418 C   0  0  0  0  0  0
  -24.3615   -9.4199   21.9190 C   0  0  0  0  0  0
  -23.6294   -8.2230   22.0753 C   0  0  0  0  0  0
  -22.4274   -8.0272   21.3549 C   0  0  0  0  0  0
  -21.9908   -9.0240   20.4646 C   0  0  0  0  0  0
  -22.7234  -10.2125   20.3062 C   0  0  0  0  0  0
  -21.6848   -6.0732   22.5275 C   0  0  0  0  0  0
  -21.4008   -6.5641   23.8205 C   0  0  0  0  0  0
  -21.3659   -5.6797   24.9169 C   0  0  0  0  0  0
  -21.6052   -4.3059   24.7226 C   0  0  0  0  0  0
  -21.8817   -3.8147   23.4346 C   0  0  0  0  0  0
  -21.9188   -4.6961   22.3400 C   0  0  0  0  0  0
  -22.7850  -13.5233   21.1865 C   0  0  0  0  0  0
  -22.1663   -4.2152   21.0976 F   0  0  0  0  0  0
  -21.5634   -3.4536   25.7737 F   0  0  0  0  0  0
  -30.0347  -13.2613   20.4288 N   0  0  0  0  0  0
  -26.2991  -12.9334   20.3367 N   0  0  0  0  0  0
  -25.9309  -11.6496   20.5805 N   0  0  0  0  0  0
  -22.0508  -12.8188   22.0428 N   0  0  0  0  0  0
  -25.4275  -15.1875   20.4083 N   0  0  0  0  0  0
  -31.9105  -14.5306   20.1738 O   0  0  0  0  0  0
  -21.6634   -6.8873   21.4240 O   0  0  0  0  0  0
  -22.3533  -14.5529   20.6728 O   0  0  0  0  0  0
  -24.6103  -31.8662   23.2192 C   0  0  0  0  0  0
  -25.9026  -32.4794   23.8471 C   0  0  1  0  0  0
  -27.2151  -27.4644   20.1099 C   0  0  0  0  0  0
  -25.5878  -33.8613   24.2359 N   0  0  0  0  0  0
  -23.3918  -30.4897   21.5623 C   0  0  2  0  0  0
  -24.8340  -28.9735   20.1252 C   0  0  0  0  0  0
  -22.7435  -29.4563   22.5072 C   0  0  0  0  0  0
  -18.0201  -28.1374   22.8509 C   0  0  0  0  0  0
  -24.1512  -36.7293   23.2631 C   0  0  0  0  0  0
  -25.9218  -30.8491   21.3700 C   0  0  0  0  0  0
  -25.9937  -29.4881   20.7175 C   0  0  0  0  0  0
  -27.1918  -28.7432   20.7005 C   0  0  0  0  0  0
  -26.0344  -26.9718   19.5049 C   0  0  0  0  0  0
  -24.8484  -27.7164   19.5118 C   0  0  0  0  0  0
  -23.5977  -29.8306   20.1748 C   0  0  0  0  0  0
  -25.4142  -36.3067   24.0296 C   0  0  1  0  0  0
  -20.5823  -28.3569   23.1374 C   0  0  2  0  0  0
  -20.6737  -26.9320   22.5464 C   0  0  0  0  0  0
  -19.5696  -26.6365   21.5259 C   0  0  0  0  0  0
  -18.1840  -26.7918   22.1669 C   0  0  0  0  0  0
  -19.1491  -28.8805   23.2886 C   0  0  0  0  0  0
  -18.9442  -30.1425   23.8870 C   0  0  0  0  0  0
  -17.6453  -30.6588   24.0597 C   0  0  0  0  0  0
  -25.9023  -34.9427   23.5121 C   0  0  0  0  0  0
  -16.5305  -29.9113   23.6442 C   0  0  0  0  0  0
  -16.7198  -28.6549   23.0412 C   0  0  0  0  0  0
  -26.4432  -31.6503   25.0761 C   0  0  0  0  0  0
  -25.3696  -31.3546   26.1475 C   0  0  0  0  0  0
  -27.0260  -30.2923   24.6172 C   0  0  0  0  0  0
  -27.5938  -32.4226   25.7610 C   0  0  0  0  0  0
  -27.5577  -37.1802   24.8461 C   0  0  0  0  0  0
  -21.4163  -29.2923   22.3866 N   0  0  0  0  0  0
  -26.4317  -37.3740   23.9354 N   0  0  0  0  0  0
  -24.6571  -31.0840   22.1055 N   0  0  0  0  0  0
  -23.4215  -28.8086   23.3068 O   0  0  0  0  0  0
  -28.4141  -26.7978   20.0460 O   0  0  0  0  0  0
  -26.5617  -34.8826   22.4694 O   0  0  0  0  0  0
  -23.5306  -32.1366   23.7620 O   0  0  0  0  0  0
  -30.7567  -19.8772   20.1330 C   0  0  0  0  0  0
  -29.9083  -19.2649   19.1927 C   0  0  0  0  0  0
  -29.6722  -19.9087   17.9425 C   0  0  0  0  0  0
  -30.4295  -21.0600   17.5620 C   0  0  0  0  0  0
  -31.4337  -21.5285   18.4689 C   0  0  0  0  0  0
  -31.5251  -20.9949   19.7739 C   0  0  0  0  0  0
  -29.3152  -25.5357   16.0687 C   0  0  0  0  0  0
  -27.7226  -23.6866   15.7456 C   0  0  0  0  0  0
  -29.9260  -16.8297   18.4936 C   0  0  0  0  0  0
  -28.8177  -25.6582   17.5309 C   0  0  0  0  0  0
  -27.3255  -23.6623   17.2341 C   0  0  0  0  0  0
  -29.4284  -17.8613   19.4755 C   0  0  1  0  0  0
  -29.1830  -24.1115   15.5011 C   0  0  2  0  0  0
  -30.3763  -16.7448   19.9245 C   0  0  1  0  0  0
  -28.6674  -19.3025   16.9606 C   0  0  0  0  0  0
  -32.5115  -22.5361   18.0833 C   0  0  0  0  0  0
  -32.0145  -22.4617   21.5480 C   0  0  0  0  0  0
  -30.2325  -21.6969   16.1565 C   0  0  0  0  0  0
  -30.3097  -23.2450   16.1249 C   0  0  0  0  0  0
  -27.8959  -24.3555   19.5395 C   0  0  0  0  0  0
  -28.4924  -25.4365   20.4716 C   0  0  0  0  0  0
  -29.9612  -15.5229   20.5509 N   0  0  0  0  0  0
  -28.3016  -24.3737   18.1041 N   0  3  2  0  0  0
  -32.4732  -21.4650   20.6453 O   0  0  0  0  0  0
  -31.4511  -12.3062   19.1286 H   0  0  0  0  0  0
  -30.2564  -11.2529   19.8328 H   0  0  0  0  0  0
  -29.7096  -11.7471   17.4240 H   0  0  0  0  0  0
  -29.6614  -13.4593   17.7686 H   0  0  0  0  0  0
  -27.8107  -11.2974   18.8330 H   0  0  0  0  0  0
  -27.3499  -12.6141   17.7927 H   0  0  0  0  0  0
  -27.6896  -14.2462   19.5482 H   0  0  0  0  0  0
  -28.6553  -11.9967   21.3881 H   0  0  0  0  0  0
  -28.4978  -13.6720   21.8409 H   0  0  0  0  0  0
  -25.2765   -9.5664   22.4761 H   0  0  0  0  0  0
  -24.0005   -7.4616   22.7454 H   0  0  0  0  0  0
  -21.0851   -8.8765   19.8936 H   0  0  0  0  0  0
  -22.3711  -10.9667   19.6169 H   0  0  0  0  0  0
  -21.2001   -7.6149   23.9711 H   0  0  0  0  0  0
  -21.1490   -6.0527   25.9077 H   0  0  0  0  0  0
  -22.0599   -2.7609   23.2839 H   0  0  0  0  0  0
  -22.4154  -11.9837   22.4768 H   0  0  0  0  0  0
  -21.1138  -13.1183   22.2674 H   0  0  0  0  0  0
  -24.6591  -15.8407   20.5164 H   0  0  0  0  0  0
  -26.2746  -15.6264   20.0697 H   0  0  0  0  0  0
  -26.7171  -32.5492   23.1307 H   0  0  0  0  0  0
  -25.0201  -33.9899   25.0608 H   0  0  0  0  0  0
  -22.6634  -31.2899   21.4351 H   0  0  0  0  0  0
  -23.3714  -35.9672   23.3290 H   0  0  0  0  0  0
  -24.3645  -36.8899   22.2048 H   0  0  0  0  0  0
  -23.7373  -37.6541   23.6679 H   0  0  0  0  0  0
  -26.0496  -31.6292   20.6193 H   0  0  0  0  0  0
  -26.8069  -30.8851   21.9938 H   0  0  0  0  0  0
  -28.0966  -29.1550   21.1295 H   0  0  0  0  0  0
  -26.0061  -26.0532   18.9532 H   0  0  0  0  0  0
  -23.9640  -27.3260   19.0244 H   0  0  0  0  0  0
  -22.7344  -29.2320   19.8794 H   0  0  0  0  0  0
  -23.7000  -30.6012   19.4079 H   0  0  0  0  0  0
  -25.1338  -36.1926   25.0803 H   0  0  0  0  0  0
  -20.9821  -28.3104   24.1526 H   0  0  0  0  0  0
  -20.5700  -26.2105   23.3599 H   0  0  0  0  0  0
  -21.6577  -26.7428   22.1174 H   0  0  0  0  0  0
  -19.6797  -25.6274   21.1292 H   0  0  0  0  0  0
  -19.6653  -27.3195   20.6784 H   0  0  0  0  0  0
  -17.4123  -26.6643   21.4056 H   0  0  0  0  0  0
  -18.0135  -26.0073   22.9058 H   0  0  0  0  0  0
  -19.7920  -30.7278   24.2127 H   0  0  0  0  0  0
  -17.5047  -31.6299   24.5158 H   0  0  0  0  0  0
  -15.5337  -30.3072   23.7823 H   0  0  0  0  0  0
  -15.8522  -28.0991   22.7119 H   0  0  0  0  0  0
  -24.5855  -30.6943   25.7781 H   0  0  0  0  0  0
  -24.8920  -32.2684   26.5036 H   0  0  0  0  0  0
  -25.8052  -30.8611   27.0165 H   0  0  0  0  0  0
  -26.2773  -29.6748   24.1231 H   0  0  0  0  0  0
  -27.3878  -29.7104   25.4652 H   0  0  0  0  0  0
  -27.8709  -30.4099   23.9375 H   0  0  0  0  0  0
  -27.2418  -33.3412   26.2315 H   0  0  0  0  0  0
  -28.3737  -32.6926   25.0487 H   0  0  0  0  0  0
  -28.0626  -31.8255   26.5460 H   0  0  0  0  0  0
  -28.2536  -38.0140   24.7477 H   0  0  0  0  0  0
  -28.1121  -36.2658   24.6324 H   0  0  0  0  0  0
  -27.2283  -37.1427   25.8864 H   0  0  0  0  0  0
  -20.9287  -29.8730   21.7214 H   0  0  0  0  0  0
  -26.0154  -38.2771   24.1438 H   0  0  0  0  0  0
  -30.9162  -19.4110   21.0968 H   0  0  0  0  0  0
  -30.3515  -25.8747   16.0103 H   0  0  0  0  0  0
  -28.7523  -26.2329   15.4458 H   0  0  0  0  0  0
  -27.0841  -24.4150   15.2421 H   0  0  0  0  0  0
  -27.4838  -22.7408   15.2640 H   0  0  0  0  0  0
  -30.6820  -17.1332   17.7692 H   0  0  0  0  0  0
  -29.2022  -16.1038   18.1273 H   0  0  0  0  0  0
  -28.0551  -26.4336   17.5855 H   0  0  0  0  0  0
  -29.6662  -25.9893   18.1311 H   0  0  0  0  0  0
  -27.2691  -22.6222   17.5598 H   0  0  0  0  0  0
  -26.3271  -24.0868   17.3532 H   0  0  0  0  0  0
  -28.3904  -17.8259   19.7987 H   0  0  0  0  0  0
  -29.3405  -24.1582   14.4216 H   0  0  0  0  0  0
  -31.3927  -17.0726   20.1457 H   0  0  0  0  0  0
  -29.1663  -19.0342   16.0276 H   0  0  0  0  0  0
  -27.8694  -20.0126   16.7487 H   0  0  0  0  0  0
  -28.1703  -18.4077   17.3350 H   0  0  0  0  0  0
  -32.6800  -22.6005   17.0118 H   0  0  0  0  0  0
  -33.4699  -22.2196   18.4912 H   0  0  0  0  0  0
  -32.2902  -23.5295   18.4774 H   0  0  0  0  0  0
  -32.8483  -23.1186   21.8001 H   0  0  0  0  0  0
  -31.6578  -22.0099   22.4743 H   0  0  0  0  0  0
  -31.2223  -23.0863   21.1288 H   0  0  0  0  0  0
  -29.3130  -21.3776   15.6723 H   0  0  0  0  0  0
  -31.0245  -21.2952   15.5198 H   0  0  0  0  0  0
  -30.4470  -23.5851   17.1444 H   0  0  0  0  0  0
  -31.2381  -23.5255   15.6264 H   0  0  0  0  0  0
  -26.8152  -24.3034   19.6551 H   0  0  0  0  0  0
  -28.2264  -23.3904   19.9217 H   0  0  0  0  0  0
  -29.5543  -25.2421   20.6176 H   0  0  0  0  0  0
  -28.0442  -25.3405   21.4611 H   0  0  0  0  0  0
  -28.9854  -15.3969   20.7675 H   0  0  0  0  0  0
  -29.1173  -23.7768   18.0740 H   0  0  0  0  0  0
  1 25  1  0  0  0
  1 30  2  0  0  0
  1 92  1  0  0  0
  2  3  1  0  0  0
  2 25  1  0  0  0
  2 95  1  0  0  0
  2 96  1  0  0  0
  3  4  1  0  0  0
  3 97  1  0  0  0
  3 98  1  0  0  0
  4  5  1  0  0  0
  4 99  1  0  0  0
  4100  1  0  0  0
  5  6  1  0  0  0
  5 26  1  0  0  0
  5101  1  0  0  0
  6 25  1  0  0  0
  6102  1  0  0  0
  6103  1  0  0  0
  7  8  2  0  0  0
  7 26  1  0  0  0
  7 29  1  0  0  0
  8  9  1  0  0  0
  8 22  1  0  0  0
  9 10  1  0  0  0
  9 27  2  0  0  0
 10 11  2  0  0  0
 10 15  1  0  0  0
 11 12  1  0  0  0
 11104  1  0  0  0
 12 13  2  0  0  0
 12105  1  0  0  0
 13 14  1  0  0  0
 13 31  1  0  0  0
 14 15  2  0  0  0
 14106  1  0  0  0
 15107  1  0  0  0
 16 17  2  0  0  0
 16 21  1  0  0  0
 16 31  1  0  0  0
 17 18  1  0  0  0
 17108  1  0  0  0
 18 19  2  0  0  0
 18109  1  0  0  0
 19 20  1  0  0  0
 19 24  1  0  0  0
 20 21  2  0  0  0
 20110  1  0  0  0
 21 23  1  0  0  0
 22 28  1  0  0  0
 22 32  2  0  0  0
 26 27  1  0  0  0
 28111  1  0  0  0
 28112  1  0  0  0
 29113  1  0  0  0
 29114  1  0  0  0
 33 34  1  0  0  0
 33 66  1  0  0  0
 33 70  2  0  0  0
 34 36  1  0  0  0
 34 59  1  0  0  0
 34115  1  0  0  0
 35 44  2  0  0  0
 35 45  1  0  0  0
 35 68  1  0  0  0
 36 56  1  0  0  0
 36116  1  0  0  0
 37 39  1  0  0  0
 37 47  1  0  0  0
 37 66  1  0  0  0
 37117  1  0  0  0
 38 43  2  0  0  0
 38 46  1  0  0  0
 38 47  1  0  0  0
 39 64  1  0  0  0
 39 67  2  0  0  0
 40 52  1  0  0  0
 40 53  2  0  0  0
 40 58  1  0  0  0
 41118  1  0  0  0
 41119  1  0  0  0
 41120  1  0  0  0
 41 48  1  0  0  0
 42 43  1  0  0  0
 42 66  1  0  0  0
 42121  1  0  0  0
 42122  1  0  0  0
 43 44  1  0  0  0
 44123  1  0  0  0
 45 46  2  0  0  0
 45124  1  0  0  0
 46125  1  0  0  0
 47126  1  0  0  0
 47127  1  0  0  0
 48 56  1  0  0  0
 48 65  1  0  0  0
 48128  1  0  0  0
 49 50  1  0  0  0
 49 53  1  0  0  0
 49 64  1  0  0  0
 49129  1  0  0  0
 50 51  1  0  0  0
 50130  1  0  0  0
 50131  1  0  0  0
 51 52  1  0  0  0
 51132  1  0  0  0
 51133  1  0  0  0
 52134  1  0  0  0
 52135  1  0  0  0
 53 54  1  0  0  0
 54 55  2  0  0  0
 54136  1  0  0  0
 55 57  1  0  0  0
 55137  1  0  0  0
 56 69  2  0  0  0
 57 58  2  0  0  0
 57138  1  0  0  0
 58139  1  0  0  0
 59 60  1  0  0  0
 59 61  1  0  0  0
 59 62  1  0  0  0
 60140  1  0  0  0
 60141  1  0  0  0
 60142  1  0  0  0
 61143  1  0  0  0
 61144  1  0  0  0
 61145  1  0  0  0
 62146  1  0  0  0
 62147  1  0  0  0
 62148  1  0  0  0
 63 65  1  0  0  0
 63149  1  0  0  0
 63150  1  0  0  0
 63151  1  0  0  0
 64152  1  0  0  0
 65153  1  0  0  0
 68 91  1  0  0  0
 71 72  2  0  0  0
 71 76  1  0  0  0
 71154  1  0  0  0
 72 73  1  0  0  0
 72 82  1  0  0  0
 73 74  2  0  0  0
 73 85  1  0  0  0
 74 75  1  0  0  0
 74 88  1  0  0  0
 75 76  2  0  0  0
 75 86  1  0  0  0
 76 94  1  0  0  0
 77 80  1  0  0  0
 77 83  1  0  0  0
 77155  1  0  0  0
 77156  1  0  0  0
 78 81  1  0  0  0
 78 83  1  0  0  0
 78157  1  0  0  0
 78158  1  0  0  0
 79 82  1  0  0  0
 79 84  1  0  0  0
 79159  1  0  0  0
 79160  1  0  0  0
 80 93  1  0  0  0
 80161  1  0  0  0
 80162  1  0  0  0
 81 93  1  0  0  0
 81163  1  0  0  0
 81164  1  0  0  0
 82 84  1  0  0  0
 82165  1  0  0  0
 83 89  1  0  0  0
 83166  1  0  0  0
 84 92  1  0  0  0
 84167  1  0  0  0
 85168  1  0  0  0
 85169  1  0  0  0
 85170  1  0  0  0
 86171  1  0  0  0
 86172  1  0  0  0
 86173  1  0  0  0
 87 94  1  0  0  0
 87174  1  0  0  0
 87175  1  0  0  0
 87176  1  0  0  0
 88 89  1  0  0  0
 88177  1  0  0  0
 88178  1  0  0  0
 89179  1  0  0  0
 89180  1  0  0  0
 90 91  1  0  0  0
 90181  1  0  0  0
 90182  1  0  0  0
 90 93  1  0  0  0
 91183  1  0  0  0
 91184  1  0  0  0
 92185  1  0  0  0
 93186  1  0  0  0
M  CHG  1  93   1
M  ISO  4   1 100  68 101  91 101  92 100
M  END
> <chiral flag>
0

> <version>
0

> <s_m_source_file>
/data/baiqing/PycharmProjects/Reinvent-master-3.2/result/LINK_invent/BTK/process_docking_weight1_custom_sum_contain_oxygen_bond_distance_aromatic_linkinvent_7_9_3/rearranged_h_0161.sdf

> <i_m_source_file_index>
20

> <r_mmod_Potential_Energy-OPLS-2005>
137.428741455078

> <r_mmod_Stretch_Energy-OPLS-2005>
43.5245056152344

> <r_mmod_Bend_Energy-OPLS-2005>
153.278457641602

> <r_mmod_Torsional_Energy-OPLS-2005>
440.381805419922

> <r_mmod_Improper_Torsional_Energy-OPLS-2005>
13.8041706085205

> <r_mmod_Van_der_Waal_Energy-OPLS-2005>
185.211044311523

> <r_mmod_Electrostatic_Energy-OPLS-2005>
-308.500732421875

> <r_mmod_Solvation_Energy-OPLS-2005>
-407.069732666016

> <b_mmod_Minimization_Converged-OPLS-2005>
0

> <r_mmod_RMS_Derivative-OPLS-2005>
6.67658758163452

$$$$
20
                    3D
 Structure written by MMmdl.
169178  0  0  1  0            999 V2000
  -30.6628  -14.7596   20.4209 C   0  0  0  0  0  0
  -30.4117  -12.4680   19.4811 C   0  0  0  0  0  0
  -29.5020  -12.4844   18.2363 C   0  0  0  0  0  0
  -28.0313  -12.3137   18.6577 C   0  0  0  0  0  0
  -27.6233  -13.2476   19.8280 C   0  0  2  0  0  0
  -28.6680  -13.2593   20.9620 C   0  0  0  0  0  0
  -25.2435  -13.8256   20.5730 C   0  0  0  0  0  0
  -24.1753  -13.0483   20.9231 C   0  0  0  0  0  0
  -24.6356  -11.6972   20.8746 C   0  0  0  0  0  0
  -23.9033  -10.4344   21.0397 C   0  0  0  0  0  0
  -24.3618   -9.4265   21.9156 C   0  0  0  0  0  0
  -23.6311   -8.2286   22.0722 C   0  0  0  0  0  0
  -22.4285   -8.0304   21.3532 C   0  0  0  0  0  0
  -21.9893   -9.0273   20.4641 C   0  0  0  0  0  0
  -22.7201  -10.2170   20.3057 C   0  0  0  0  0  0
  -21.6882   -6.0747   22.5265 C   0  0  0  0  0  0
  -21.4040   -6.5631   23.8201 C   0  0  0  0  0  0
  -21.3669   -5.6767   24.9150 C   0  0  0  0  0  0
  -21.6050   -4.3033   24.7187 C   0  0  0  0  0  0
  -21.8815   -3.8138   23.4305 C   0  0  0  0  0  0
  -21.9199   -4.6974   22.3383 C   0  0  0  0  0  0
  -22.7764  -13.5246   21.1846 C   0  0  0  0  0  0
  -22.1660   -4.2160   21.0952 F   0  0  0  0  0  0
  -21.5615   -3.4512   25.7703 F   0  0  0  0  0  0
  -29.9581  -13.5808   20.3465 N   0  0  0  0  0  0
  -26.2839  -12.9483   20.3202 N   0  0  0  0  0  0
  -25.9279  -11.6610   20.5716 N   0  0  0  0  0  0
  -22.0406  -12.8244   22.0403 N   0  0  0  0  0  0
  -25.4033  -15.1991   20.4194 N   0  0  0  0  0  0
  -31.8870  -14.6805   20.3929 O   0  0  0  0  0  0
  -21.6673   -6.8891   21.4231 O   0  0  0  0  0  0
  -22.3463  -14.5538   20.6646 O   0  0  0  0  0  0
  -24.6310  -31.8567   23.1994 C   0  0  0  0  0  0
  -25.9146  -32.4767   23.8317 C   0  0  1  0  0  0
  -27.2134  -27.2560   20.1358 C   0  0  0  0  0  0
  -25.5946  -33.8575   24.2234 N   0  0  0  0  0  0
  -23.4270  -30.4786   21.5458 C   0  0  2  0  0  0
  -24.8719  -28.9301   20.1078 C   0  0  0  0  0  0
  -22.7497  -29.4604   22.4938 C   0  0  0  0  0  0
  -18.0294  -28.1377   22.8482 C   0  0  0  0  0  0
  -24.1498  -36.7279   23.2636 C   0  0  0  0  0  0
  -25.9730  -30.7709   21.3779 C   0  0  0  0  0  0
  -26.0476  -29.3946   20.7149 C   0  0  0  0  0  0
  -27.2227  -28.5745   20.7103 C   0  0  0  0  0  0
  -26.0146  -26.8692   19.4894 C   0  0  0  0  0  0
  -24.8638  -27.6781   19.4786 C   0  0  0  0  0  0
  -23.6421  -29.8172   20.1599 C   0  0  0  0  0  0
  -25.4137  -36.3079   24.0306 C   0  0  1  0  0  0
  -20.5901  -28.3701   23.1283 C   0  0  2  0  0  0
  -20.6799  -26.9430   22.5406 C   0  0  0  0  0  0
  -19.5776  -26.6381   21.5210 C   0  0  0  0  0  0
  -18.1951  -26.7925   22.1619 C   0  0  0  0  0  0
  -19.1547  -28.8856   23.2871 C   0  0  0  0  0  0
  -18.9468  -30.1454   23.8889 C   0  0  0  0  0  0
  -17.6468  -30.6586   24.0552 C   0  0  0  0  0  0
  -25.9068  -34.9450   23.5059 C   0  0  0  0  0  0
  -16.5356  -29.9076   23.6330 C   0  0  0  0  0  0
  -16.7282  -28.6487   23.0364 C   0  0  0  0  0  0
  -26.4506  -31.6600   25.0711 C   0  0  0  0  0  0
  -25.3697  -31.3757   26.1397 C   0  0  0  0  0  0
  -27.0364  -30.3021   24.6190 C   0  0  0  0  0  0
  -27.6035  -32.4358   25.7521 C   0  0  0  0  0  0
  -27.5581  -37.1812   24.8462 C   0  0  0  0  0  0
  -21.4211  -29.3033   22.3659 N   0  0  0  0  0  0
  -26.4300  -37.3781   23.9391 N   0  0  0  0  0  0
  -24.6962  -31.0523   22.0974 N   0  0  0  0  0  0
  -23.4188  -28.8140   23.3037 O   0  0  0  0  0  0
  -28.2899  -26.3350   20.2281 O   0  0  0  0  0  0
  -26.5637  -34.8927   22.4625 O   0  0  0  0  0  0
  -23.5463  -32.1395   23.7283 O   0  0  0  0  0  0
  -31.2778  -19.6983   20.4673 C   0  0  0  0  0  0
  -30.3055  -18.6879   20.3935 C   0  0  0  0  0  0
  -32.5871  -19.5089   19.9857 C   0  0  0  0  0  0
  -32.8592  -18.3281   19.2649 C   0  0  0  0  0  0
  -31.8706  -17.3110   19.1581 C   0  0  0  0  0  0
  -30.6815  -17.3246   19.9654 C   0  0  0  0  0  0
  -28.9654  -19.4374   20.6926 C   0  0  0  0  0  0
  -30.7559  -21.0094   21.0464 C   0  0  2  0  0  0
  -33.6602  -20.5869   20.1278 C   0  0  0  0  0  0
  -34.2172  -18.1666   18.5804 C   0  0  0  0  0  0
  -32.0659  -16.2630   18.0556 C   0  0  0  0  0  0
  -31.1983  -21.2062   22.5070 C   0  0  0  0  0  0
  -28.9668  -23.6486   20.5817 C   0  0  0  0  0  0
  -28.5776  -22.0869   20.2568 C   0  0  0  0  0  0
  -27.9895  -24.8562   20.0980 C   0  0  0  0  0  0
  -30.0244  -16.0025   20.2530 N   0  0  0  0  0  0
  -29.2831  -20.9187   20.9927 N   0  3  1  0  0  0
  -31.4592  -12.5637   19.1891 H   0  0  0  0  0  0
  -30.3266  -11.5187   20.0097 H   0  0  0  0  0  0
  -29.7861  -11.6848   17.5497 H   0  0  0  0  0  0
  -29.6214  -13.4231   17.6925 H   0  0  0  0  0  0
  -27.9010  -11.2735   18.9564 H   0  0  0  0  0  0
  -27.3701  -12.4699   17.8066 H   0  0  0  0  0  0
  -27.5919  -14.2535   19.4074 H   0  0  0  0  0  0
  -28.7013  -12.2990   21.4775 H   0  0  0  0  0  0
  -28.4077  -14.0054   21.7133 H   0  0  0  0  0  0
  -25.2782   -9.5759   22.4700 H   0  0  0  0  0  0
  -24.0066   -7.4674   22.7405 H   0  0  0  0  0  0
  -21.0807   -8.8770   19.8950 H   0  0  0  0  0  0
  -22.3622  -10.9708   19.6171 H   0  0  0  0  0  0
  -21.2063   -7.6151   23.9721 H   0  0  0  0  0  0
  -21.1470   -6.0483   25.9052 H   0  0  0  0  0  0
  -22.0592   -2.7609   23.2777 H   0  0  0  0  0  0
  -22.4035  -11.9943   22.4844 H   0  0  0  0  0  0
  -21.0991  -13.1196   22.2535 H   0  0  0  0  0  0
  -24.6240  -15.8372   20.5384 H   0  0  0  0  0  0
  -26.2367  -15.6548   20.0726 H   0  0  0  0  0  0
  -26.7195  -32.5412   23.1048 H   0  0  0  0  0  0
  -25.0136  -33.9737   25.0407 H   0  0  0  0  0  0
  -22.7222  -31.3000   21.4044 H   0  0  0  0  0  0
  -23.3778  -35.9591   23.3307 H   0  0  0  0  0  0
  -24.3568  -36.8894   22.2041 H   0  0  0  0  0  0
  -23.7227  -37.6469   23.6664 H   0  0  0  0  0  0
  -26.1102  -31.5357   20.6134 H   0  0  0  0  0  0
  -26.8520  -30.8154   22.0095 H   0  0  0  0  0  0
  -28.1244  -28.9277   21.1925 H   0  0  0  0  0  0
  -25.9235  -25.9086   19.0052 H   0  0  0  0  0  0
  -23.9662  -27.3190   18.9924 H   0  0  0  0  0  0
  -23.7628  -30.5978   19.4069 H   0  0  0  0  0  0
  -22.7583  -29.2516   19.8589 H   0  0  0  0  0  0
  -25.1330  -36.1916   25.0797 H   0  0  0  0  0  0
  -20.9985  -28.3273   24.1411 H   0  0  0  0  0  0
  -20.5764  -26.2294   23.3596 H   0  0  0  0  0  0
  -21.6658  -26.7506   22.1157 H   0  0  0  0  0  0
  -19.6963  -25.6294   21.1238 H   0  0  0  0  0  0
  -19.6715  -27.3193   20.6741 H   0  0  0  0  0  0
  -17.4232  -26.6674   21.4007 H   0  0  0  0  0  0
  -18.0359  -26.0062   22.9013 H   0  0  0  0  0  0
  -19.7943  -30.7263   24.2268 H   0  0  0  0  0  0
  -17.5025  -31.6282   24.5134 H   0  0  0  0  0  0
  -15.5359  -30.2974   23.7673 H   0  0  0  0  0  0
  -15.8678  -28.0791   22.7115 H   0  0  0  0  0  0
  -24.5861  -30.7146   25.7680 H   0  0  0  0  0  0
  -24.8916  -32.2940   26.4811 H   0  0  0  0  0  0
  -25.7963  -30.8900   27.0172 H   0  0  0  0  0  0
  -26.2956  -29.6787   24.1168 H   0  0  0  0  0  0
  -27.4006  -29.7270   25.4709 H   0  0  0  0  0  0
  -27.8841  -30.4323   23.9464 H   0  0  0  0  0  0
  -27.2608  -33.3650   26.2095 H   0  0  0  0  0  0
  -28.3870  -32.6932   25.0384 H   0  0  0  0  0  0
  -28.0677  -31.8484   26.5456 H   0  0  0  0  0  0
  -28.2598  -38.0114   24.7520 H   0  0  0  0  0  0
  -28.1080  -36.2639   24.6301 H   0  0  0  0  0  0
  -27.2281  -37.1460   25.8861 H   0  0  0  0  0  0
  -20.9410  -29.8685   21.6807 H   0  0  0  0  0  0
  -26.0178  -38.2845   24.1410 H   0  0  0  0  0  0
  -28.4730  -18.9822   21.5527 H   0  0  0  0  0  0
  -28.2924  -19.3541   19.8397 H   0  0  0  0  0  0
  -31.1037  -21.8336   20.4246 H   0  0  0  0  0  0
  -33.3136  -21.5101   20.5878 H   0  0  0  0  0  0
  -34.0573  -20.8530   19.1486 H   0  0  0  0  0  0
  -34.4788  -20.2166   20.7453 H   0  0  0  0  0  0
  -34.2258  -18.6794   17.6187 H   0  0  0  0  0  0
  -34.4824  -17.1230   18.4170 H   0  0  0  0  0  0
  -35.0261  -18.5702   19.1877 H   0  0  0  0  0  0
  -32.3720  -16.7443   17.1272 H   0  0  0  0  0  0
  -31.1436  -15.7300   17.8237 H   0  0  0  0  0  0
  -32.8372  -15.5353   18.3098 H   0  0  0  0  0  0
  -30.8502  -22.1612   22.8967 H   0  0  0  0  0  0
  -32.2825  -21.1883   22.6094 H   0  0  0  0  0  0
  -30.8002  -20.4219   23.1530 H   0  0  0  0  0  0
  -29.9502  -23.8393   20.1532 H   0  0  0  0  0  0
  -29.1067  -23.7541   21.6565 H   0  0  0  0  0  0
  -28.7037  -21.9222   19.1866 H   0  0  0  0  0  0
  -27.5110  -21.9618   20.4473 H   0  0  0  0  0  0
  -27.0505  -24.6794   20.6233 H   0  0  0  0  0  0
  -27.7759  -24.6767   19.0455 H   0  0  0  0  0  0
  -29.0186  -15.9993   20.3122 H   0  0  0  0  0  0
  -28.9951  -21.0264   21.9522 H   0  0  0  0  0  0
  1 25  1  0  0  0
  1 30  2  0  0  0
  1 86  1  0  0  0
  2  3  1  0  0  0
  2 25  1  0  0  0
  2 88  1  0  0  0
  2 89  1  0  0  0
  3  4  1  0  0  0
  3 90  1  0  0  0
  3 91  1  0  0  0
  4  5  1  0  0  0
  4 92  1  0  0  0
  4 93  1  0  0  0
  5  6  1  0  0  0
  5 26  1  0  0  0
  5 94  1  0  0  0
  6 25  1  0  0  0
  6 95  1  0  0  0
  6 96  1  0  0  0
  7  8  2  0  0  0
  7 26  1  0  0  0
  7 29  1  0  0  0
  8  9  1  0  0  0
  8 22  1  0  0  0
  9 10  1  0  0  0
  9 27  2  0  0  0
 10 11  2  0  0  0
 10 15  1  0  0  0
 11 12  1  0  0  0
 11 97  1  0  0  0
 12 13  2  0  0  0
 12 98  1  0  0  0
 13 14  1  0  0  0
 13 31  1  0  0  0
 14 15  2  0  0  0
 14 99  1  0  0  0
 15100  1  0  0  0
 16 17  2  0  0  0
 16 21  1  0  0  0
 16 31  1  0  0  0
 17 18  1  0  0  0
 17101  1  0  0  0
 18 19  2  0  0  0
 18102  1  0  0  0
 19 20  1  0  0  0
 19 24  1  0  0  0
 20 21  2  0  0  0
 20103  1  0  0  0
 21 23  1  0  0  0
 22 28  1  0  0  0
 22 32  2  0  0  0
 26 27  1  0  0  0
 28104  1  0  0  0
 28105  1  0  0  0
 29106  1  0  0  0
 29107  1  0  0  0
 33 34  1  0  0  0
 33 66  1  0  0  0
 33 70  2  0  0  0
 34 36  1  0  0  0
 34 59  1  0  0  0
 34108  1  0  0  0
 35 44  2  0  0  0
 35 45  1  0  0  0
 35 68  1  0  0  0
 36 56  1  0  0  0
 36109  1  0  0  0
 37 39  1  0  0  0
 37 47  1  0  0  0
 37 66  1  0  0  0
 37110  1  0  0  0
 38 43  2  0  0  0
 38 46  1  0  0  0
 38 47  1  0  0  0
 39 64  1  0  0  0
 39 67  2  0  0  0
 40 52  1  0  0  0
 40 53  2  0  0  0
 40 58  1  0  0  0
 41111  1  0  0  0
 41112  1  0  0  0
 41113  1  0  0  0
 41 48  1  0  0  0
 42 43  1  0  0  0
 42 66  1  0  0  0
 42114  1  0  0  0
 42115  1  0  0  0
 43 44  1  0  0  0
 44116  1  0  0  0
 45 46  2  0  0  0
 45117  1  0  0  0
 46118  1  0  0  0
 47119  1  0  0  0
 47120  1  0  0  0
 48 56  1  0  0  0
 48 65  1  0  0  0
 48121  1  0  0  0
 49 50  1  0  0  0
 49 53  1  0  0  0
 49 64  1  0  0  0
 49122  1  0  0  0
 50 51  1  0  0  0
 50123  1  0  0  0
 50124  1  0  0  0
 51 52  1  0  0  0
 51125  1  0  0  0
 51126  1  0  0  0
 52127  1  0  0  0
 52128  1  0  0  0
 53 54  1  0  0  0
 54 55  2  0  0  0
 54129  1  0  0  0
 55 57  1  0  0  0
 55130  1  0  0  0
 56 69  2  0  0  0
 57 58  2  0  0  0
 57131  1  0  0  0
 58132  1  0  0  0
 59 60  1  0  0  0
 59 61  1  0  0  0
 59 62  1  0  0  0
 60133  1  0  0  0
 60134  1  0  0  0
 60135  1  0  0  0
 61136  1  0  0  0
 61137  1  0  0  0
 61138  1  0  0  0
 62139  1  0  0  0
 62140  1  0  0  0
 62141  1  0  0  0
 63 65  1  0  0  0
 63142  1  0  0  0
 63143  1  0  0  0
 63144  1  0  0  0
 64145  1  0  0  0
 65146  1  0  0  0
 68 85  1  0  0  0
 71 72  1  0  0  0
 71 73  2  0  0  0
 71 78  1  0  0  0
 72 76  2  0  0  0
 72 77  1  0  0  0
 73 74  1  0  0  0
 73 79  1  0  0  0
 74 75  2  0  0  0
 74 80  1  0  0  0
 75 76  1  0  0  0
 75 81  1  0  0  0
 76 86  1  0  0  0
 77 87  1  0  0  0
 77147  1  0  0  0
 77148  1  0  0  0
 78 82  1  0  0  0
 78 87  1  0  0  0
 78149  1  0  0  0
 79150  1  0  0  0
 79151  1  0  0  0
 79152  1  0  0  0
 80153  1  0  0  0
 80154  1  0  0  0
 80155  1  0  0  0
 81156  1  0  0  0
 81157  1  0  0  0
 81158  1  0  0  0
 82159  1  0  0  0
 82160  1  0  0  0
 82161  1  0  0  0
 83 84  1  0  0  0
 83 85  1  0  0  0
 83162  1  0  0  0
 83163  1  0  0  0
 84164  1  0  0  0
 84165  1  0  0  0
 84 87  1  0  0  0
 85166  1  0  0  0
 85167  1  0  0  0
 86168  1  0  0  0
 87169  1  0  0  0
M  CHG  1  87   1
M  ISO  4   1 100  68 101  85 101  86 100
M  END
> <chiral flag>
0

> <version>
0

> <s_m_source_file>
/data/baiqing/PycharmProjects/Reinvent-master-3.2/result/LINK_invent/BTK/process_docking_weight1_custom_sum_contain_oxygen_bond_distance_aromatic_linkinvent_7_9_3/rearranged_h_0161.sdf

> <i_m_source_file_index>
21

> <r_mmod_Potential_Energy-OPLS-2005>
219.563400268555

> <r_mmod_Stretch_Energy-OPLS-2005>
148.566558837891

> <r_mmod_Bend_Energy-OPLS-2005>
236.183502197266

> <r_mmod_Torsional_Energy-OPLS-2005>
325.756805419922

> <r_mmod_Improper_Torsional_Energy-OPLS-2005>
7.40610074996948

> <r_mmod_Van_der_Waal_Energy-OPLS-2005>
161.818405151367

> <r_mmod_Electrostatic_Energy-OPLS-2005>
-316.393798828125

> <r_mmod_Solvation_Energy-OPLS-2005>
-456.865905761719

> <b_mmod_Minimization_Converged-OPLS-2005>
0

> <r_mmod_RMS_Derivative-OPLS-2005>
3.83197665214539

$$$$
21
                    3D
 Structure written by MMmdl.
178188  0  0  1  0            999 V2000
  -30.7214  -14.4434   20.6530 C   0  0  0  0  0  0
  -30.4260  -12.3240   19.4049 C   0  0  0  0  0  0
  -29.4927  -12.5331   18.1971 C   0  0  0  0  0  0
  -28.0162  -12.3734   18.6113 C   0  0  0  0  0  0
  -27.6661  -13.1945   19.8795 C   0  0  2  0  0  0
  -28.7074  -12.9373   20.9923 C   0  0  0  0  0  0
  -25.2632  -13.8058   20.5609 C   0  0  0  0  0  0
  -24.1873  -13.0398   20.9201 C   0  0  0  0  0  0
  -24.6395  -11.6858   20.8754 C   0  0  0  0  0  0
  -23.9047  -10.4266   21.0418 C   0  0  0  0  0  0
  -24.3602   -9.4187   21.9196 C   0  0  0  0  0  0
  -23.6269   -8.2231   22.0769 C   0  0  0  0  0  0
  -22.4252   -8.0277   21.3562 C   0  0  0  0  0  0
  -21.9886   -9.0248   20.4667 C   0  0  0  0  0  0
  -22.7218  -10.2122   20.3067 C   0  0  0  0  0  0
  -21.6841   -6.0733   22.5277 C   0  0  0  0  0  0
  -21.4007   -6.5638   23.8211 C   0  0  0  0  0  0
  -21.3657   -5.6795   24.9177 C   0  0  0  0  0  0
  -21.6043   -4.3056   24.7228 C   0  0  0  0  0  0
  -21.8817   -3.8146   23.4347 C   0  0  0  0  0  0
  -21.9182   -4.6962   22.3401 C   0  0  0  0  0  0
  -22.7911  -13.5259   21.1836 C   0  0  0  0  0  0
  -22.1649   -4.2148   21.0981 F   0  0  0  0  0  0
  -21.5625   -3.4538   25.7740 F   0  0  0  0  0  0
  -30.0344  -13.2811   20.4546 N   0  0  0  0  0  0
  -26.3058  -12.9219   20.3363 N   0  0  0  0  0  0
  -25.9321  -11.6403   20.5767 N   0  0  0  0  0  0
  -22.0502  -12.8288   22.0381 N   0  0  0  0  0  0
  -25.4366  -15.1700   20.3753 N   0  0  0  0  0  0
  -31.7881  -14.6789   20.0737 O   0  0  0  0  0  0
  -21.6622   -6.8873   21.4243 O   0  0  0  0  0  0
  -22.3655  -14.5582   20.6669 O   0  0  0  0  0  0
  -24.6159  -31.8677   23.2116 C   0  0  0  0  0  0
  -25.9051  -32.4820   23.8403 C   0  0  1  0  0  0
  -27.2442  -27.4425   20.0606 C   0  0  0  0  0  0
  -25.5910  -33.8620   24.2332 N   0  0  0  0  0  0
  -23.4038  -30.4940   21.5519 C   0  0  2  0  0  0
  -24.8537  -28.9690   20.1067 C   0  0  0  0  0  0
  -22.7401  -29.4669   22.4974 C   0  0  0  0  0  0
  -18.0274  -28.1385   22.8481 C   0  0  0  0  0  0
  -24.1488  -36.7310   23.2636 C   0  0  0  0  0  0
  -25.9365  -30.8311   21.3706 C   0  0  0  0  0  0
  -26.0155  -29.4704   20.7075 C   0  0  0  0  0  0
  -27.2104  -28.7090   20.6934 C   0  0  0  0  0  0
  -26.0587  -26.9584   19.4767 C   0  0  0  0  0  0
  -24.8697  -27.7078   19.4912 C   0  0  0  0  0  0
  -23.6132  -29.8320   20.1645 C   0  0  0  0  0  0
  -25.4109  -36.3105   24.0335 C   0  0  1  0  0  0
  -20.5859  -28.3669   23.1304 C   0  0  2  0  0  0
  -20.6759  -26.9407   22.5397 C   0  0  0  0  0  0
  -19.5747  -26.6405   21.5182 C   0  0  0  0  0  0
  -18.1924  -26.7942   22.1594 C   0  0  0  0  0  0
  -19.1521  -28.8830   23.2907 C   0  0  0  0  0  0
  -18.9457  -30.1432   23.8928 C   0  0  0  0  0  0
  -17.6462  -30.6575   24.0582 C   0  0  0  0  0  0
  -25.9033  -34.9472   23.5123 C   0  0  0  0  0  0
  -16.5352  -29.9088   23.6330 C   0  0  0  0  0  0
  -16.7268  -28.6513   23.0332 C   0  0  0  0  0  0
  -26.4481  -31.6598   25.0729 C   0  0  0  0  0  0
  -25.3757  -31.3715   26.1484 C   0  0  0  0  0  0
  -27.0320  -30.3036   24.6125 C   0  0  0  0  0  0
  -27.6054  -32.4326   25.7491 C   0  0  0  0  0  0
  -27.5579  -37.1813   24.8466 C   0  0  0  0  0  0
  -21.4119  -29.3063   22.3716 N   0  0  0  0  0  0
  -26.4293  -37.3790   23.9409 N   0  0  0  0  0  0
  -24.6699  -31.0779   22.1025 N   0  0  0  0  0  0
  -23.4167  -28.8193   23.3005 O   0  0  0  0  0  0
  -28.3580  -26.6319   20.1602 O   0  0  0  0  0  0
  -26.5590  -34.8919   22.4681 O   0  0  0  0  0  0
  -23.5349  -32.1445   23.7499 O   0  0  0  0  0  0
  -25.4786  -20.6380   20.0667 C   0  0  0  0  0  0
  -28.2452  -20.1981   19.8165 C   0  0  0  0  0  0
  -26.3053  -21.6563   19.5781 C   0  0  0  0  0  0
  -27.7121  -21.4867   19.5048 C   0  0  0  0  0  0
  -26.0137  -19.3917   20.4152 C   0  0  0  0  0  0
  -27.3972  -19.1351   20.2416 C   0  0  0  0  0  0
  -25.6429  -22.9131   19.0649 C   0  0  0  0  0  0
  -30.5083  -16.7145   23.5579 C   0  0  0  0  0  0
  -29.0500  -16.6285   23.1293 C   0  0  0  0  0  0
  -31.2018  -15.6039   22.7655 C   0  0  0  0  0  0
  -26.5636  -23.6128   18.0789 C   0  0  0  0  0  0
  -28.6125  -22.6676   19.0298 C   0  0  2  0  0  0
  -29.1218  -16.1297   21.6822 C   0  0  1  0  0  0
  -25.0404  -18.3438   20.9298 C   0  0  0  0  0  0
  -29.7743  -22.9111   20.0107 C   0  0  0  0  0  0
  -29.1747  -17.3244   20.6825 C   0  0  0  0  0  0
  -28.5420  -25.0722   18.0920 C   0  0  0  0  0  0
  -29.0929  -26.2158   18.9971 C   0  0  0  0  0  0
  -30.3032  -15.2406   21.6668 N   0  0  0  0  0  0
  -27.8147  -17.8096   20.4686 N   0  0  0  0  0  0
  -27.8342  -23.9377   18.7765 N   0  3  1  0  0  0
  -31.4690  -12.4352   19.1028 H   0  0  0  0  0  0
  -30.3422  -11.3026   19.7810 H   0  0  0  0  0  0
  -29.7402  -11.8270   17.4033 H   0  0  0  0  0  0
  -29.6533  -13.5292   17.7799 H   0  0  0  0  0  0
  -27.8336  -11.3141   18.7963 H   0  0  0  0  0  0
  -27.3625  -12.6550   17.7853 H   0  0  0  0  0  0
  -27.7202  -14.2460   19.5982 H   0  0  0  0  0  0
  -28.6939  -11.8838   21.2753 H   0  0  0  0  0  0
  -28.4620  -13.4635   21.9137 H   0  0  0  0  0  0
  -25.2757   -9.5655   22.4762 H   0  0  0  0  0  0
  -23.9976   -7.4622   22.7490 H   0  0  0  0  0  0
  -21.0811   -8.8770   19.8972 H   0  0  0  0  0  0
  -22.3692  -10.9661   19.6167 H   0  0  0  0  0  0
  -21.2007   -7.6147   23.9720 H   0  0  0  0  0  0
  -21.1480   -6.0524   25.9083 H   0  0  0  0  0  0
  -22.0596   -2.7606   23.2846 H   0  0  0  0  0  0
  -22.4053  -11.9924   22.4776 H   0  0  0  0  0  0
  -21.1133  -13.1372   22.2561 H   0  0  0  0  0  0
  -24.6068  -15.7499   20.3371 H   0  0  0  0  0  0
  -26.1833  -15.5080   19.7813 H   0  0  0  0  0  0
  -26.7118  -32.5531   23.1166 H   0  0  0  0  0  0
  -25.0088  -33.9789   25.0494 H   0  0  0  0  0  0
  -22.6928  -31.3112   21.4151 H   0  0  0  0  0  0
  -23.3740  -35.9652   23.3313 H   0  0  0  0  0  0
  -24.3578  -36.8909   22.2047 H   0  0  0  0  0  0
  -23.7252  -37.6524   23.6638 H   0  0  0  0  0  0
  -26.0558  -31.6022   20.6084 H   0  0  0  0  0  0
  -26.8213  -30.8756   21.9937 H   0  0  0  0  0  0
  -28.0992  -29.0812   21.1842 H   0  0  0  0  0  0
  -26.0225  -25.9798   19.0517 H   0  0  0  0  0  0
  -23.9734  -27.3046   19.0400 H   0  0  0  0  0  0
  -23.7175  -30.6106   19.4081 H   0  0  0  0  0  0
  -22.7378  -29.2513   19.8668 H   0  0  0  0  0  0
  -25.1286  -36.1965   25.0827 H   0  0  0  0  0  0
  -20.9960  -28.3229   24.1421 H   0  0  0  0  0  0
  -20.5640  -26.2273   23.3573 H   0  0  0  0  0  0
  -21.6633  -26.7437   22.1194 H   0  0  0  0  0  0
  -19.6911  -25.6321   21.1201 H   0  0  0  0  0  0
  -19.6689  -27.3225   20.6719 H   0  0  0  0  0  0
  -17.4195  -26.6698   21.3994 H   0  0  0  0  0  0
  -18.0314  -26.0067   22.8971 H   0  0  0  0  0  0
  -19.7937  -30.7233   24.2309 H   0  0  0  0  0  0
  -17.5017  -31.6249   24.5195 H   0  0  0  0  0  0
  -15.5354  -30.2995   23.7644 H   0  0  0  0  0  0
  -15.8667  -28.0857   22.7016 H   0  0  0  0  0  0
  -24.5916  -30.7074   25.7828 H   0  0  0  0  0  0
  -24.8964  -32.2878   26.4941 H   0  0  0  0  0  0
  -25.8113  -30.8875   27.0235 H   0  0  0  0  0  0
  -26.2879  -29.6800   24.1152 H   0  0  0  0  0  0
  -27.4055  -29.7264   25.4595 H   0  0  0  0  0  0
  -27.8729  -30.4345   23.9310 H   0  0  0  0  0  0
  -27.2663  -33.3611   26.2103 H   0  0  0  0  0  0
  -28.3845  -32.6922   25.0309 H   0  0  0  0  0  0
  -28.0745  -31.8433   26.5383 H   0  0  0  0  0  0
  -28.2607  -38.0102   24.7498 H   0  0  0  0  0  0
  -28.1067  -36.2631   24.6308 H   0  0  0  0  0  0
  -27.2295  -37.1482   25.8871 H   0  0  0  0  0  0
  -20.9272  -29.8800   21.6958 H   0  0  0  0  0  0
  -26.0177  -38.2867   24.1404 H   0  0  0  0  0  0
  -24.4120  -20.8046   20.1391 H   0  0  0  0  0  0
  -29.3035  -20.0184   19.6931 H   0  0  0  0  0  0
  -25.3920  -23.5645   19.9025 H   0  0  0  0  0  0
  -24.7054  -22.6591   18.5684 H   0  0  0  0  0  0
  -30.6370  -16.6090   24.6363 H   0  0  0  0  0  0
  -30.9229  -17.6816   23.2703 H   0  0  0  0  0  0
  -28.5203  -17.5761   23.2379 H   0  0  0  0  0  0
  -28.5301  -15.8918   23.7443 H   0  0  0  0  0  0
  -31.3539  -14.7249   23.3934 H   0  0  0  0  0  0
  -32.1803  -15.9303   22.4066 H   0  0  0  0  0  0
  -26.0450  -24.4764   17.6691 H   0  0  0  0  0  0
  -26.7666  -22.9764   17.2149 H   0  0  0  0  0  0
  -29.0374  -22.3495   18.0765 H   0  0  0  0  0  0
  -28.2259  -15.5496   21.4705 H   0  0  0  0  0  0
  -24.1874  -18.8183   21.4148 H   0  0  0  0  0  0
  -24.6605  -17.7516   20.0985 H   0  0  0  0  0  0
  -25.4910  -17.6825   21.6693 H   0  0  0  0  0  0
  -29.4125  -23.2360   20.9859 H   0  0  0  0  0  0
  -30.4642  -23.6650   19.6365 H   0  0  0  0  0  0
  -30.3656  -22.0078   20.1628 H   0  0  0  0  0  0
  -29.5747  -17.0027   19.7198 H   0  0  0  0  0  0
  -29.8265  -18.1172   21.0514 H   0  0  0  0  0  0
  -29.3470  -24.6789   17.4700 H   0  0  0  0  0  0
  -27.8736  -25.5580   17.3816 H   0  0  0  0  0  0
  -29.3004  -27.0936   18.3837 H   0  0  0  0  0  0
  -30.0686  -25.9077   19.3716 H   0  0  0  0  0  0
  -27.0840  -17.1895   20.8020 H   0  0  0  0  0  0
  -27.5648  -24.2842   19.6862 H   0  0  0  0  0  0
  1 25  1  0  0  0
  1 30  2  0  0  0
  1 89  1  0  0  0
  2  3  1  0  0  0
  2 25  1  0  0  0
  2 92  1  0  0  0
  2 93  1  0  0  0
  3  4  1  0  0  0
  3 94  1  0  0  0
  3 95  1  0  0  0
  4  5  1  0  0  0
  4 96  1  0  0  0
  4 97  1  0  0  0
  5  6  1  0  0  0
  5 26  1  0  0  0
  5 98  1  0  0  0
  6 25  1  0  0  0
  6 99  1  0  0  0
  6100  1  0  0  0
  7  8  2  0  0  0
  7 26  1  0  0  0
  7 29  1  0  0  0
  8  9  1  0  0  0
  8 22  1  0  0  0
  9 10  1  0  0  0
  9 27  2  0  0  0
 10 11  2  0  0  0
 10 15  1  0  0  0
 11 12  1  0  0  0
 11101  1  0  0  0
 12 13  2  0  0  0
 12102  1  0  0  0
 13 14  1  0  0  0
 13 31  1  0  0  0
 14 15  2  0  0  0
 14103  1  0  0  0
 15104  1  0  0  0
 16 17  2  0  0  0
 16 21  1  0  0  0
 16 31  1  0  0  0
 17 18  1  0  0  0
 17105  1  0  0  0
 18 19  2  0  0  0
 18106  1  0  0  0
 19 20  1  0  0  0
 19 24  1  0  0  0
 20 21  2  0  0  0
 20107  1  0  0  0
 21 23  1  0  0  0
 22 28  1  0  0  0
 22 32  2  0  0  0
 26 27  1  0  0  0
 28108  1  0  0  0
 28109  1  0  0  0
 29110  1  0  0  0
 29111  1  0  0  0
 33 34  1  0  0  0
 33 66  1  0  0  0
 33 70  2  0  0  0
 34 36  1  0  0  0
 34 59  1  0  0  0
 34112  1  0  0  0
 35 44  2  0  0  0
 35 45  1  0  0  0
 35 68  1  0  0  0
 36 56  1  0  0  0
 36113  1  0  0  0
 37 39  1  0  0  0
 37 47  1  0  0  0
 37 66  1  0  0  0
 37114  1  0  0  0
 38 43  2  0  0  0
 38 46  1  0  0  0
 38 47  1  0  0  0
 39 64  1  0  0  0
 39 67  2  0  0  0
 40 52  1  0  0  0
 40 53  2  0  0  0
 40 58  1  0  0  0
 41115  1  0  0  0
 41116  1  0  0  0
 41117  1  0  0  0
 41 48  1  0  0  0
 42 43  1  0  0  0
 42 66  1  0  0  0
 42118  1  0  0  0
 42119  1  0  0  0
 43 44  1  0  0  0
 44120  1  0  0  0
 45 46  2  0  0  0
 45121  1  0  0  0
 46122  1  0  0  0
 47123  1  0  0  0
 47124  1  0  0  0
 48 56  1  0  0  0
 48 65  1  0  0  0
 48125  1  0  0  0
 49 50  1  0  0  0
 49 53  1  0  0  0
 49 64  1  0  0  0
 49126  1  0  0  0
 50 51  1  0  0  0
 50127  1  0  0  0
 50128  1  0  0  0
 51 52  1  0  0  0
 51129  1  0  0  0
 51130  1  0  0  0
 52131  1  0  0  0
 52132  1  0  0  0
 53 54  1  0  0  0
 54 55  2  0  0  0
 54133  1  0  0  0
 55 57  1  0  0  0
 55134  1  0  0  0
 56 69  2  0  0  0
 57 58  2  0  0  0
 57135  1  0  0  0
 58136  1  0  0  0
 59 60  1  0  0  0
 59 61  1  0  0  0
 59 62  1  0  0  0
 60137  1  0  0  0
 60138  1  0  0  0
 60139  1  0  0  0
 61140  1  0  0  0
 61141  1  0  0  0
 61142  1  0  0  0
 62143  1  0  0  0
 62144  1  0  0  0
 62145  1  0  0  0
 63 65  1  0  0  0
 63146  1  0  0  0
 63147  1  0  0  0
 63148  1  0  0  0
 64149  1  0  0  0
 65150  1  0  0  0
 68 88  1  0  0  0
 71 73  2  0  0  0
 71 75  1  0  0  0
 71151  1  0  0  0
 72 74  2  0  0  0
 72 76  1  0  0  0
 72152  1  0  0  0
 73 74  1  0  0  0
 73 77  1  0  0  0
 74 82  1  0  0  0
 75 76  2  0  0  0
 75 84  1  0  0  0
 76 90  1  0  0  0
 77 81  1  0  0  0
 77153  1  0  0  0
 77154  1  0  0  0
 78 79  1  0  0  0
 78 80  1  0  0  0
 78155  1  0  0  0
 78156  1  0  0  0
 79 83  1  0  0  0
 79157  1  0  0  0
 79158  1  0  0  0
 80 89  1  0  0  0
 80159  1  0  0  0
 80160  1  0  0  0
 81 91  1  0  0  0
 81161  1  0  0  0
 81162  1  0  0  0
 82 85  1  0  0  0
 82 91  1  0  0  0
 82163  1  0  0  0
 83 86  1  0  0  0
 83 89  1  0  0  0
 83164  1  0  0  0
 84165  1  0  0  0
 84166  1  0  0  0
 84167  1  0  0  0
 85168  1  0  0  0
 85169  1  0  0  0
 85170  1  0  0  0
 86 90  1  0  0  0
 86171  1  0  0  0
 86172  1  0  0  0
 87 88  1  0  0  0
 87173  1  0  0  0
 87174  1  0  0  0
 87 91  1  0  0  0
 88175  1  0  0  0
 88176  1  0  0  0
 90177  1  0  0  0
 91178  1  0  0  0
M  CHG  1  91   1
M  ISO  4   1 100  68 101  88 101  89 100
M  END
> <chiral flag>
0

> <version>
0

> <s_m_source_file>
/data/baiqing/PycharmProjects/Reinvent-master-3.2/result/LINK_invent/BTK/process_docking_weight1_custom_sum_contain_oxygen_bond_distance_aromatic_linkinvent_7_9_3/rearranged_h_0161.sdf

> <i_m_source_file_index>
22

> <r_mmod_Potential_Energy-OPLS-2005>
106.545303344727

> <r_mmod_Stretch_Energy-OPLS-2005>
48.3659858703613

> <r_mmod_Bend_Energy-OPLS-2005>
169.203643798828

> <r_mmod_Torsional_Energy-OPLS-2005>
406.1337890625

> <r_mmod_Improper_Torsional_Energy-OPLS-2005>
10.0046062469482

> <r_mmod_Van_der_Waal_Energy-OPLS-2005>
148.645767211914

> <r_mmod_Electrostatic_Energy-OPLS-2005>
-296.681518554688

> <r_mmod_Solvation_Energy-OPLS-2005>
-392.488372802734

> <b_mmod_Minimization_Converged-OPLS-2005>
0

> <r_mmod_RMS_Derivative-OPLS-2005>
1.60033571720123

$$$$
22
                    3D
 Structure written by MMmdl.
173183  0  0  1  0            999 V2000
  -30.7259  -14.4716   20.6545 C   0  0  0  0  0  0
  -30.4234  -12.3406   19.4160 C   0  0  0  0  0  0
  -29.4876  -12.5161   18.2024 C   0  0  0  0  0  0
  -28.0132  -12.3400   18.6146 C   0  0  0  0  0  0
  -27.6563  -13.1793   19.8653 C   0  0  2  0  0  0
  -28.7004  -12.9476   20.9873 C   0  0  0  0  0  0
  -25.2588  -13.8093   20.5645 C   0  0  0  0  0  0
  -24.1825  -13.0410   20.9184 C   0  0  0  0  0  0
  -24.6352  -11.6867   20.8753 C   0  0  0  0  0  0
  -23.9019  -10.4275   21.0433 C   0  0  0  0  0  0
  -24.3583   -9.4197   21.9210 C   0  0  0  0  0  0
  -23.6270   -8.2228   22.0760 C   0  0  0  0  0  0
  -22.4260   -8.0266   21.3541 C   0  0  0  0  0  0
  -21.9890   -9.0233   20.4643 C   0  0  0  0  0  0
  -22.7204  -10.2120   20.3068 C   0  0  0  0  0  0
  -21.6841   -6.0729   22.5279 C   0  0  0  0  0  0
  -21.4000   -6.5634   23.8211 C   0  0  0  0  0  0
  -21.3659   -5.6791   24.9176 C   0  0  0  0  0  0
  -21.6050   -4.3055   24.7225 C   0  0  0  0  0  0
  -21.8821   -3.8146   23.4347 C   0  0  0  0  0  0
  -21.9186   -4.6961   22.3404 C   0  0  0  0  0  0
  -22.7856  -13.5239   21.1853 C   0  0  0  0  0  0
  -22.1655   -4.2150   21.0981 F   0  0  0  0  0  0
  -21.5643   -3.4540   25.7739 F   0  0  0  0  0  0
  -30.0252  -13.3097   20.4579 N   0  0  0  0  0  0
  -26.2981  -12.9199   20.3305 N   0  0  0  0  0  0
  -25.9259  -11.6392   20.5760 N   0  0  0  0  0  0
  -22.0478  -12.8238   22.0403 N   0  0  0  0  0  0
  -25.4319  -15.1804   20.4021 N   0  0  0  0  0  0
  -31.8021  -14.6632   20.0755 O   0  0  0  0  0  0
  -21.6625   -6.8865   21.4237 O   0  0  0  0  0  0
  -22.3557  -14.5553   20.6707 O   0  0  0  0  0  0
  -24.6134  -31.8688   23.2118 C   0  0  0  0  0  0
  -25.9034  -32.4828   23.8409 C   0  0  1  0  0  0
  -27.2392  -27.4472   20.1028 C   0  0  0  0  0  0
  -25.5898  -33.8624   24.2343 N   0  0  0  0  0  0
  -23.4021  -30.4915   21.5512 C   0  0  2  0  0  0
  -24.8515  -28.9534   20.1228 C   0  0  0  0  0  0
  -22.7408  -29.4665   22.5006 C   0  0  0  0  0  0
  -18.0272  -28.1378   22.8490 C   0  0  0  0  0  0
  -24.1479  -36.7301   23.2639 C   0  0  0  0  0  0
  -25.9284  -30.8358   21.3654 C   0  0  0  0  0  0
  -26.0084  -29.4658   20.7260 C   0  0  0  0  0  0
  -27.2068  -28.7163   20.7233 C   0  0  0  0  0  0
  -26.0725  -26.9466   19.4931 C   0  0  0  0  0  0
  -24.8760  -27.6890   19.5076 C   0  0  0  0  0  0
  -23.6128  -29.8203   20.1675 C   0  0  0  0  0  0
  -25.4099  -36.3108   24.0345 C   0  0  1  0  0  0
  -20.5862  -28.3657   23.1320 C   0  0  2  0  0  0
  -20.6765  -26.9395   22.5416 C   0  0  0  0  0  0
  -19.5745  -26.6382   21.5214 C   0  0  0  0  0  0
  -18.1917  -26.7929   22.1610 C   0  0  0  0  0  0
  -19.1522  -28.8836   23.2905 C   0  0  0  0  0  0
  -18.9452  -30.1444   23.8915 C   0  0  0  0  0  0
  -17.6455  -30.6582   24.0570 C   0  0  0  0  0  0
  -25.9029  -34.9477   23.5139 C   0  0  0  0  0  0
  -16.5344  -29.9086   23.6331 C   0  0  0  0  0  0
  -16.7260  -28.6505   23.0346 C   0  0  0  0  0  0
  -26.4470  -31.6592   25.0722 C   0  0  0  0  0  0
  -25.3737  -31.3666   26.1463 C   0  0  0  0  0  0
  -27.0316  -30.3052   24.6064 C   0  0  0  0  0  0
  -27.6036  -32.4310   25.7500 C   0  0  0  0  0  0
  -27.5579  -37.1801   24.8462 C   0  0  0  0  0  0
  -21.4138  -29.3032   22.3737 N   0  0  0  0  0  0
  -26.4277  -37.3795   23.9426 N   0  0  0  0  0  0
  -24.6659  -31.0798   22.1017 N   0  0  0  0  0  0
  -23.4183  -28.8214   23.3051 O   0  0  0  0  0  0
  -28.3931  -26.7101   19.9977 O   0  0  0  0  0  0
  -26.5587  -34.8926   22.4699 O   0  0  0  0  0  0
  -23.5328  -32.1437   23.7513 O   0  0  0  0  0  0
  -30.5775  -20.4618   21.3883 C   0  0  0  0  0  0
  -29.7543  -19.7407   22.2748 C   0  0  0  0  0  0
  -29.5673  -22.6093   22.0492 C   0  0  0  0  0  0
  -30.5031  -21.8673   21.2698 C   0  0  0  0  0  0
  -28.8121  -20.4657   23.0551 C   0  0  0  0  0  0
  -28.7562  -21.8888   22.9776 C   0  0  0  0  0  0
  -28.9372  -17.4610   21.4441 C   0  0  0  0  0  0
  -31.2975  -17.6106   22.1813 C   0  0  0  0  0  0
  -30.0035  -25.1047   20.8907 C   0  0  0  0  0  0
  -28.0783  -24.8337   21.6422 C   0  0  0  0  0  0
  -28.9603  -15.9450   21.7236 C   0  0  0  0  0  0
  -31.2916  -16.0822   22.4518 C   0  0  0  0  0  0
  -29.8887  -18.2060   22.3868 C   0  0  0  0  0  0
  -29.4327  -24.1549   21.9700 C   0  0  1  0  0  0
  -28.8558  -26.0795   21.1893 C   0  0  2  0  0  0
  -31.4874  -22.5160   20.3099 C   0  0  0  0  0  0
  -27.8565  -19.7215   23.9924 C   0  0  0  0  0  0
  -27.8270  -22.6432   23.9323 C   0  0  0  0  0  0
  -30.3109  -15.3484   21.6197 N   0  0  0  0  0  0
  -31.4632  -12.4551   19.1049 H   0  0  0  0  0  0
  -30.3525  -11.3242   19.8055 H   0  0  0  0  0  0
  -29.7452  -11.7986   17.4220 H   0  0  0  0  0  0
  -29.6309  -13.5060   17.7670 H   0  0  0  0  0  0
  -27.8431  -11.2817   18.8162 H   0  0  0  0  0  0
  -27.3550  -12.6003   17.7846 H   0  0  0  0  0  0
  -27.6911  -14.2111   19.5248 H   0  0  0  0  0  0
  -28.7023  -11.8943   21.2720 H   0  0  0  0  0  0
  -28.4429  -13.4658   21.9086 H   0  0  0  0  0  0
  -25.2726   -9.5683   22.4788 H   0  0  0  0  0  0
  -23.9986   -7.4618   22.7477 H   0  0  0  0  0  0
  -21.0830   -8.8745   19.8936 H   0  0  0  0  0  0
  -22.3673  -10.9660   19.6177 H   0  0  0  0  0  0
  -21.1977   -7.6142   23.9713 H   0  0  0  0  0  0
  -21.1484   -6.0522   25.9077 H   0  0  0  0  0  0
  -22.0602   -2.7609   23.2847 H   0  0  0  0  0  0
  -22.4060  -11.9876   22.4773 H   0  0  0  0  0  0
  -21.1100  -13.1278   22.2607 H   0  0  0  0  0  0
  -24.6644  -15.8347   20.5096 H   0  0  0  0  0  0
  -26.2816  -15.6182   20.0708 H   0  0  0  0  0  0
  -26.7112  -32.5553   23.1183 H   0  0  0  0  0  0
  -25.0099  -33.9791   25.0522 H   0  0  0  0  0  0
  -22.6909  -31.3077   21.4097 H   0  0  0  0  0  0
  -23.3757  -35.9613   23.3276 H   0  0  0  0  0  0
  -24.3584  -36.8938   22.2058 H   0  0  0  0  0  0
  -23.7198  -37.6485   23.6666 H   0  0  0  0  0  0
  -26.0340  -31.5960   20.5900 H   0  0  0  0  0  0
  -26.8192  -30.8985   21.9786 H   0  0  0  0  0  0
  -28.1050  -29.1157   21.1733 H   0  0  0  0  0  0
  -26.0950  -25.9836   19.0024 H   0  0  0  0  0  0
  -23.9892  -27.2900   19.0345 H   0  0  0  0  0  0
  -23.7218  -30.5933   19.4056 H   0  0  0  0  0  0
  -22.7378  -29.2384   19.8720 H   0  0  0  0  0  0
  -25.1271  -36.1971   25.0834 H   0  0  0  0  0  0
  -20.9949  -28.3212   24.1441 H   0  0  0  0  0  0
  -20.5665  -26.2264   23.3603 H   0  0  0  0  0  0
  -21.6636  -26.7442   22.1203 H   0  0  0  0  0  0
  -19.6905  -25.6293   21.1240 H   0  0  0  0  0  0
  -19.6697  -27.3206   20.6752 H   0  0  0  0  0  0
  -17.4197  -26.6700   21.3999 H   0  0  0  0  0  0
  -18.0300  -26.0059   22.8989 H   0  0  0  0  0  0
  -19.7927  -30.7263   24.2289 H   0  0  0  0  0  0
  -17.5006  -31.6268   24.5157 H   0  0  0  0  0  0
  -15.5346  -30.2997   23.7646 H   0  0  0  0  0  0
  -15.8656  -28.0838   22.7046 H   0  0  0  0  0  0
  -24.5940  -30.6983   25.7792 H   0  0  0  0  0  0
  -24.8892  -32.2802   26.4916 H   0  0  0  0  0  0
  -25.8096  -30.8840   27.0220 H   0  0  0  0  0  0
  -26.2861  -29.6806   24.1126 H   0  0  0  0  0  0
  -27.4134  -29.7282   25.4497 H   0  0  0  0  0  0
  -27.8667  -30.4408   23.9185 H   0  0  0  0  0  0
  -27.2655  -33.3611   26.2083 H   0  0  0  0  0  0
  -28.3856  -32.6864   25.0336 H   0  0  0  0  0  0
  -28.0691  -31.8425   26.5416 H   0  0  0  0  0  0
  -28.2564  -38.0132   24.7560 H   0  0  0  0  0  0
  -28.1108  -36.2665   24.6220 H   0  0  0  0  0  0
  -27.2308  -37.1363   25.8866 H   0  0  0  0  0  0
  -20.9301  -29.8757   21.6961 H   0  0  0  0  0  0
  -26.0165  -38.2864   24.1461 H   0  0  0  0  0  0
  -31.2934  -19.9280   20.7813 H   0  0  0  0  0  0
  -27.9174  -17.8287   21.5625 H   0  0  0  0  0  0
  -29.2084  -17.6583   20.4059 H   0  0  0  0  0  0
  -31.6536  -17.7893   21.1664 H   0  0  0  0  0  0
  -32.0073  -18.0963   22.8524 H   0  0  0  0  0  0
  -29.9250  -24.7180   19.8744 H   0  0  0  0  0  0
  -31.0004  -25.4959   21.0951 H   0  0  0  0  0  0
  -27.4143  -25.0035   22.4892 H   0  0  0  0  0  0
  -27.5508  -24.3427   20.8223 H   0  0  0  0  0  0
  -28.2575  -15.5102   21.0289 H   0  0  0  0  0  0
  -28.5661  -15.7442   22.7210 H   0  0  0  0  0  0
  -31.0438  -15.8998   23.4983 H   0  0  0  0  0  0
  -32.3017  -15.6877   22.3252 H   0  0  0  0  0  0
  -29.6328  -17.9434   23.4129 H   0  0  0  0  0  0
  -29.8004  -24.5267   22.9286 H   0  0  0  0  0  0
  -29.0870  -26.7669   22.0058 H   0  0  0  0  0  0
  -32.2701  -21.8178   20.0118 H   0  0  0  0  0  0
  -31.9926  -23.3631   20.7715 H   0  0  0  0  0  0
  -30.9867  -22.8382   19.3979 H   0  0  0  0  0  0
  -27.6039  -18.7241   23.6393 H   0  0  0  0  0  0
  -26.8968  -20.2278   24.0865 H   0  0  0  0  0  0
  -28.2955  -19.6281   24.9861 H   0  0  0  0  0  0
  -28.1976  -23.6320   24.1925 H   0  0  0  0  0  0
  -27.7273  -22.1372   24.8916 H   0  0  0  0  0  0
  -26.8335  -22.7485   23.4961 H   0  0  0  0  0  0
  1 25  1  0  0  0
  1 30  2  0  0  0
  1 89  1  0  0  0
  2  3  1  0  0  0
  2 25  1  0  0  0
  2 90  1  0  0  0
  2 91  1  0  0  0
  3  4  1  0  0  0
  3 92  1  0  0  0
  3 93  1  0  0  0
  4  5  1  0  0  0
  4 94  1  0  0  0
  4 95  1  0  0  0
  5  6  1  0  0  0
  5 26  1  0  0  0
  5 96  1  0  0  0
  6 25  1  0  0  0
  6 97  1  0  0  0
  6 98  1  0  0  0
  7  8  2  0  0  0
  7 26  1  0  0  0
  7 29  1  0  0  0
  8  9  1  0  0  0
  8 22  1  0  0  0
  9 10  1  0  0  0
  9 27  2  0  0  0
 10 11  2  0  0  0
 10 15  1  0  0  0
 11 12  1  0  0  0
 11 99  1  0  0  0
 12 13  2  0  0  0
 12100  1  0  0  0
 13 14  1  0  0  0
 13 31  1  0  0  0
 14 15  2  0  0  0
 14101  1  0  0  0
 15102  1  0  0  0
 16 17  2  0  0  0
 16 21  1  0  0  0
 16 31  1  0  0  0
 17 18  1  0  0  0
 17103  1  0  0  0
 18 19  2  0  0  0
 18104  1  0  0  0
 19 20  1  0  0  0
 19 24  1  0  0  0
 20 21  2  0  0  0
 20105  1  0  0  0
 21 23  1  0  0  0
 22 28  1  0  0  0
 22 32  2  0  0  0
 26 27  1  0  0  0
 28106  1  0  0  0
 28107  1  0  0  0
 29108  1  0  0  0
 29109  1  0  0  0
 33 34  1  0  0  0
 33 66  1  0  0  0
 33 70  2  0  0  0
 34 36  1  0  0  0
 34 59  1  0  0  0
 34110  1  0  0  0
 35 44  2  0  0  0
 35 45  1  0  0  0
 35 68  1  0  0  0
 36 56  1  0  0  0
 36111  1  0  0  0
 37 39  1  0  0  0
 37 47  1  0  0  0
 37 66  1  0  0  0
 37112  1  0  0  0
 38 43  2  0  0  0
 38 46  1  0  0  0
 38 47  1  0  0  0
 39 64  1  0  0  0
 39 67  2  0  0  0
 40 52  1  0  0  0
 40 53  2  0  0  0
 40 58  1  0  0  0
 41113  1  0  0  0
 41114  1  0  0  0
 41115  1  0  0  0
 41 48  1  0  0  0
 42 43  1  0  0  0
 42 66  1  0  0  0
 42116  1  0  0  0
 42117  1  0  0  0
 43 44  1  0  0  0
 44118  1  0  0  0
 45 46  2  0  0  0
 45119  1  0  0  0
 46120  1  0  0  0
 47121  1  0  0  0
 47122  1  0  0  0
 48 56  1  0  0  0
 48 65  1  0  0  0
 48123  1  0  0  0
 49 50  1  0  0  0
 49 53  1  0  0  0
 49 64  1  0  0  0
 49124  1  0  0  0
 50 51  1  0  0  0
 50125  1  0  0  0
 50126  1  0  0  0
 51 52  1  0  0  0
 51127  1  0  0  0
 51128  1  0  0  0
 52129  1  0  0  0
 52130  1  0  0  0
 53 54  1  0  0  0
 54 55  2  0  0  0
 54131  1  0  0  0
 55 57  1  0  0  0
 55132  1  0  0  0
 56 69  2  0  0  0
 57 58  2  0  0  0
 57133  1  0  0  0
 58134  1  0  0  0
 59 60  1  0  0  0
 59 61  1  0  0  0
 59 62  1  0  0  0
 60135  1  0  0  0
 60136  1  0  0  0
 60137  1  0  0  0
 61138  1  0  0  0
 61139  1  0  0  0
 61140  1  0  0  0
 62141  1  0  0  0
 62142  1  0  0  0
 62143  1  0  0  0
 63 65  1  0  0  0
 63144  1  0  0  0
 63145  1  0  0  0
 63146  1  0  0  0
 64147  1  0  0  0
 65148  1  0  0  0
 68 85  1  0  0  0
 71 72  2  0  0  0
 71 74  1  0  0  0
 71149  1  0  0  0
 72 75  1  0  0  0
 72 83  1  0  0  0
 73 74  2  0  0  0
 73 76  1  0  0  0
 73 84  1  0  0  0
 74 86  1  0  0  0
 75 76  2  0  0  0
 75 87  1  0  0  0
 76 88  1  0  0  0
 77 81  1  0  0  0
 77 83  1  0  0  0
 77150  1  0  0  0
 77151  1  0  0  0
 78 82  1  0  0  0
 78 83  1  0  0  0
 78152  1  0  0  0
 78153  1  0  0  0
 79 84  1  0  0  0
 79 85  1  0  0  0
 79154  1  0  0  0
 79155  1  0  0  0
 80 84  1  0  0  0
 80 85  1  0  0  0
 80156  1  0  0  0
 80157  1  0  0  0
 81 89  1  0  0  0
 81158  1  0  0  0
 81159  1  0  0  0
 82 89  1  0  0  0
 82160  1  0  0  0
 82161  1  0  0  0
 83162  1  0  0  0
 84163  1  0  0  0
 85164  1  0  0  0
 86165  1  0  0  0
 86166  1  0  0  0
 86167  1  0  0  0
 87168  1  0  0  0
 87169  1  0  0  0
 87170  1  0  0  0
 88171  1  0  0  0
 88172  1  0  0  0
 88173  1  0  0  0
M  ISO  4   1 100  68 101  85 101  89 100
M  END
> <chiral flag>
0

> <version>
0

> <s_m_source_file>
/data/baiqing/PycharmProjects/Reinvent-master-3.2/result/LINK_invent/BTK/process_docking_weight1_custom_sum_contain_oxygen_bond_distance_aromatic_linkinvent_7_9_3/rearranged_h_0161.sdf

> <i_m_source_file_index>
23

> <r_mmod_Potential_Energy-OPLS-2005>
192.384155273438

> <r_mmod_Stretch_Energy-OPLS-2005>
48.9518089294434

> <r_mmod_Bend_Energy-OPLS-2005>
141.597366333008

> <r_mmod_Torsional_Energy-OPLS-2005>
335.286804199219

> <r_mmod_Improper_Torsional_Energy-OPLS-2005>
4.29778623580933

> <r_mmod_Van_der_Waal_Energy-OPLS-2005>
180.199844360352

> <r_mmod_Electrostatic_Energy-OPLS-2005>
-334.311981201172

> <r_mmod_Solvation_Energy-OPLS-2005>
-194.215942382812

> <b_mmod_Minimization_Converged-OPLS-2005>
0

> <r_mmod_RMS_Derivative-OPLS-2005>
0.917960941791534

$$$$
23
                    3D
 Structure written by MMmdl.
175184  0  0  1  0            999 V2000
  -30.6560  -14.6130   20.5137 C   0  0  0  0  0  0
  -30.4207  -12.3885   19.4472 C   0  0  0  0  0  0
  -29.4872  -12.4680   18.2224 C   0  0  0  0  0  0
  -28.0207  -12.2868   18.6494 C   0  0  0  0  0  0
  -27.6391  -13.1913   19.8473 C   0  0  2  0  0  0
  -28.6849  -13.0646   20.9802 C   0  0  0  0  0  0
  -25.2423  -13.8120   20.5552 C   0  0  0  0  0  0
  -24.1728  -13.0377   20.9230 C   0  0  0  0  0  0
  -24.6312  -11.6882   20.8786 C   0  0  0  0  0  0
  -23.8993  -10.4272   21.0440 C   0  0  0  0  0  0
  -24.3579   -9.4187   21.9200 C   0  0  0  0  0  0
  -23.6275   -8.2203   22.0742 C   0  0  0  0  0  0
  -22.4252   -8.0242   21.3516 C   0  0  0  0  0  0
  -21.9869   -9.0218   20.4612 C   0  0  0  0  0  0
  -22.7186  -10.2114   20.3055 C   0  0  0  0  0  0
  -21.6858   -6.0687   22.5263 C   0  0  0  0  0  0
  -21.4013   -6.5601   23.8200 C   0  0  0  0  0  0
  -21.3664   -5.6770   24.9176 C   0  0  0  0  0  0
  -21.6078   -4.3030   24.7241 C   0  0  0  0  0  0
  -21.8835   -3.8107   23.4365 C   0  0  0  0  0  0
  -21.9198   -4.6912   22.3401 C   0  0  0  0  0  0
  -22.7756  -13.5187   21.1893 C   0  0  0  0  0  0
  -22.1647   -4.2088   21.0972 F   0  0  0  0  0  0
  -21.5673   -3.4522   25.7761 F   0  0  0  0  0  0
  -29.9799  -13.4279   20.4017 N   0  0  0  0  0  0
  -26.2857  -12.9278   20.3223 N   0  0  0  0  0  0
  -25.9203  -11.6460   20.5721 N   0  0  0  0  0  0
  -22.0407  -12.8177   22.0482 N   0  0  0  0  0  0
  -25.3984  -15.1782   20.3679 N   0  0  0  0  0  0
  -31.8578  -14.6375   20.2260 O   0  0  0  0  0  0
  -21.6633   -6.8807   21.4218 O   0  0  0  0  0  0
  -22.3414  -14.5439   20.6671 O   0  0  0  0  0  0
  -24.6052  -31.8752   23.2134 C   0  0  0  0  0  0
  -25.8979  -32.4831   23.8398 C   0  0  1  0  0  0
  -27.2139  -27.4246   20.0912 C   0  0  0  0  0  0
  -25.5886  -33.8628   24.2337 N   0  0  0  0  0  0
  -23.3881  -30.5018   21.5604 C   0  0  2  0  0  0
  -24.8340  -28.9736   20.1195 C   0  0  0  0  0  0
  -22.7337  -29.4670   22.5069 C   0  0  0  0  0  0
  -18.0291  -28.1302   22.8471 C   0  0  0  0  0  0
  -24.1492  -36.7299   23.2656 C   0  0  0  0  0  0
  -25.9217  -30.8339   21.3706 C   0  0  0  0  0  0
  -25.9991  -29.4672   20.7257 C   0  0  0  0  0  0
  -27.1885  -28.6986   20.7175 C   0  0  0  0  0  0
  -26.0245  -26.9598   19.4785 C   0  0  0  0  0  0
  -24.8458  -27.7190   19.4977 C   0  0  0  0  0  0
  -23.5972  -29.8459   20.1732 C   0  0  0  0  0  0
  -25.4112  -36.3104   24.0356 C   0  0  1  0  0  0
  -20.5861  -28.3587   23.1377 C   0  0  2  0  0  0
  -20.6735  -26.9283   22.5481 C   0  0  0  0  0  0
  -19.5739  -26.6208   21.5252 C   0  0  0  0  0  0
  -18.1920  -26.7784   22.1679 C   0  0  0  0  0  0
  -19.1527  -28.8776   23.2911 C   0  0  0  0  0  0
  -18.9464  -30.1384   23.8898 C   0  0  0  0  0  0
  -17.6481  -30.6547   24.0506 C   0  0  0  0  0  0
  -25.9046  -34.9475   23.5147 C   0  0  0  0  0  0
  -16.5387  -29.9046   23.6263 C   0  0  0  0  0  0
  -16.7298  -28.6443   23.0344 C   0  0  0  0  0  0
  -26.4456  -31.6551   25.0652 C   0  0  0  0  0  0
  -25.3729  -31.3641   26.1390 C   0  0  0  0  0  0
  -27.0327  -30.3008   24.5973 C   0  0  0  0  0  0
  -27.6028  -32.4267   25.7408 C   0  0  0  0  0  0
  -27.5580  -37.1804   24.8473 C   0  0  0  0  0  0
  -21.4070  -29.2998   22.3786 N   0  0  0  0  0  0
  -26.4295  -37.3783   23.9414 N   0  0  0  0  0  0
  -24.6546  -31.0890   22.1036 N   0  0  0  0  0  0
  -23.4132  -28.8221   23.3089 O   0  0  0  0  0  0
  -28.3684  -26.6571   20.1397 O   0  0  0  0  0  0
  -26.5636  -34.8912   22.4713 O   0  0  0  0  0  0
  -23.5247  -32.1505   23.7572 O   0  0  0  0  0  0
  -27.7259  -23.5863   20.9028 C   0  0  0  0  0  0
  -29.3145  -23.0930   19.1120 C   0  0  0  0  0  0
  -27.7819  -22.2078   21.2902 C   0  0  0  0  0  0
  -29.4090  -21.7428   19.5733 C   0  0  0  0  0  0
  -28.5376  -24.0610   19.8224 C   0  0  0  0  0  0
  -28.8052  -21.3391   20.7945 C   0  0  0  0  0  0
  -30.8326  -18.1492   20.6746 C   0  0  0  0  0  0
  -28.3714  -17.7526   21.2183 C   0  0  0  0  0  0
  -30.5037  -16.9606   19.7353 C   0  0  0  0  0  0
  -28.7675  -16.2226   21.3052 C   0  0  0  0  0  0
  -29.5968  -18.6659   21.4550 C   0  0  0  0  0  0
  -26.7988  -24.5257   21.6852 C   0  0  0  0  0  0
  -30.0914  -23.5187   17.8549 C   0  0  0  0  0  0
  -26.6636  -21.6329   22.1632 C   0  0  0  0  0  0
  -30.0807  -20.6881   18.7063 C   0  0  0  0  0  0
  -29.1787  -20.4629   23.2198 C   0  0  0  0  0  0
  -28.5202  -25.5220   19.2623 C   0  0  0  0  0  0
  -29.4907  -20.2439   21.7188 C   0  0  2  0  0  0
  -29.9425  -15.8030   20.4763 N   0  0  0  0  0  0
  -31.4584  -12.5077   19.1303 H   0  0  0  0  0  0
  -30.3794  -11.4057   19.9151 H   0  0  0  0  0  0
  -29.7639  -11.7040   17.4925 H   0  0  0  0  0  0
  -29.6036  -13.4331   17.7276 H   0  0  0  0  0  0
  -27.8988  -11.2419   18.9352 H   0  0  0  0  0  0
  -27.3446  -12.4525   17.8076 H   0  0  0  0  0  0
  -27.6530  -14.2061   19.4552 H   0  0  0  0  0  0
  -28.7224  -12.0436   21.3590 H   0  0  0  0  0  0
  -28.4380  -13.6709   21.8481 H   0  0  0  0  0  0
  -25.2710   -9.5698   22.4789 H   0  0  0  0  0  0
  -23.9989   -7.4597   22.7466 H   0  0  0  0  0  0
  -21.0803   -8.8766   19.8897 H   0  0  0  0  0  0
  -22.3639  -10.9676   19.6182 H   0  0  0  0  0  0
  -21.1983   -7.6097   23.9683 H   0  0  0  0  0  0
  -21.1459   -6.0491   25.9077 H   0  0  0  0  0  0
  -22.0600   -2.7562   23.2887 H   0  0  0  0  0  0
  -22.4067  -11.9850   22.4840 H   0  0  0  0  0  0
  -21.1026  -13.1233   22.2690 H   0  0  0  0  0  0
  -24.6185  -15.8236   20.4369 H   0  0  0  0  0  0
  -26.2311  -15.6007   19.9765 H   0  0  0  0  0  0
  -26.7054  -32.5574   23.1182 H   0  0  0  0  0  0
  -25.0039  -33.9838   25.0481 H   0  0  0  0  0  0
  -22.6629  -31.3094   21.4369 H   0  0  0  0  0  0
  -23.3745  -35.9640   23.3310 H   0  0  0  0  0  0
  -24.3616  -36.8906   22.2075 H   0  0  0  0  0  0
  -23.7243  -37.6495   23.6679 H   0  0  0  0  0  0
  -26.0294  -31.5906   20.5927 H   0  0  0  0  0  0
  -26.8069  -30.8994   21.9883 H   0  0  0  0  0  0
  -28.0791  -29.0883   21.1964 H   0  0  0  0  0  0
  -25.9557  -26.0005   18.9936 H   0  0  0  0  0  0
  -23.9556  -27.3226   19.0279 H   0  0  0  0  0  0
  -23.7149  -30.6259   19.4220 H   0  0  0  0  0  0
  -22.7115  -29.2807   19.8698 H   0  0  0  0  0  0
  -25.1293  -36.1987   25.0856 H   0  0  0  0  0  0
  -20.9911  -28.3193   24.1516 H   0  0  0  0  0  0
  -20.5575  -26.2190   23.3704 H   0  0  0  0  0  0
  -21.6603  -26.7237   22.1342 H   0  0  0  0  0  0
  -19.6927  -25.6107   21.1318 H   0  0  0  0  0  0
  -19.6587  -27.3024   20.6784 H   0  0  0  0  0  0
  -17.4149  -26.6426   21.4159 H   0  0  0  0  0  0
  -18.0357  -25.9974   22.9138 H   0  0  0  0  0  0
  -19.7958  -30.7130   24.2372 H   0  0  0  0  0  0
  -17.5057  -31.6213   24.5137 H   0  0  0  0  0  0
  -15.5383  -30.2903   23.7632 H   0  0  0  0  0  0
  -15.8720  -28.0670   22.7157 H   0  0  0  0  0  0
  -24.5908  -30.7006   25.7684 H   0  0  0  0  0  0
  -24.8921  -32.2810   26.4798 H   0  0  0  0  0  0
  -25.8070  -30.8790   27.0142 H   0  0  0  0  0  0
  -26.2886  -29.6711   24.1069 H   0  0  0  0  0  0
  -27.4224  -29.7262   25.4391 H   0  0  0  0  0  0
  -27.8641  -30.4354   23.9044 H   0  0  0  0  0  0
  -27.2644  -33.3583   26.1951 H   0  0  0  0  0  0
  -28.3830  -32.6786   25.0213 H   0  0  0  0  0  0
  -28.0673  -31.8389   26.5330 H   0  0  0  0  0  0
  -28.2602  -38.0093   24.7504 H   0  0  0  0  0  0
  -28.1079  -36.2631   24.6326 H   0  0  0  0  0  0
  -27.2321  -37.1460   25.8882 H   0  0  0  0  0  0
  -20.9191  -29.8824   21.7141 H   0  0  0  0  0  0
  -26.0179  -38.2868   24.1374 H   0  0  0  0  0  0
  -31.3478  -18.9382   20.1334 H   0  0  0  0  0  0
  -31.5793  -17.7963   21.3849 H   0  0  0  0  0  0
  -27.9059  -17.9738   20.2558 H   0  0  0  0  0  0
  -27.5977  -17.9637   21.9591 H   0  0  0  0  0  0
  -29.7807  -17.2532   18.9706 H   0  0  0  0  0  0
  -31.4025  -16.7154   19.1689 H   0  0  0  0  0  0
  -27.8888  -15.6601   21.0210 H   0  0  0  0  0  0
  -28.9648  -15.9628   22.3486 H   0  0  0  0  0  0
  -29.8761  -18.3051   22.4461 H   0  0  0  0  0  0
  -27.2305  -25.5080   21.8347 H   0  0  0  0  0  0
  -26.6175  -24.1787   22.7022 H   0  0  0  0  0  0
  -25.8340  -24.6404   21.1924 H   0  0  0  0  0  0
  -30.5440  -22.7109   17.2890 H   0  0  0  0  0  0
  -30.9181  -24.1728   18.1329 H   0  0  0  0  0  0
  -29.4482  -24.0482   17.1472 H   0  0  0  0  0  0
  -25.6838  -21.9555   21.8032 H   0  0  0  0  0  0
  -26.7433  -21.9139   23.2124 H   0  0  0  0  0  0
  -26.6453  -20.5471   22.0878 H   0  0  0  0  0  0
  -31.1670  -20.7250   18.7988 H   0  0  0  0  0  0
  -29.8121  -20.7800   17.6541 H   0  0  0  0  0  0
  -29.6952  -19.6981   18.9445 H   0  0  0  0  0  0
  -28.2007  -20.0678   23.4855 H   0  0  0  0  0  0
  -29.2241  -21.5161   23.4981 H   0  0  0  0  0  0
  -29.8915  -19.9496   23.8628 H   0  0  0  0  0  0
  -27.8810  -25.5505   18.3801 H   0  0  0  0  0  0
  -29.5109  -25.7426   18.8722 H   0  0  0  0  0  0
  -30.5321  -20.5652   21.6491 H   0  0  0  0  0  0
  1 25  1  0  0  0
  1 30  2  0  0  0
  1 89  1  0  0  0
  2  3  1  0  0  0
  2 25  1  0  0  0
  2 90  1  0  0  0
  2 91  1  0  0  0
  3  4  1  0  0  0
  3 92  1  0  0  0
  3 93  1  0  0  0
  4  5  1  0  0  0
  4 94  1  0  0  0
  4 95  1  0  0  0
  5  6  1  0  0  0
  5 26  1  0  0  0
  5 96  1  0  0  0
  6 25  1  0  0  0
  6 97  1  0  0  0
  6 98  1  0  0  0
  7  8  2  0  0  0
  7 26  1  0  0  0
  7 29  1  0  0  0
  8  9  1  0  0  0
  8 22  1  0  0  0
  9 10  1  0  0  0
  9 27  2  0  0  0
 10 11  2  0  0  0
 10 15  1  0  0  0
 11 12  1  0  0  0
 11 99  1  0  0  0
 12 13  2  0  0  0
 12100  1  0  0  0
 13 14  1  0  0  0
 13 31  1  0  0  0
 14 15  2  0  0  0
 14101  1  0  0  0
 15102  1  0  0  0
 16 17  2  0  0  0
 16 21  1  0  0  0
 16 31  1  0  0  0
 17 18  1  0  0  0
 17103  1  0  0  0
 18 19  2  0  0  0
 18104  1  0  0  0
 19 20  1  0  0  0
 19 24  1  0  0  0
 20 21  2  0  0  0
 20105  1  0  0  0
 21 23  1  0  0  0
 22 28  1  0  0  0
 22 32  2  0  0  0
 26 27  1  0  0  0
 28106  1  0  0  0
 28107  1  0  0  0
 29108  1  0  0  0
 29109  1  0  0  0
 33 34  1  0  0  0
 33 66  1  0  0  0
 33 70  2  0  0  0
 34 36  1  0  0  0
 34 59  1  0  0  0
 34110  1  0  0  0
 35 44  2  0  0  0
 35 45  1  0  0  0
 35 68  1  0  0  0
 36 56  1  0  0  0
 36111  1  0  0  0
 37 39  1  0  0  0
 37 47  1  0  0  0
 37 66  1  0  0  0
 37112  1  0  0  0
 38 43  2  0  0  0
 38 46  1  0  0  0
 38 47  1  0  0  0
 39 64  1  0  0  0
 39 67  2  0  0  0
 40 52  1  0  0  0
 40 53  2  0  0  0
 40 58  1  0  0  0
 41113  1  0  0  0
 41114  1  0  0  0
 41115  1  0  0  0
 41 48  1  0  0  0
 42 43  1  0  0  0
 42 66  1  0  0  0
 42116  1  0  0  0
 42117  1  0  0  0
 43 44  1  0  0  0
 44118  1  0  0  0
 45 46  2  0  0  0
 45119  1  0  0  0
 46120  1  0  0  0
 47121  1  0  0  0
 47122  1  0  0  0
 48 56  1  0  0  0
 48 65  1  0  0  0
 48123  1  0  0  0
 49 50  1  0  0  0
 49 53  1  0  0  0
 49 64  1  0  0  0
 49124  1  0  0  0
 50 51  1  0  0  0
 50125  1  0  0  0
 50126  1  0  0  0
 51 52  1  0  0  0
 51127  1  0  0  0
 51128  1  0  0  0
 52129  1  0  0  0
 52130  1  0  0  0
 53 54  1  0  0  0
 54 55  2  0  0  0
 54131  1  0  0  0
 55 57  1  0  0  0
 55132  1  0  0  0
 56 69  2  0  0  0
 57 58  2  0  0  0
 57133  1  0  0  0
 58134  1  0  0  0
 59 60  1  0  0  0
 59 61  1  0  0  0
 59 62  1  0  0  0
 60135  1  0  0  0
 60136  1  0  0  0
 60137  1  0  0  0
 61138  1  0  0  0
 61139  1  0  0  0
 61140  1  0  0  0
 62141  1  0  0  0
 62142  1  0  0  0
 62143  1  0  0  0
 63 65  1  0  0  0
 63144  1  0  0  0
 63145  1  0  0  0
 63146  1  0  0  0
 64147  1  0  0  0
 65148  1  0  0  0
 68 87  1  0  0  0
 71 73  2  0  0  0
 71 75  1  0  0  0
 71 82  1  0  0  0
 72 74  1  0  0  0
 72 75  2  0  0  0
 72 83  1  0  0  0
 73 76  1  0  0  0
 73 84  1  0  0  0
 74 76  2  0  0  0
 74 85  1  0  0  0
 75 87  1  0  0  0
 76 88  1  0  0  0
 77 79  1  0  0  0
 77149  1  0  0  0
 77150  1  0  0  0
 77 81  1  0  0  0
 78 80  1  0  0  0
 78 81  1  0  0  0
 78151  1  0  0  0
 78152  1  0  0  0
 79 89  1  0  0  0
 79153  1  0  0  0
 79154  1  0  0  0
 80 89  1  0  0  0
 80155  1  0  0  0
 80156  1  0  0  0
 81 88  1  0  0  0
 81157  1  0  0  0
 82158  1  0  0  0
 82159  1  0  0  0
 82160  1  0  0  0
 83161  1  0  0  0
 83162  1  0  0  0
 83163  1  0  0  0
 84164  1  0  0  0
 84165  1  0  0  0
 84166  1  0  0  0
 85167  1  0  0  0
 85168  1  0  0  0
 85169  1  0  0  0
 86170  1  0  0  0
 86171  1  0  0  0
 86172  1  0  0  0
 86 88  1  0  0  0
 87173  1  0  0  0
 87174  1  0  0  0
 88175  1  0  0  0
M  ISO  4   1 100  68 101  87 101  89 100
M  END
> <chiral flag>
0

> <version>
0

> <s_m_source_file>
/data/baiqing/PycharmProjects/Reinvent-master-3.2/result/LINK_invent/BTK/process_docking_weight1_custom_sum_contain_oxygen_bond_distance_aromatic_linkinvent_7_9_3/rearranged_h_0161.sdf

> <i_m_source_file_index>
24

> <r_mmod_Potential_Energy-OPLS-2005>
464.794067382812

> <r_mmod_Stretch_Energy-OPLS-2005>
80.4554214477539

> <r_mmod_Bend_Energy-OPLS-2005>
208.411544799805

> <r_mmod_Torsional_Energy-OPLS-2005>
409.763397216797

> <r_mmod_Improper_Torsional_Energy-OPLS-2005>
19.0023002624512

> <r_mmod_Van_der_Waal_Energy-OPLS-2005>
208.449310302734

> <r_mmod_Electrostatic_Energy-OPLS-2005>
-312.454772949219

> <r_mmod_Solvation_Energy-OPLS-2005>
-184.889099121094

> <b_mmod_Minimization_Converged-OPLS-2005>
0

> <r_mmod_RMS_Derivative-OPLS-2005>
7.69469165802002

$$$$
24
                    3D
 Structure written by MMmdl.
181191  0  0  1  0            999 V2000
  -30.7064  -14.4768   20.5945 C   0  0  0  0  0  0
  -30.4200  -12.3197   19.4196 C   0  0  0  0  0  0
  -29.4908  -12.5111   18.2036 C   0  0  0  0  0  0
  -28.0140  -12.3657   18.6194 C   0  0  0  0  0  0
  -27.6594  -13.2086   19.8736 C   0  0  2  0  0  0
  -28.7007  -12.9950   20.9944 C   0  0  0  0  0  0
  -25.2577  -13.8165   20.5680 C   0  0  0  0  0  0
  -24.1829  -13.0434   20.9176 C   0  0  0  0  0  0
  -24.6389  -11.6905   20.8734 C   0  0  0  0  0  0
  -23.9058  -10.4290   21.0403 C   0  0  0  0  0  0
  -24.3611   -9.4207   21.9182 C   0  0  0  0  0  0
  -23.6289   -8.2242   22.0754 C   0  0  0  0  0  0
  -22.4272   -8.0279   21.3544 C   0  0  0  0  0  0
  -21.9903   -9.0251   20.4644 C   0  0  0  0  0  0
  -22.7229  -10.2133   20.3053 C   0  0  0  0  0  0
  -21.6852   -6.0732   22.5280 C   0  0  0  0  0  0
  -21.4012   -6.5637   23.8212 C   0  0  0  0  0  0
  -21.3664   -5.6792   24.9176 C   0  0  0  0  0  0
  -21.6043   -4.3053   24.7228 C   0  0  0  0  0  0
  -21.8821   -3.8144   23.4347 C   0  0  0  0  0  0
  -21.9190   -4.6960   22.3399 C   0  0  0  0  0  0
  -22.7856  -13.5236   21.1842 C   0  0  0  0  0  0
  -22.1661   -4.2143   21.0977 F   0  0  0  0  0  0
  -21.5631   -3.4538   25.7741 F   0  0  0  0  0  0
  -30.0287  -13.3059   20.4402 N   0  0  0  0  0  0
  -26.3010  -12.9336   20.3361 N   0  0  0  0  0  0
  -25.9314  -11.6494   20.5759 N   0  0  0  0  0  0
  -22.0499  -12.8227   22.0402 N   0  0  0  0  0  0
  -25.4298  -15.1881   20.4093 N   0  0  0  0  0  0
  -31.8224  -14.6673   20.1032 O   0  0  0  0  0  0
  -21.6637   -6.8873   21.4240 O   0  0  0  0  0  0
  -22.3544  -14.5547   20.6703 O   0  0  0  0  0  0
  -24.6150  -31.8679   23.2107 C   0  0  0  0  0  0
  -25.9044  -32.4830   23.8399 C   0  0  1  0  0  0
  -27.2328  -27.4198   20.1063 C   0  0  0  0  0  0
  -25.5900  -33.8624   24.2336 N   0  0  0  0  0  0
  -23.4052  -30.4891   21.5513 C   0  0  2  0  0  0
  -24.8549  -28.9511   20.1216 C   0  0  0  0  0  0
  -22.7417  -29.4644   22.5002 C   0  0  0  0  0  0
  -18.0268  -28.1374   22.8487 C   0  0  0  0  0  0
  -24.1493  -36.7314   23.2637 C   0  0  0  0  0  0
  -25.9350  -30.8264   21.3700 C   0  0  0  0  0  0
  -26.0143  -29.4559   20.7258 C   0  0  0  0  0  0
  -27.2096  -28.6947   20.7215 C   0  0  0  0  0  0
  -26.0629  -26.9382   19.4863 C   0  0  0  0  0  0
  -24.8731  -27.6895   19.5017 C   0  0  0  0  0  0
  -23.6172  -29.8197   20.1675 C   0  0  0  0  0  0
  -25.4118  -36.3118   24.0333 C   0  0  1  0  0  0
  -20.5856  -28.3658   23.1321 C   0  0  2  0  0  0
  -20.6764  -26.9395   22.5419 C   0  0  0  0  0  0
  -19.5747  -26.6381   21.5209 C   0  0  0  0  0  0
  -18.1922  -26.7921   22.1618 C   0  0  0  0  0  0
  -19.1515  -28.8833   23.2898 C   0  0  0  0  0  0
  -18.9448  -30.1439   23.8909 C   0  0  0  0  0  0
  -17.6452  -30.6583   24.0561 C   0  0  0  0  0  0
  -25.9040  -34.9481   23.5137 C   0  0  0  0  0  0
  -16.5340  -29.9086   23.6325 C   0  0  0  0  0  0
  -16.7259  -28.6501   23.0345 C   0  0  0  0  0  0
  -26.4470  -31.6606   25.0724 C   0  0  0  0  0  0
  -25.3723  -31.3706   26.1465 C   0  0  0  0  0  0
  -27.0309  -30.3053   24.6098 C   0  0  0  0  0  0
  -27.6057  -32.4318   25.7482 C   0  0  0  0  0  0
  -27.5594  -37.1812   24.8463 C   0  0  0  0  0  0
  -21.4143  -29.3030   22.3738 N   0  0  0  0  0  0
  -26.4317  -37.3795   23.9394 N   0  0  0  0  0  0
  -24.6694  -31.0757   22.1025 N   0  0  0  0  0  0
  -23.4177  -28.8190   23.3057 O   0  0  0  0  0  0
  -28.3846  -26.6705   20.0044 O   0  0  0  0  0  0
  -26.5602  -34.8933   22.4698 O   0  0  0  0  0  0
  -23.5339  -32.1438   23.7494 O   0  0  0  0  0  0
  -28.5319  -20.6856   20.7600 C   0  0  0  0  0  0
  -28.0021  -21.9861   20.5929 C   0  0  0  0  0  0
  -29.4470  -22.7988   22.3883 C   0  0  0  0  0  0
  -28.4488  -23.0826   21.3955 C   0  0  0  0  0  0
  -30.0387  -21.4945   22.4729 C   0  0  0  0  0  0
  -29.5387  -20.4069   21.7022 C   0  0  0  0  0  0
  -28.2167  -23.3999   26.5319 C   0  0  0  0  0  0
  -28.3571  -22.6038   25.2312 C   0  0  0  0  0  0
  -28.9659  -24.5383   25.8318 C   0  0  0  0  0  0
  -30.4141  -17.0777   23.1008 C   0  0  0  0  0  0
  -29.7355  -18.4506   23.1754 C   0  0  0  0  0  0
  -29.9144  -18.0026   20.9096 C   0  0  0  0  0  0
  -29.5644  -23.4904   24.8778 C   0  0  0  0  0  0
  -30.5916  -16.7859   21.5979 C   0  0  2  0  0  0
  -26.8993  -22.1381   19.5525 C   0  0  0  0  0  0
  -31.2469  -21.2585   23.3855 C   0  0  0  0  0  0
  -26.6587  -24.7007   22.2385 C   0  0  0  0  0  0
  -29.8771  -23.8566   23.4201 C   0  0  0  0  0  0
  -28.6935  -25.7555   21.0704 C   0  0  0  0  0  0
  -27.7755  -24.4885   21.2013 C   0  0  1  0  0  0
  -30.0177  -19.0815   21.8946 N   0  0  0  0  0  0
  -30.0490  -15.4610   21.2407 N   0  0  0  0  0  0
  -31.4646  -12.4188   19.1181 H   0  0  0  0  0  0
  -30.3220  -11.3091   19.8194 H   0  0  0  0  0  0
  -29.7326  -11.7855   17.4254 H   0  0  0  0  0  0
  -29.6550  -13.4964   17.7645 H   0  0  0  0  0  0
  -27.8308  -11.3095   18.8206 H   0  0  0  0  0  0
  -27.3602  -12.6331   17.7886 H   0  0  0  0  0  0
  -27.7023  -14.2558   19.5737 H   0  0  0  0  0  0
  -28.6819  -11.9593   21.3371 H   0  0  0  0  0  0
  -28.4573  -13.5939   21.8724 H   0  0  0  0  0  0
  -25.2756   -9.5684   22.4750 H   0  0  0  0  0  0
  -23.9997   -7.4635   22.7475 H   0  0  0  0  0  0
  -21.0832   -8.8766   19.8951 H   0  0  0  0  0  0
  -22.3685  -10.9669   19.6160 H   0  0  0  0  0  0
  -21.2007   -7.6149   23.9714 H   0  0  0  0  0  0
  -21.1486   -6.0524   25.9079 H   0  0  0  0  0  0
  -22.0596   -2.7606   23.2849 H   0  0  0  0  0  0
  -22.4114  -11.9881   22.4774 H   0  0  0  0  0  0
  -21.1122  -13.1259   22.2618 H   0  0  0  0  0  0
  -24.6642  -15.8444   20.5185 H   0  0  0  0  0  0
  -26.2838  -15.6265   20.0871 H   0  0  0  0  0  0
  -26.7109  -32.5557   23.1162 H   0  0  0  0  0  0
  -25.0059  -33.9774   25.0485 H   0  0  0  0  0  0
  -22.6943  -31.3058   21.4106 H   0  0  0  0  0  0
  -23.3766  -35.9639   23.3312 H   0  0  0  0  0  0
  -24.3581  -36.8914   22.2048 H   0  0  0  0  0  0
  -23.7239  -37.6516   23.6646 H   0  0  0  0  0  0
  -26.0450  -31.5888   20.5969 H   0  0  0  0  0  0
  -26.8222  -30.8845   21.9888 H   0  0  0  0  0  0
  -28.1103  -29.0843   21.1761 H   0  0  0  0  0  0
  -26.0734  -25.9823   18.9826 H   0  0  0  0  0  0
  -23.9851  -27.2984   19.0248 H   0  0  0  0  0  0
  -23.7278  -30.5927   19.4064 H   0  0  0  0  0  0
  -22.7410  -29.2389   19.8724 H   0  0  0  0  0  0
  -25.1294  -36.2002   25.0827 H   0  0  0  0  0  0
  -20.9927  -28.3231   24.1448 H   0  0  0  0  0  0
  -20.5679  -26.2260   23.3602 H   0  0  0  0  0  0
  -21.6637  -26.7458   22.1202 H   0  0  0  0  0  0
  -19.6915  -25.6293   21.1237 H   0  0  0  0  0  0
  -19.6699  -27.3199   20.6744 H   0  0  0  0  0  0
  -17.4191  -26.6664   21.4022 H   0  0  0  0  0  0
  -18.0325  -26.0063   22.9015 H   0  0  0  0  0  0
  -19.7927  -30.7238   24.2297 H   0  0  0  0  0  0
  -17.5013  -31.6269   24.5157 H   0  0  0  0  0  0
  -15.5342  -30.2992   23.7646 H   0  0  0  0  0  0
  -15.8654  -28.0826   22.7053 H   0  0  0  0  0  0
  -24.5903  -30.7055   25.7779 H   0  0  0  0  0  0
  -24.8904  -32.2855   26.4921 H   0  0  0  0  0  0
  -25.8054  -30.8861   27.0223 H   0  0  0  0  0  0
  -26.2857  -29.6808   24.1156 H   0  0  0  0  0  0
  -27.4084  -29.7295   25.4557 H   0  0  0  0  0  0
  -27.8686  -30.4374   23.9246 H   0  0  0  0  0  0
  -27.2694  -33.3617   26.2081 H   0  0  0  0  0  0
  -28.3851  -32.6873   25.0290 H   0  0  0  0  0  0
  -28.0739  -31.8424   26.5373 H   0  0  0  0  0  0
  -28.2615  -38.0109   24.7519 H   0  0  0  0  0  0
  -28.1087  -36.2639   24.6293 H   0  0  0  0  0  0
  -27.2294  -37.1451   25.8862 H   0  0  0  0  0  0
  -20.9317  -29.8767   21.6965 H   0  0  0  0  0  0
  -26.0219  -38.2880   24.1401 H   0  0  0  0  0  0
  -28.1381  -19.8818   20.1554 H   0  0  0  0  0  0
  -28.7796  -22.9624   27.3591 H   0  0  0  0  0  0
  -27.1908  -23.6313   26.8201 H   0  0  0  0  0  0
  -27.5091  -22.7428   24.5582 H   0  0  0  0  0  0
  -28.5906  -21.5463   25.3608 H   0  0  0  0  0  0
  -29.6967  -25.0572   26.4540 H   0  0  0  0  0  0
  -28.2927  -25.2419   25.3374 H   0  0  0  0  0  0
  -29.8243  -16.3242   23.6241 H   0  0  0  0  0  0
  -31.3909  -17.1118   23.5862 H   0  0  0  0  0  0
  -30.0905  -19.0140   24.0361 H   0  0  0  0  0  0
  -28.6557  -18.3353   23.2858 H   0  0  0  0  0  0
  -28.8647  -17.7924   20.6966 H   0  0  0  0  0  0
  -30.4072  -18.2633   19.9711 H   0  0  0  0  0  0
  -30.4455  -23.0590   25.3565 H   0  0  0  0  0  0
  -31.6608  -16.8297   21.3789 H   0  0  0  0  0  0
  -26.6007  -21.1759   19.1343 H   0  0  0  0  0  0
  -27.2307  -22.7630   18.7220 H   0  0  0  0  0  0
  -26.0066  -22.5808   19.9952 H   0  0  0  0  0  0
  -31.9140  -22.1173   23.4189 H   0  0  0  0  0  0
  -31.8669  -20.4352   23.0312 H   0  0  0  0  0  0
  -30.9314  -21.0277   24.4023 H   0  0  0  0  0  0
  -25.9410  -23.8804   22.2168 H   0  0  0  0  0  0
  -26.1091  -25.6223   22.0479 H   0  0  0  0  0  0
  -27.0546  -24.7635   23.2507 H   0  0  0  0  0  0
  -29.3965  -24.8025   23.2401 H   0  0  0  0  0  0
  -30.9371  -24.0789   23.2958 H   0  0  0  0  0  0
  -29.7171  -25.4281   20.8848 H   0  0  0  0  0  0
  -28.7191  -26.3345   21.9939 H   0  0  0  0  0  0
  -27.2806  -24.4671   20.2368 H   0  0  0  0  0  0
  -29.1209  -15.2388   21.5675 H   0  0  0  0  0  0
  1 25  1  0  0  0
  1 30  2  0  0  0
  1 92  1  0  0  0
  2  3  1  0  0  0
  2 25  1  0  0  0
  2 93  1  0  0  0
  2 94  1  0  0  0
  3  4  1  0  0  0
  3 95  1  0  0  0
  3 96  1  0  0  0
  4  5  1  0  0  0
  4 97  1  0  0  0
  4 98  1  0  0  0
  5  6  1  0  0  0
  5 26  1  0  0  0
  5 99  1  0  0  0
  6 25  1  0  0  0
  6100  1  0  0  0
  6101  1  0  0  0
  7  8  2  0  0  0
  7 26  1  0  0  0
  7 29  1  0  0  0
  8  9  1  0  0  0
  8 22  1  0  0  0
  9 10  1  0  0  0
  9 27  2  0  0  0
 10 11  2  0  0  0
 10 15  1  0  0  0
 11 12  1  0  0  0
 11102  1  0  0  0
 12 13  2  0  0  0
 12103  1  0  0  0
 13 14  1  0  0  0
 13 31  1  0  0  0
 14 15  2  0  0  0
 14104  1  0  0  0
 15105  1  0  0  0
 16 17  2  0  0  0
 16 21  1  0  0  0
 16 31  1  0  0  0
 17 18  1  0  0  0
 17106  1  0  0  0
 18 19  2  0  0  0
 18107  1  0  0  0
 19 20  1  0  0  0
 19 24  1  0  0  0
 20 21  2  0  0  0
 20108  1  0  0  0
 21 23  1  0  0  0
 22 28  1  0  0  0
 22 32  2  0  0  0
 26 27  1  0  0  0
 28109  1  0  0  0
 28110  1  0  0  0
 29111  1  0  0  0
 29112  1  0  0  0
 33 34  1  0  0  0
 33 66  1  0  0  0
 33 70  2  0  0  0
 34 36  1  0  0  0
 34 59  1  0  0  0
 34113  1  0  0  0
 35 44  2  0  0  0
 35 45  1  0  0  0
 35 68  1  0  0  0
 36 56  1  0  0  0
 36114  1  0  0  0
 37 39  1  0  0  0
 37 47  1  0  0  0
 37 66  1  0  0  0
 37115  1  0  0  0
 38 43  2  0  0  0
 38 46  1  0  0  0
 38 47  1  0  0  0
 39 64  1  0  0  0
 39 67  2  0  0  0
 40 52  1  0  0  0
 40 53  2  0  0  0
 40 58  1  0  0  0
 41116  1  0  0  0
 41117  1  0  0  0
 41118  1  0  0  0
 41 48  1  0  0  0
 42 43  1  0  0  0
 42 66  1  0  0  0
 42119  1  0  0  0
 42120  1  0  0  0
 43 44  1  0  0  0
 44121  1  0  0  0
 45 46  2  0  0  0
 45122  1  0  0  0
 46123  1  0  0  0
 47124  1  0  0  0
 47125  1  0  0  0
 48 56  1  0  0  0
 48 65  1  0  0  0
 48126  1  0  0  0
 49 50  1  0  0  0
 49 53  1  0  0  0
 49 64  1  0  0  0
 49127  1  0  0  0
 50 51  1  0  0  0
 50128  1  0  0  0
 50129  1  0  0  0
 51 52  1  0  0  0
 51130  1  0  0  0
 51131  1  0  0  0
 52132  1  0  0  0
 52133  1  0  0  0
 53 54  1  0  0  0
 54 55  2  0  0  0
 54134  1  0  0  0
 55 57  1  0  0  0
 55135  1  0  0  0
 56 69  2  0  0  0
 57 58  2  0  0  0
 57136  1  0  0  0
 58137  1  0  0  0
 59 60  1  0  0  0
 59 61  1  0  0  0
 59 62  1  0  0  0
 60138  1  0  0  0
 60139  1  0  0  0
 60140  1  0  0  0
 61141  1  0  0  0
 61142  1  0  0  0
 61143  1  0  0  0
 62144  1  0  0  0
 62145  1  0  0  0
 62146  1  0  0  0
 63 65  1  0  0  0
 63147  1  0  0  0
 63148  1  0  0  0
 63149  1  0  0  0
 64150  1  0  0  0
 65151  1  0  0  0
 68 89  1  0  0  0
 71 72  2  0  0  0
 71 76  1  0  0  0
 71152  1  0  0  0
 72 74  1  0  0  0
 72 85  1  0  0  0
 73 74  2  0  0  0
 73 75  1  0  0  0
 73 88  1  0  0  0
 74 90  1  0  0  0
 75 76  2  0  0  0
 75 86  1  0  0  0
 76 91  1  0  0  0
 77 78  1  0  0  0
 77 79  1  0  0  0
 77153  1  0  0  0
 77154  1  0  0  0
 78 83  1  0  0  0
 78155  1  0  0  0
 78156  1  0  0  0
 79 83  1  0  0  0
 79157  1  0  0  0
 79158  1  0  0  0
 80 81  1  0  0  0
 80 84  1  0  0  0
 80159  1  0  0  0
 80160  1  0  0  0
 81 91  1  0  0  0
 81161  1  0  0  0
 81162  1  0  0  0
 82 84  1  0  0  0
 82 91  1  0  0  0
 82163  1  0  0  0
 82164  1  0  0  0
 83 88  1  0  0  0
 83165  1  0  0  0
 84 92  1  0  0  0
 84166  1  0  0  0
 85167  1  0  0  0
 85168  1  0  0  0
 85169  1  0  0  0
 86170  1  0  0  0
 86171  1  0  0  0
 86172  1  0  0  0
 87173  1  0  0  0
 87174  1  0  0  0
 87175  1  0  0  0
 87 90  1  0  0  0
 88176  1  0  0  0
 88177  1  0  0  0
 89 90  1  0  0  0
 89178  1  0  0  0
 89179  1  0  0  0
 90180  1  0  0  0
 92181  1  0  0  0
M  ISO  4   1 100  68 101  89 101  92 100
M  END
> <chiral flag>
0

> <version>
0

> <s_m_source_file>
/data/baiqing/PycharmProjects/Reinvent-master-3.2/result/LINK_invent/BTK/process_docking_weight1_custom_sum_contain_oxygen_bond_distance_aromatic_linkinvent_7_9_3/rearranged_h_0161.sdf

> <i_m_source_file_index>
25

> <r_mmod_Potential_Energy-OPLS-2005>
86.5038681030273

> <r_mmod_Stretch_Energy-OPLS-2005>
53.4769287109375

> <r_mmod_Bend_Energy-OPLS-2005>
172.909194946289

> <r_mmod_Torsional_Energy-OPLS-2005>
315.410980224609

> <r_mmod_Improper_Torsional_Energy-OPLS-2005>
6.91869068145752

> <r_mmod_Van_der_Waal_Energy-OPLS-2005>
159.037628173828

> <r_mmod_Electrostatic_Energy-OPLS-2005>
-421.830657958984

> <r_mmod_Solvation_Energy-OPLS-2005>
-211.891357421875

> <b_mmod_Minimization_Converged-OPLS-2005>
0

> <r_mmod_RMS_Derivative-OPLS-2005>
1.11712181568146

$$$$
25
                    3D
 Structure written by MMmdl.
169178  0  0  1  0            999 V2000
  -30.7256  -14.4194   20.5879 C   0  0  0  0  0  0
  -30.4141  -12.2833   19.4040 C   0  0  0  0  0  0
  -29.4899  -12.5064   18.1913 C   0  0  0  0  0  0
  -28.0096  -12.3789   18.6045 C   0  0  0  0  0  0
  -27.6613  -13.2061   19.8719 C   0  0  2  0  0  0
  -28.7012  -12.9680   20.9890 C   0  0  0  0  0  0
  -25.2593  -13.8153   20.5690 C   0  0  0  0  0  0
  -24.1842  -13.0441   20.9172 C   0  0  0  0  0  0
  -24.6397  -11.6898   20.8718 C   0  0  0  0  0  0
  -23.9042  -10.4293   21.0381 C   0  0  0  0  0  0
  -24.3596   -9.4212   21.9164 C   0  0  0  0  0  0
  -23.6279   -8.2240   22.0734 C   0  0  0  0  0  0
  -22.4259   -8.0264   21.3525 C   0  0  0  0  0  0
  -21.9893   -9.0239   20.4627 C   0  0  0  0  0  0
  -22.7209  -10.2129   20.3040 C   0  0  0  0  0  0
  -21.6852   -6.0712   22.5270 C   0  0  0  0  0  0
  -21.4015   -6.5617   23.8208 C   0  0  0  0  0  0
  -21.3676   -5.6774   24.9174 C   0  0  0  0  0  0
  -21.6048   -4.3034   24.7233 C   0  0  0  0  0  0
  -21.8811   -3.8122   23.4351 C   0  0  0  0  0  0
  -21.9205   -4.6939   22.3407 C   0  0  0  0  0  0
  -22.7864  -13.5232   21.1856 C   0  0  0  0  0  0
  -22.1662   -4.2119   21.0987 F   0  0  0  0  0  0
  -21.5652   -3.4528   25.7754 F   0  0  0  0  0  0
  -30.0324  -13.2616   20.4329 N   0  0  0  0  0  0
  -26.3019  -12.9330   20.3334 N   0  0  0  0  0  0
  -25.9320  -11.6479   20.5713 N   0  0  0  0  0  0
  -22.0495  -12.8238   22.0410 N   0  0  0  0  0  0
  -25.4341  -15.1875   20.4148 N   0  0  0  0  0  0
  -31.8488  -14.5984   20.1138 O   0  0  0  0  0  0
  -21.6625   -6.8854   21.4223 O   0  0  0  0  0  0
  -22.3555  -14.5550   20.6698 O   0  0  0  0  0  0
  -24.6172  -31.8708   23.2083 C   0  0  0  0  0  0
  -25.9062  -32.4833   23.8389 C   0  0  1  0  0  0
  -27.2241  -27.4252   20.0918 C   0  0  0  0  0  0
  -25.5931  -33.8624   24.2334 N   0  0  0  0  0  0
  -23.4043  -30.4942   21.5529 C   0  0  2  0  0  0
  -24.8447  -28.9569   20.1153 C   0  0  0  0  0  0
  -22.7425  -29.4690   22.5022 C   0  0  0  0  0  0
  -18.0291  -28.1412   22.8526 C   0  0  0  0  0  0
  -24.1487  -36.7286   23.2645 C   0  0  0  0  0  0
  -25.9323  -30.8327   21.3592 C   0  0  0  0  0  0
  -26.0070  -29.4645   20.7086 C   0  0  0  0  0  0
  -27.2022  -28.7079   20.6884 C   0  0  0  0  0  0
  -26.0453  -26.9369   19.4852 C   0  0  0  0  0  0
  -24.8582  -27.6933   19.5008 C   0  0  0  0  0  0
  -23.6090  -29.8265   20.1671 C   0  0  0  0  0  0
  -25.4116  -36.3111   24.0346 C   0  0  1  0  0  0
  -20.5887  -28.3683   23.1352 C   0  0  2  0  0  0
  -20.6778  -26.9430   22.5446 C   0  0  0  0  0  0
  -19.5743  -26.6416   21.5254 C   0  0  0  0  0  0
  -18.1920  -26.7968   22.1656 C   0  0  0  0  0  0
  -19.1543  -28.8870   23.2936 C   0  0  0  0  0  0
  -18.9454  -30.1482   23.8938 C   0  0  0  0  0  0
  -17.6449  -30.6609   24.0592 C   0  0  0  0  0  0
  -25.9037  -34.9478   23.5131 C   0  0  0  0  0  0
  -16.5348  -29.9109   23.6334 C   0  0  0  0  0  0
  -16.7278  -28.6532   23.0352 C   0  0  0  0  0  0
  -26.4461  -31.6605   25.0712 C   0  0  0  0  0  0
  -25.3724  -31.3711   26.1457 C   0  0  0  0  0  0
  -27.0251  -30.3066   24.6037 C   0  0  0  0  0  0
  -27.6073  -32.4291   25.7445 C   0  0  0  0  0  0
  -27.5590  -37.1794   24.8477 C   0  0  0  0  0  0
  -21.4167  -29.3026   22.3731 N   0  0  0  0  0  0
  -26.4302  -37.3801   23.9415 N   0  0  0  0  0  0
  -24.6701  -31.0791   22.0995 N   0  0  0  0  0  0
  -23.4199  -28.8262   23.3080 O   0  0  0  0  0  0
  -28.3850  -26.6798   20.0879 O   0  0  0  0  0  0
  -26.5594  -34.8926   22.4693 O   0  0  0  0  0  0
  -23.5356  -32.1456   23.7470 O   0  0  0  0  0  0
  -29.7166  -19.5549   19.2479 C   0  0  0  0  0  0
  -30.0167  -20.6670   20.0287 C   0  0  0  0  0  0
  -29.8922  -18.2292   19.7226 C   0  0  0  0  0  0
  -30.5173  -20.5043   21.3380 C   0  0  0  0  0  0
  -30.6399  -19.1870   21.8688 C   0  0  0  0  0  0
  -30.3542  -18.0341   21.0646 C   0  0  0  0  0  0
  -29.2631  -19.9786   17.8664 C   0  0  0  0  0  0
  -29.3171  -21.5249   17.8703 C   0  0  0  0  0  0
  -29.8172  -21.9747   19.2674 C   0  0  1  0  0  0
  -29.6156  -17.0714   18.7724 C   0  0  0  0  0  0
  -30.9506  -21.7168   22.1536 C   0  0  0  0  0  0
  -31.0801  -18.9994   23.3256 C   0  0  0  0  0  0
  -30.6864  -16.6504   21.6883 C   0  0  0  0  0  0
  -28.9294  -24.3282   19.5047 C   0  0  0  0  0  0
  -28.2711  -25.3052   20.5099 C   0  0  0  0  0  0
  -30.0686  -15.4114   21.2079 N   0  0  0  0  0  0
  -28.8791  -22.9013   19.9541 N   0  3  0  0  0  0
  -31.4609  -12.3669   19.1039 H   0  0  0  0  0  0
  -30.2961  -11.2690   19.7874 H   0  0  0  0  0  0
  -29.7172  -11.7848   17.4050 H   0  0  0  0  0  0
  -29.6753  -13.4934   17.7633 H   0  0  0  0  0  0
  -27.8107  -11.3233   18.7867 H   0  0  0  0  0  0
  -27.3602  -12.6660   17.7767 H   0  0  0  0  0  0
  -27.7121  -14.2586   19.5907 H   0  0  0  0  0  0
  -28.6705  -11.9296   21.3203 H   0  0  0  0  0  0
  -28.4674  -13.5637   21.8730 H   0  0  0  0  0  0
  -25.2745   -9.5697   22.4732 H   0  0  0  0  0  0
  -23.9994   -7.4628   22.7449 H   0  0  0  0  0  0
  -21.0820   -8.8753   19.8941 H   0  0  0  0  0  0
  -22.3652  -10.9663   19.6144 H   0  0  0  0  0  0
  -21.1978   -7.6121   23.9701 H   0  0  0  0  0  0
  -21.1515   -6.0503   25.9075 H   0  0  0  0  0  0
  -22.0582   -2.7579   23.2863 H   0  0  0  0  0  0
  -22.4110  -11.9933   22.4859 H   0  0  0  0  0  0
  -21.1096  -13.1249   22.2567 H   0  0  0  0  0  0
  -24.6662  -15.8399   20.5255 H   0  0  0  0  0  0
  -26.2900  -15.6305   20.1078 H   0  0  0  0  0  0
  -26.7132  -32.5539   23.1150 H   0  0  0  0  0  0
  -25.0092  -33.9789   25.0485 H   0  0  0  0  0  0
  -22.6931  -31.3104   21.4175 H   0  0  0  0  0  0
  -23.3762  -35.9607   23.3315 H   0  0  0  0  0  0
  -24.3577  -36.8888   22.2058 H   0  0  0  0  0  0
  -23.7209  -37.6484   23.6638 H   0  0  0  0  0  0
  -26.0371  -31.5958   20.5867 H   0  0  0  0  0  0
  -26.8245  -30.8927   21.9703 H   0  0  0  0  0  0
  -28.1016  -29.0999   21.1416 H   0  0  0  0  0  0
  -26.0342  -25.9769   18.9891 H   0  0  0  0  0  0
  -23.9639  -27.3017   19.0362 H   0  0  0  0  0  0
  -23.7158  -30.6008   19.4061 H   0  0  0  0  0  0
  -22.7295  -29.2495   19.8740 H   0  0  0  0  0  0
  -25.1283  -36.1967   25.0838 H   0  0  0  0  0  0
  -20.9996  -28.3255   24.1467 H   0  0  0  0  0  0
  -20.5719  -26.2296   23.3626 H   0  0  0  0  0  0
  -21.6632  -26.7485   22.1217 H   0  0  0  0  0  0
  -19.6881  -25.6331   21.1254 H   0  0  0  0  0  0
  -19.6677  -27.3246   20.6797 H   0  0  0  0  0  0
  -17.4204  -26.6778   21.4036 H   0  0  0  0  0  0
  -18.0290  -26.0105   22.9037 H   0  0  0  0  0  0
  -19.7916  -30.7326   24.2305 H   0  0  0  0  0  0
  -17.4980  -31.6282   24.5199 H   0  0  0  0  0  0
  -15.5341  -30.3010   23.7615 H   0  0  0  0  0  0
  -15.8695  -28.0847   22.7034 H   0  0  0  0  0  0
  -24.5912  -30.7045   25.7776 H   0  0  0  0  0  0
  -24.8890  -32.2865   26.4881 H   0  0  0  0  0  0
  -25.8077  -30.8885   27.0218 H   0  0  0  0  0  0
  -26.2771  -29.6886   24.1073 H   0  0  0  0  0  0
  -27.4010  -29.7243   25.4445 H   0  0  0  0  0  0
  -27.8603  -30.4388   23.9167 H   0  0  0  0  0  0
  -27.2753  -33.3596   26.2054 H   0  0  0  0  0  0
  -28.3858  -32.6848   25.0246 H   0  0  0  0  0  0
  -28.0773  -31.8391   26.5315 H   0  0  0  0  0  0
  -28.2621  -38.0082   24.7545 H   0  0  0  0  0  0
  -28.1071  -36.2617   24.6274 H   0  0  0  0  0  0
  -27.2317  -37.1433   25.8886 H   0  0  0  0  0  0
  -20.9341  -29.8701   21.6916 H   0  0  0  0  0  0
  -26.0181  -38.2872   24.1437 H   0  0  0  0  0  0
  -28.2535  -19.6181   17.6640 H   0  0  0  0  0  0
  -29.9228  -19.5602   17.1039 H   0  0  0  0  0  0
  -28.3413  -21.9452   17.6209 H   0  0  0  0  0  0
  -30.0086  -21.8775   17.1036 H   0  0  0  0  0  0
  -30.7965  -22.4466   19.1702 H   0  0  0  0  0  0
  -28.8161  -16.4380   19.1506 H   0  0  0  0  0  0
  -30.5130  -16.4708   18.6353 H   0  0  0  0  0  0
  -29.3085  -17.3929   17.7801 H   0  0  0  0  0  0
  -31.9534  -21.5612   22.5532 H   0  0  0  0  0  0
  -30.2639  -21.8845   22.9839 H   0  0  0  0  0  0
  -31.0077  -22.6356   21.5741 H   0  0  0  0  0  0
  -31.3839  -19.9042   23.8456 H   0  0  0  0  0  0
  -31.9159  -18.3050   23.4077 H   0  0  0  0  0  0
  -30.2451  -18.5980   23.8998 H   0  0  0  0  0  0
  -30.4118  -16.6521   22.7407 H   0  0  0  0  0  0
  -31.7739  -16.5596   21.6730 H   0  0  0  0  0  0
  -29.9692  -24.6308   19.3742 H   0  0  0  0  0  0
  -28.4557  -24.4254   18.5268 H   0  0  0  0  0  0
  -27.2434  -25.0024   20.7157 H   0  0  0  0  0  0
  -28.7863  -25.2268   21.4678 H   0  0  0  0  0  0
  -29.1335  -15.2100   21.5272 H   0  0  0  0  0  0
  -29.1399  -22.8687   20.9265 H   0  0  0  0  0  0
  -27.9430  -22.5290   19.8925 H   0  0  0  0  0  0
  1 25  1  0  0  0
  1 30  2  0  0  0
  1 86  1  0  0  0
  2  3  1  0  0  0
  2 25  1  0  0  0
  2 88  1  0  0  0
  2 89  1  0  0  0
  3  4  1  0  0  0
  3 90  1  0  0  0
  3 91  1  0  0  0
  4  5  1  0  0  0
  4 92  1  0  0  0
  4 93  1  0  0  0
  5  6  1  0  0  0
  5 26  1  0  0  0
  5 94  1  0  0  0
  6 25  1  0  0  0
  6 95  1  0  0  0
  6 96  1  0  0  0
  7  8  2  0  0  0
  7 26  1  0  0  0
  7 29  1  0  0  0
  8  9  1  0  0  0
  8 22  1  0  0  0
  9 10  1  0  0  0
  9 27  2  0  0  0
 10 11  2  0  0  0
 10 15  1  0  0  0
 11 12  1  0  0  0
 11 97  1  0  0  0
 12 13  2  0  0  0
 12 98  1  0  0  0
 13 14  1  0  0  0
 13 31  1  0  0  0
 14 15  2  0  0  0
 14 99  1  0  0  0
 15100  1  0  0  0
 16 17  2  0  0  0
 16 21  1  0  0  0
 16 31  1  0  0  0
 17 18  1  0  0  0
 17101  1  0  0  0
 18 19  2  0  0  0
 18102  1  0  0  0
 19 20  1  0  0  0
 19 24  1  0  0  0
 20 21  2  0  0  0
 20103  1  0  0  0
 21 23  1  0  0  0
 22 28  1  0  0  0
 22 32  2  0  0  0
 26 27  1  0  0  0
 28104  1  0  0  0
 28105  1  0  0  0
 29106  1  0  0  0
 29107  1  0  0  0
 33 34  1  0  0  0
 33 66  1  0  0  0
 33 70  2  0  0  0
 34 36  1  0  0  0
 34 59  1  0  0  0
 34108  1  0  0  0
 35 44  2  0  0  0
 35 45  1  0  0  0
 35 68  1  0  0  0
 36 56  1  0  0  0
 36109  1  0  0  0
 37 39  1  0  0  0
 37 47  1  0  0  0
 37 66  1  0  0  0
 37110  1  0  0  0
 38 43  2  0  0  0
 38 46  1  0  0  0
 38 47  1  0  0  0
 39 64  1  0  0  0
 39 67  2  0  0  0
 40 52  1  0  0  0
 40 53  2  0  0  0
 40 58  1  0  0  0
 41111  1  0  0  0
 41112  1  0  0  0
 41113  1  0  0  0
 41 48  1  0  0  0
 42 43  1  0  0  0
 42 66  1  0  0  0
 42114  1  0  0  0
 42115  1  0  0  0
 43 44  1  0  0  0
 44116  1  0  0  0
 45 46  2  0  0  0
 45117  1  0  0  0
 46118  1  0  0  0
 47119  1  0  0  0
 47120  1  0  0  0
 48 56  1  0  0  0
 48 65  1  0  0  0
 48121  1  0  0  0
 49 50  1  0  0  0
 49 53  1  0  0  0
 49 64  1  0  0  0
 49122  1  0  0  0
 50 51  1  0  0  0
 50123  1  0  0  0
 50124  1  0  0  0
 51 52  1  0  0  0
 51125  1  0  0  0
 51126  1  0  0  0
 52127  1  0  0  0
 52128  1  0  0  0
 53 54  1  0  0  0
 54 55  2  0  0  0
 54129  1  0  0  0
 55 57  1  0  0  0
 55130  1  0  0  0
 56 69  2  0  0  0
 57 58  2  0  0  0
 57131  1  0  0  0
 58132  1  0  0  0
 59 60  1  0  0  0
 59 61  1  0  0  0
 59 62  1  0  0  0
 60133  1  0  0  0
 60134  1  0  0  0
 60135  1  0  0  0
 61136  1  0  0  0
 61137  1  0  0  0
 61138  1  0  0  0
 62139  1  0  0  0
 62140  1  0  0  0
 62141  1  0  0  0
 63 65  1  0  0  0
 63142  1  0  0  0
 63143  1  0  0  0
 63144  1  0  0  0
 64145  1  0  0  0
 65146  1  0  0  0
 68 85  1  0  0  0
 71 72  1  0  0  0
 71 73  2  0  0  0
 71 77  1  0  0  0
 72 74  2  0  0  0
 72 79  1  0  0  0
 73 76  1  0  0  0
 73 80  1  0  0  0
 74 75  1  0  0  0
 74 81  1  0  0  0
 75 76  2  0  0  0
 75 82  1  0  0  0
 76 83  1  0  0  0
 77 78  1  0  0  0
 77147  1  0  0  0
 77148  1  0  0  0
 78 79  1  0  0  0
 78149  1  0  0  0
 78150  1  0  0  0
 79 87  1  0  0  0
 79151  1  0  0  0
 80152  1  0  0  0
 80153  1  0  0  0
 80154  1  0  0  0
 81155  1  0  0  0
 81156  1  0  0  0
 81157  1  0  0  0
 82158  1  0  0  0
 82159  1  0  0  0
 82160  1  0  0  0
 83 86  1  0  0  0
 83161  1  0  0  0
 83162  1  0  0  0
 84 85  1  0  0  0
 84 87  1  0  0  0
 84163  1  0  0  0
 84164  1  0  0  0
 85165  1  0  0  0
 85166  1  0  0  0
 86167  1  0  0  0
 87168  1  0  0  0
 87169  1  0  0  0
M  CHG  1  87   1
M  ISO  4   1 100  68 101  85 101  86 100
M  END
> <chiral flag>
0

> <version>
0

> <s_m_source_file>
/data/baiqing/PycharmProjects/Reinvent-master-3.2/result/LINK_invent/BTK/process_docking_weight1_custom_sum_contain_oxygen_bond_distance_aromatic_linkinvent_7_9_3/rearranged_h_0161.sdf

> <i_m_source_file_index>
26

> <r_mmod_Potential_Energy-OPLS-2005>
-220.265472412109

> <r_mmod_Stretch_Energy-OPLS-2005>
44.7617530822754

> <r_mmod_Bend_Energy-OPLS-2005>
143.218292236328

> <r_mmod_Torsional_Energy-OPLS-2005>
229.560363769531

> <r_mmod_Improper_Torsional_Energy-OPLS-2005>
3.34660315513611

> <r_mmod_Van_der_Waal_Energy-OPLS-2005>
164.837295532227

> <r_mmod_Electrostatic_Energy-OPLS-2005>
-378.974090576172

> <r_mmod_Solvation_Energy-OPLS-2005>
-438.853973388672

> <b_mmod_Minimization_Converged-OPLS-2005>
0

> <r_mmod_RMS_Derivative-OPLS-2005>
3.2300705909729

$$$$
26
                    3D
 Structure written by MMmdl.
179188  0  0  1  0            999 V2000
  -30.7341  -14.6103   20.4731 C   0  0  0  0  0  0
  -30.4204  -12.3714   19.4503 C   0  0  0  0  0  0
  -29.4854  -12.4480   18.2253 C   0  0  0  0  0  0
  -28.0243  -12.2287   18.6584 C   0  0  0  0  0  0
  -27.6216  -13.1377   19.8390 C   0  0  2  0  0  0
  -28.6936  -13.1427   20.9704 C   0  0  0  0  0  0
  -25.2510  -13.7919   20.5746 C   0  0  0  0  0  0
  -24.1752  -13.0289   20.9286 C   0  0  0  0  0  0
  -24.6261  -11.6742   20.8868 C   0  0  0  0  0  0
  -23.8943  -10.4184   21.0488 C   0  0  0  0  0  0
  -24.3531   -9.4099   21.9229 C   0  0  0  0  0  0
  -23.6218   -8.2139   22.0759 C   0  0  0  0  0  0
  -22.4206   -8.0210   21.3537 C   0  0  0  0  0  0
  -21.9838   -9.0190   20.4646 C   0  0  0  0  0  0
  -22.7163  -10.2065   20.3084 C   0  0  0  0  0  0
  -21.6820   -6.0696   22.5277 C   0  0  0  0  0  0
  -21.4008   -6.5605   23.8212 C   0  0  0  0  0  0
  -21.3671   -5.6766   24.9178 C   0  0  0  0  0  0
  -21.6055   -4.3030   24.7231 C   0  0  0  0  0  0
  -21.8821   -3.8116   23.4358 C   0  0  0  0  0  0
  -21.9187   -4.6924   22.3402 C   0  0  0  0  0  0
  -22.7804  -13.5149   21.1909 C   0  0  0  0  0  0
  -22.1650   -4.2115   21.0985 F   0  0  0  0  0  0
  -21.5625   -3.4516   25.7750 F   0  0  0  0  0  0
  -30.0142  -13.4396   20.3848 N   0  0  0  0  0  0
  -26.2831  -12.8919   20.3370 N   0  0  0  0  0  0
  -25.9147  -11.6180   20.5905 N   0  0  0  0  0  0
  -22.0429  -12.8173   22.0468 N   0  0  0  0  0  0
  -25.4165  -15.1647   20.4047 N   0  0  0  0  0  0
  -31.9295  -14.6326   20.1801 O   0  0  0  0  0  0
  -21.6579   -6.8815   21.4229 O   0  0  0  0  0  0
  -22.3552  -14.5469   20.6734 O   0  0  0  0  0  0
  -24.6148  -31.8674   23.2139 C   0  0  0  0  0  0
  -25.9040  -32.4820   23.8433 C   0  0  1  0  0  0
  -27.2633  -27.4498   20.1170 C   0  0  0  0  0  0
  -25.5908  -33.8622   24.2362 N   0  0  0  0  0  0
  -23.4059  -30.4893   21.5479 C   0  0  2  0  0  0
  -24.8626  -28.9533   20.1233 C   0  0  0  0  0  0
  -22.7408  -29.4672   22.4976 C   0  0  0  0  0  0
  -18.0270  -28.1408   22.8482 C   0  0  0  0  0  0
  -24.1484  -36.7329   23.2629 C   0  0  0  0  0  0
  -25.9303  -30.8409   21.3640 C   0  0  0  0  0  0
  -26.0160  -29.4720   20.7236 C   0  0  0  0  0  0
  -27.2184  -28.7301   20.7217 C   0  0  0  0  0  0
  -26.0949  -26.9503   19.5034 C   0  0  0  0  0  0
  -24.8946  -27.6887   19.5110 C   0  0  0  0  0  0
  -23.6223  -29.8174   20.1649 C   0  0  0  0  0  0
  -25.4108  -36.3121   24.0329 C   0  0  1  0  0  0
  -20.5857  -28.3721   23.1296 C   0  0  2  0  0  0
  -20.6789  -26.9463   22.5424 C   0  0  0  0  0  0
  -19.5778  -26.6418   21.5210 C   0  0  0  0  0  0
  -18.1936  -26.7951   22.1605 C   0  0  0  0  0  0
  -19.1518  -28.8874   23.2874 C   0  0  0  0  0  0
  -18.9452  -30.1458   23.8932 C   0  0  0  0  0  0
  -17.6460  -30.6613   24.0583 C   0  0  0  0  0  0
  -25.9037  -34.9474   23.5147 C   0  0  0  0  0  0
  -16.5352  -29.9137   23.6306 C   0  0  0  0  0  0
  -16.7258  -28.6538   23.0351 C   0  0  0  0  0  0
  -26.4501  -31.6582   25.0729 C   0  0  0  0  0  0
  -25.3789  -31.3656   26.1481 C   0  0  0  0  0  0
  -27.0348  -30.3038   24.6083 C   0  0  0  0  0  0
  -27.6091  -32.4287   25.7488 C   0  0  0  0  0  0
  -27.5588  -37.1806   24.8452 C   0  0  0  0  0  0
  -21.4135  -29.3064   22.3684 N   0  0  0  0  0  0
  -26.4295  -37.3807   23.9404 N   0  0  0  0  0  0
  -24.6677  -31.0798   22.1013 N   0  0  0  0  0  0
  -23.4164  -28.8213   23.3028 O   0  0  0  0  0  0
  -28.4008  -26.6682   20.0408 O   0  0  0  0  0  0
  -26.5590  -34.8922   22.4706 O   0  0  0  0  0  0
  -23.5341  -32.1404   23.7548 O   0  0  0  0  0  0
  -29.9033  -18.0862   20.1913 C   0  0  0  0  0  0
  -30.2429  -19.4515   20.1715 C   0  0  0  0  0  0
  -31.3948  -19.8720   20.8881 C   0  0  0  0  0  0
  -31.7232  -17.5202   21.6772 C   0  0  0  0  0  0
  -30.6341  -17.1066   20.8694 C   0  0  0  0  0  0
  -32.1245  -18.8971   21.6458 C   0  0  0  0  0  0
  -28.7159  -17.5001   19.5132 C   0  0  0  0  0  0
  -28.8356  -16.0270   19.8599 C   0  0  0  0  0  0
  -29.3825  -20.4216   19.3612 C   0  0  0  0  0  0
  -32.3956  -16.5314   22.6181 C   0  0  0  0  0  0
  -33.2503  -21.4660   20.1579 C   0  0  0  0  0  0
  -32.8229  -23.0722   22.5341 C   0  0  0  0  0  0
  -34.4632  -18.7406   22.0302 C   0  0  0  0  0  0
  -29.1780  -25.1578   21.8288 C   0  0  0  0  0  0
  -30.2994  -22.9526   22.2071 C   0  0  0  0  0  0
  -29.2542  -26.5698   21.1907 C   0  0  0  0  0  0
  -31.8503  -21.3544   20.8020 C   0  0  2  0  0  0
  -31.6422  -22.1629   22.1278 C   0  0  1  0  0  0
  -30.0593  -15.8001   20.6363 N   0  0  0  0  0  0
  -30.2792  -24.2287   21.4357 N   0  3  0  0  0  0
  -33.2089  -19.3280   22.3762 O   0  0  0  0  0  0
  -31.4581  -12.4646   19.1285 H   0  0  0  0  0  0
  -30.3425  -11.3965   19.9340 H   0  0  0  0  0  0
  -29.7652  -11.6914   17.4917 H   0  0  0  0  0  0
  -29.5914  -13.4144   17.7295 H   0  0  0  0  0  0
  -27.9176  -11.1828   18.9481 H   0  0  0  0  0  0
  -27.3497  -12.3803   17.8159 H   0  0  0  0  0  0
  -27.5113  -14.0793   19.3389 H   0  0  0  0  0  0
  -28.7238  -12.1731   21.4668 H   0  0  0  0  0  0
  -28.4418  -13.8656   21.7480 H   0  0  0  0  0  0
  -25.2678   -9.5556   22.4803 H   0  0  0  0  0  0
  -23.9928   -7.4512   22.7455 H   0  0  0  0  0  0
  -21.0779   -8.8723   19.8932 H   0  0  0  0  0  0
  -22.3656  -10.9621   19.6194 H   0  0  0  0  0  0
  -21.1993   -7.6116   23.9710 H   0  0  0  0  0  0
  -21.1500   -6.0493   25.9085 H   0  0  0  0  0  0
  -22.0592   -2.7575   23.2859 H   0  0  0  0  0  0
  -22.4040  -11.9813   22.4821 H   0  0  0  0  0  0
  -21.1056  -13.1218   22.2689 H   0  0  0  0  0  0
  -24.6382  -15.8060   20.5092 H   0  0  0  0  0  0
  -26.2478  -15.6069   20.0381 H   0  0  0  0  0  0
  -26.7126  -32.5571   23.1224 H   0  0  0  0  0  0
  -25.0088  -33.9794   25.0529 H   0  0  0  0  0  0
  -22.6950  -31.3053   21.4028 H   0  0  0  0  0  0
  -23.3749  -35.9654   23.3270 H   0  0  0  0  0  0
  -24.3573  -36.8976   22.2046 H   0  0  0  0  0  0
  -23.7225  -37.6519   23.6676 H   0  0  0  0  0  0
  -26.0291  -31.6033   20.5901 H   0  0  0  0  0  0
  -26.8214  -30.9079   21.9767 H   0  0  0  0  0  0
  -28.1035  -29.1598   21.1681 H   0  0  0  0  0  0
  -26.1168  -25.9808   19.0252 H   0  0  0  0  0  0
  -24.0081  -27.2824   19.0421 H   0  0  0  0  0  0
  -23.7382  -30.5911   19.4044 H   0  0  0  0  0  0
  -22.7503  -29.2333   19.8660 H   0  0  0  0  0  0
  -25.1270  -36.2000   25.0819 H   0  0  0  0  0  0
  -20.9918  -28.3345   24.1426 H   0  0  0  0  0  0
  -20.5735  -26.2341   23.3614 H   0  0  0  0  0  0
  -21.6657  -26.7558   22.1198 H   0  0  0  0  0  0
  -19.6975  -25.6323   21.1259 H   0  0  0  0  0  0
  -19.6734  -27.3209   20.6722 H   0  0  0  0  0  0
  -17.4211  -26.6659   21.4005 H   0  0  0  0  0  0
  -18.0357  -26.0091   22.9010 H   0  0  0  0  0  0
  -19.7938  -30.7226   24.2361 H   0  0  0  0  0  0
  -17.5046  -31.6304   24.5196 H   0  0  0  0  0  0
  -15.5369  -30.3093   23.7614 H   0  0  0  0  0  0
  -15.8631  -28.0889   22.7090 H   0  0  0  0  0  0
  -24.5992  -30.6966   25.7824 H   0  0  0  0  0  0
  -24.8948  -32.2790   26.4945 H   0  0  0  0  0  0
  -25.8160  -30.8838   27.0235 H   0  0  0  0  0  0
  -26.2886  -29.6741   24.1230 H   0  0  0  0  0  0
  -27.4224  -29.7315   25.4521 H   0  0  0  0  0  0
  -27.8668  -30.4345   23.9158 H   0  0  0  0  0  0
  -27.2743  -33.3596   26.2078 H   0  0  0  0  0  0
  -28.3916  -32.6817   25.0320 H   0  0  0  0  0  0
  -28.0749  -31.8391   26.5393 H   0  0  0  0  0  0
  -28.2586  -38.0131   24.7569 H   0  0  0  0  0  0
  -28.1111  -36.2664   24.6215 H   0  0  0  0  0  0
  -27.2300  -37.1382   25.8853 H   0  0  0  0  0  0
  -20.9324  -29.8736   21.6843 H   0  0  0  0  0  0
  -26.0185  -38.2872   24.1474 H   0  0  0  0  0  0
  -28.7500  -17.6715   18.4368 H   0  0  0  0  0  0
  -27.7923  -17.9254   19.9098 H   0  0  0  0  0  0
  -28.8713  -15.4900   18.9118 H   0  0  0  0  0  0
  -27.9839  -15.7564   20.4768 H   0  0  0  0  0  0
  -28.4871  -19.9669   18.9415 H   0  0  0  0  0  0
  -29.9508  -20.8261   18.5232 H   0  0  0  0  0  0
  -29.0352  -21.2466   19.9793 H   0  0  0  0  0  0
  -33.2391  -16.0415   22.1316 H   0  0  0  0  0  0
  -31.6956  -15.7656   22.9494 H   0  0  0  0  0  0
  -32.7511  -17.0290   23.5200 H   0  0  0  0  0  0
  -33.2820  -20.9332   19.2078 H   0  0  0  0  0  0
  -34.0405  -21.0630   20.7845 H   0  0  0  0  0  0
  -33.5163  -22.4998   19.9428 H   0  0  0  0  0  0
  -32.6251  -23.5652   23.4873 H   0  0  0  0  0  0
  -33.0198  -23.8533   21.7981 H   0  0  0  0  0  0
  -33.7409  -22.4996   22.6643 H   0  0  0  0  0  0
  -35.2471  -19.4925   22.1133 H   0  0  0  0  0  0
  -34.4845  -18.3587   21.0088 H   0  0  0  0  0  0
  -34.7257  -17.9342   22.7124 H   0  0  0  0  0  0
  -28.2069  -24.7021   21.6291 H   0  0  0  0  0  0
  -29.2340  -25.2896   22.9106 H   0  0  0  0  0  0
  -30.1213  -23.1896   23.2566 H   0  0  0  0  0  0
  -29.4595  -22.3238   21.9172 H   0  0  0  0  0  0
  -30.2771  -26.8167   20.8997 H   0  0  0  0  0  0
  -28.9858  -27.2939   21.9601 H   0  0  0  0  0  0
  -31.2427  -21.8714   20.0647 H   0  0  0  0  0  0
  -31.5874  -21.4176   22.9226 H   0  0  0  0  0  0
  -31.1624  -24.6884   21.5971 H   0  0  0  0  0  0
  -30.2176  -24.0337   20.4478 H   0  0  0  0  0  0
  1 25  1  0  0  0
  1 30  2  0  0  0
  1 89  1  0  0  0
  2  3  1  0  0  0
  2 25  1  0  0  0
  2 92  1  0  0  0
  2 93  1  0  0  0
  3  4  1  0  0  0
  3 94  1  0  0  0
  3 95  1  0  0  0
  4  5  1  0  0  0
  4 96  1  0  0  0
  4 97  1  0  0  0
  5  6  1  0  0  0
  5 26  1  0  0  0
  5 98  1  0  0  0
  6 25  1  0  0  0
  6 99  1  0  0  0
  6100  1  0  0  0
  7  8  2  0  0  0
  7 26  1  0  0  0
  7 29  1  0  0  0
  8  9  1  0  0  0
  8 22  1  0  0  0
  9 10  1  0  0  0
  9 27  2  0  0  0
 10 11  2  0  0  0
 10 15  1  0  0  0
 11 12  1  0  0  0
 11101  1  0  0  0
 12 13  2  0  0  0
 12102  1  0  0  0
 13 14  1  0  0  0
 13 31  1  0  0  0
 14 15  2  0  0  0
 14103  1  0  0  0
 15104  1  0  0  0
 16 17  2  0  0  0
 16 21  1  0  0  0
 16 31  1  0  0  0
 17 18  1  0  0  0
 17105  1  0  0  0
 18 19  2  0  0  0
 18106  1  0  0  0
 19 20  1  0  0  0
 19 24  1  0  0  0
 20 21  2  0  0  0
 20107  1  0  0  0
 21 23  1  0  0  0
 22 28  1  0  0  0
 22 32  2  0  0  0
 26 27  1  0  0  0
 28108  1  0  0  0
 28109  1  0  0  0
 29110  1  0  0  0
 29111  1  0  0  0
 33 34  1  0  0  0
 33 66  1  0  0  0
 33 70  2  0  0  0
 34 36  1  0  0  0
 34 59  1  0  0  0
 34112  1  0  0  0
 35 44  2  0  0  0
 35 45  1  0  0  0
 35 68  1  0  0  0
 36 56  1  0  0  0
 36113  1  0  0  0
 37 39  1  0  0  0
 37 47  1  0  0  0
 37 66  1  0  0  0
 37114  1  0  0  0
 38 43  2  0  0  0
 38 46  1  0  0  0
 38 47  1  0  0  0
 39 64  1  0  0  0
 39 67  2  0  0  0
 40 52  1  0  0  0
 40 53  2  0  0  0
 40 58  1  0  0  0
 41115  1  0  0  0
 41116  1  0  0  0
 41117  1  0  0  0
 41 48  1  0  0  0
 42 43  1  0  0  0
 42 66  1  0  0  0
 42118  1  0  0  0
 42119  1  0  0  0
 43 44  1  0  0  0
 44120  1  0  0  0
 45 46  2  0  0  0
 45121  1  0  0  0
 46122  1  0  0  0
 47123  1  0  0  0
 47124  1  0  0  0
 48 56  1  0  0  0
 48 65  1  0  0  0
 48125  1  0  0  0
 49 50  1  0  0  0
 49 53  1  0  0  0
 49 64  1  0  0  0
 49126  1  0  0  0
 50 51  1  0  0  0
 50127  1  0  0  0
 50128  1  0  0  0
 51 52  1  0  0  0
 51129  1  0  0  0
 51130  1  0  0  0
 52131  1  0  0  0
 52132  1  0  0  0
 53 54  1  0  0  0
 54 55  2  0  0  0
 54133  1  0  0  0
 55 57  1  0  0  0
 55134  1  0  0  0
 56 69  2  0  0  0
 57 58  2  0  0  0
 57135  1  0  0  0
 58136  1  0  0  0
 59 60  1  0  0  0
 59 61  1  0  0  0
 59 62  1  0  0  0
 60137  1  0  0  0
 60138  1  0  0  0
 60139  1  0  0  0
 61140  1  0  0  0
 61141  1  0  0  0
 61142  1  0  0  0
 62143  1  0  0  0
 62144  1  0  0  0
 62145  1  0  0  0
 63 65  1  0  0  0
 63146  1  0  0  0
 63147  1  0  0  0
 63148  1  0  0  0
 64149  1  0  0  0
 65150  1  0  0  0
 68 86  1  0  0  0
 71 72  2  0  0  0
 71 75  1  0  0  0
 71 77  1  0  0  0
 72 73  1  0  0  0
 72 79  1  0  0  0
 73 76  2  0  0  0
 73 87  1  0  0  0
 74 75  2  0  0  0
 74 76  1  0  0  0
 74 80  1  0  0  0
 75 89  1  0  0  0
 76 91  1  0  0  0
 77 78  1  0  0  0
 77151  1  0  0  0
 77152  1  0  0  0
 78 89  1  0  0  0
 78153  1  0  0  0
 78154  1  0  0  0
 79155  1  0  0  0
 79156  1  0  0  0
 79157  1  0  0  0
 80158  1  0  0  0
 80159  1  0  0  0
 80160  1  0  0  0
 81161  1  0  0  0
 81162  1  0  0  0
 81163  1  0  0  0
 81 87  1  0  0  0
 82164  1  0  0  0
 82165  1  0  0  0
 82166  1  0  0  0
 82 88  1  0  0  0
 83 91  1  0  0  0
 83167  1  0  0  0
 83168  1  0  0  0
 83169  1  0  0  0
 84 86  1  0  0  0
 84 90  1  0  0  0
 84170  1  0  0  0
 84171  1  0  0  0
 85 88  1  0  0  0
 85 90  1  0  0  0
 85172  1  0  0  0
 85173  1  0  0  0
 86174  1  0  0  0
 86175  1  0  0  0
 87 88  1  0  0  0
 87176  1  0  0  0
 88177  1  0  0  0
 90178  1  0  0  0
 90179  1  0  0  0
M  CHG  1  90   1
M  ISO  4   1 100  68 101  86 101  89 100
M  END
> <chiral flag>
0

> <version>
0

> <s_m_source_file>
/data/baiqing/PycharmProjects/Reinvent-master-3.2/result/LINK_invent/BTK/process_docking_weight1_custom_sum_contain_oxygen_bond_distance_aromatic_linkinvent_7_9_3/rearranged_h_0161.sdf

> <i_m_source_file_index>
27

> <r_mmod_Potential_Energy-OPLS-2005>
185.433609008789

> <r_mmod_Stretch_Energy-OPLS-2005>
55.9905433654785

> <r_mmod_Bend_Energy-OPLS-2005>
190.776840209961

> <r_mmod_Torsional_Energy-OPLS-2005>
367.889678955078

> <r_mmod_Improper_Torsional_Energy-OPLS-2005>
9.04568195343018

> <r_mmod_Van_der_Waal_Energy-OPLS-2005>
177.936004638672

> <r_mmod_Electrostatic_Energy-OPLS-2005>
-234.030014038086

> <r_mmod_Solvation_Energy-OPLS-2005>
-419.984497070312

> <b_mmod_Minimization_Converged-OPLS-2005>
0

> <r_mmod_RMS_Derivative-OPLS-2005>
2.4721519947052

$$$$
27
                    3D
 Structure written by MMmdl.
167176  0  0  1  0            999 V2000
  -30.7118  -14.4099   20.6652 C   0  0  0  0  0  0
  -30.4342  -12.3073   19.3877 C   0  0  0  0  0  0
  -29.4913  -12.5258   18.1874 C   0  0  0  0  0  0
  -28.0131  -12.3777   18.6000 C   0  0  0  0  0  0
  -27.6687  -13.1950   19.8731 C   0  0  2  0  0  0
  -28.7056  -12.9138   20.9819 C   0  0  0  0  0  0
  -25.2633  -13.8133   20.5611 C   0  0  0  0  0  0
  -24.1870  -13.0428   20.9116 C   0  0  0  0  0  0
  -24.6402  -11.6885   20.8672 C   0  0  0  0  0  0
  -23.9052  -10.4277   21.0372 C   0  0  0  0  0  0
  -24.3605   -9.4196   21.9161 C   0  0  0  0  0  0
  -23.6272   -8.2245   22.0753 C   0  0  0  0  0  0
  -22.4255   -8.0284   21.3549 C   0  0  0  0  0  0
  -21.9879   -9.0252   20.4664 C   0  0  0  0  0  0
  -22.7214  -10.2122   20.3048 C   0  0  0  0  0  0
  -21.6856   -6.0725   22.5265 C   0  0  0  0  0  0
  -21.4029   -6.5629   23.8199 C   0  0  0  0  0  0
  -21.3647   -5.6779   24.9157 C   0  0  0  0  0  0
  -21.6034   -4.3042   24.7216 C   0  0  0  0  0  0
  -21.8824   -3.8141   23.4338 C   0  0  0  0  0  0
  -21.9200   -4.6953   22.3393 C   0  0  0  0  0  0
  -22.7897  -13.5251   21.1803 C   0  0  0  0  0  0
  -22.1670   -4.2139   21.0967 F   0  0  0  0  0  0
  -21.5608   -3.4524   25.7729 F   0  0  0  0  0  0
  -30.0469  -13.2415   20.4548 N   0  0  0  0  0  0
  -26.3060  -12.9281   20.3310 N   0  0  0  0  0  0
  -25.9320  -11.6445   20.5685 N   0  0  0  0  0  0
  -22.0544  -12.8269   22.0386 N   0  0  0  0  0  0
  -25.4378  -15.1847   20.4015 N   0  0  0  0  0  0
  -31.7562  -14.7165   20.0808 O   0  0  0  0  0  0
  -21.6638   -6.8869   21.4234 O   0  0  0  0  0  0
  -22.3573  -14.5552   20.6645 O   0  0  0  0  0  0
  -24.6149  -31.8681   23.2127 C   0  0  0  0  0  0
  -25.9041  -32.4830   23.8413 C   0  0  1  0  0  0
  -27.2376  -27.4390   20.0683 C   0  0  0  0  0  0
  -25.5893  -33.8626   24.2339 N   0  0  0  0  0  0
  -23.4016  -30.4963   21.5531 C   0  0  2  0  0  0
  -24.8438  -28.9634   20.1177 C   0  0  0  0  0  0
  -22.7399  -29.4665   22.4979 C   0  0  0  0  0  0
  -18.0267  -28.1389   22.8487 C   0  0  0  0  0  0
  -24.1477  -36.7314   23.2637 C   0  0  0  0  0  0
  -25.9325  -30.8346   21.3646 C   0  0  0  0  0  0
  -26.0071  -29.4701   20.7078 C   0  0  0  0  0  0
  -27.2017  -28.7134   20.6835 C   0  0  0  0  0  0
  -26.0358  -26.9304   19.5156 C   0  0  0  0  0  0
  -24.8511  -27.6895   19.5282 C   0  0  0  0  0  0
  -23.6098  -29.8360   20.1656 C   0  0  0  0  0  0
  -25.4096  -36.3113   24.0341 C   0  0  1  0  0  0
  -20.5858  -28.3667   23.1312 C   0  0  2  0  0  0
  -20.6757  -26.9399   22.5422 C   0  0  0  0  0  0
  -19.5741  -26.6393   21.5209 C   0  0  0  0  0  0
  -18.1918  -26.7933   22.1621 C   0  0  0  0  0  0
  -19.1521  -28.8839   23.2905 C   0  0  0  0  0  0
  -18.9447  -30.1440   23.8932 C   0  0  0  0  0  0
  -17.6455  -30.6587   24.0578 C   0  0  0  0  0  0
  -25.9029  -34.9483   23.5138 C   0  0  0  0  0  0
  -16.5345  -29.9105   23.6319 C   0  0  0  0  0  0
  -16.7260  -28.6522   23.0333 C   0  0  0  0  0  0
  -26.4468  -31.6614   25.0740 C   0  0  0  0  0  0
  -25.3746  -31.3759   26.1511 C   0  0  0  0  0  0
  -27.0263  -30.3037   24.6130 C   0  0  0  0  0  0
  -27.6062  -32.4327   25.7473 C   0  0  0  0  0  0
  -27.5578  -37.1800   24.8454 C   0  0  0  0  0  0
  -21.4127  -29.3038   22.3713 N   0  0  0  0  0  0
  -26.4277  -37.3802   23.9420 N   0  0  0  0  0  0
  -24.6685  -31.0796   22.1022 N   0  0  0  0  0  0
  -23.4170  -28.8193   23.3006 O   0  0  0  0  0  0
  -28.4371  -26.7461   20.0614 O   0  0  0  0  0  0
  -26.5597  -34.8926   22.4703 O   0  0  0  0  0  0
  -23.5346  -32.1426   23.7530 O   0  0  0  0  0  0
  -29.9165  -17.5922   21.0879 C   0  0  0  0  0  0
  -30.9257  -18.1931   23.6267 C   0  0  0  0  0  0
  -29.9147  -18.9461   21.5196 C   0  0  0  0  0  0
  -30.4047  -19.2338   22.8279 C   0  0  0  0  0  0
  -30.9054  -16.8559   23.1904 C   0  0  0  0  0  0
  -30.3849  -16.5489   21.9177 C   0  0  0  0  0  0
  -29.7498  -21.4420   20.5915 C   0  0  0  0  0  0
  -28.9332  -20.7372   18.4425 C   0  0  0  0  0  0
  -29.2468  -19.9817   20.5900 C   0  0  1  0  0  0
  -29.5539  -21.9478   19.1535 C   0  0  1  0  0  0
  -30.3512  -20.6154   23.4623 C   0  0  0  0  0  0
  -31.3942  -15.7576   24.1177 C   0  0  0  0  0  0
  -29.1225  -24.3813   19.7779 C   0  0  0  0  0  0
  -28.6718  -25.7003   19.1003 C   0  0  0  0  0  0
  -30.1321  -15.1932   21.5876 N   0  0  0  0  0  0
  -28.7227  -23.1775   18.9956 N   0  3  0  0  0  0
  -29.3673  -19.6255   19.2170 O   0  0  0  0  0  0
  -31.4726  -12.4382   19.0792 H   0  0  0  0  0  0
  -30.3626  -11.2800   19.7477 H   0  0  0  0  0  0
  -29.7261  -11.8172   17.3918 H   0  0  0  0  0  0
  -29.6564  -13.5183   17.7672 H   0  0  0  0  0  0
  -27.8197  -11.3184   18.7737 H   0  0  0  0  0  0
  -27.3660  -12.6737   17.7733 H   0  0  0  0  0  0
  -27.7307  -14.2507   19.6072 H   0  0  0  0  0  0
  -28.6792  -11.8575   21.2546 H   0  0  0  0  0  0
  -28.4389  -13.4421   21.8966 H   0  0  0  0  0  0
  -25.2747   -9.5660   22.4729 H   0  0  0  0  0  0
  -23.9967   -7.4637   22.7473 H   0  0  0  0  0  0
  -21.0796   -8.8777   19.8987 H   0  0  0  0  0  0
  -22.3664  -10.9657   19.6159 H   0  0  0  0  0  0
  -21.2046   -7.6135   23.9706 H   0  0  0  0  0  0
  -21.1456   -6.0506   25.9054 H   0  0  0  0  0  0
  -22.0625   -2.7606   23.2852 H   0  0  0  0  0  0
  -22.4149  -11.9909   22.4742 H   0  0  0  0  0  0
  -21.1201  -13.1360   22.2645 H   0  0  0  0  0  0
  -24.6746  -15.8449   20.5018 H   0  0  0  0  0  0
  -26.2975  -15.6195   20.0894 H   0  0  0  0  0  0
  -26.7109  -32.5538   23.1174 H   0  0  0  0  0  0
  -25.0033  -33.9794   25.0476 H   0  0  0  0  0  0
  -22.6906  -31.3142   21.4195 H   0  0  0  0  0  0
  -23.3741  -35.9646   23.3302 H   0  0  0  0  0  0
  -24.3573  -36.8926   22.2051 H   0  0  0  0  0  0
  -23.7230  -37.6517   23.6653 H   0  0  0  0  0  0
  -26.0469  -31.6044   20.6000 H   0  0  0  0  0  0
  -26.8199  -30.8841   21.9841 H   0  0  0  0  0  0
  -28.1044  -29.1087   21.1285 H   0  0  0  0  0  0
  -25.9634  -25.9428   19.0877 H   0  0  0  0  0  0
  -23.9475  -27.2823   19.0954 H   0  0  0  0  0  0
  -23.7281  -30.6173   19.4135 H   0  0  0  0  0  0
  -22.7291  -29.2687   19.8598 H   0  0  0  0  0  0
  -25.1272  -36.1981   25.0835 H   0  0  0  0  0  0
  -20.9960  -28.3251   24.1426 H   0  0  0  0  0  0
  -20.5634  -26.2279   23.3611 H   0  0  0  0  0  0
  -21.6637  -26.7431   22.1239 H   0  0  0  0  0  0
  -19.6904  -25.6314   21.1214 H   0  0  0  0  0  0
  -19.6679  -27.3218   20.6753 H   0  0  0  0  0  0
  -17.4179  -26.6662   21.4034 H   0  0  0  0  0  0
  -18.0327  -26.0080   22.9022 H   0  0  0  0  0  0
  -19.7922  -30.7238   24.2329 H   0  0  0  0  0  0
  -17.5012  -31.6263   24.5190 H   0  0  0  0  0  0
  -15.5350  -30.3022   23.7630 H   0  0  0  0  0  0
  -15.8651  -28.0865   22.7024 H   0  0  0  0  0  0
  -24.5903  -30.7101   25.7894 H   0  0  0  0  0  0
  -24.8954  -32.2931   26.4948 H   0  0  0  0  0  0
  -25.8111  -30.8959   27.0275 H   0  0  0  0  0  0
  -26.2789  -29.6823   24.1176 H   0  0  0  0  0  0
  -27.3989  -29.7268   25.4603 H   0  0  0  0  0  0
  -27.8659  -30.4324   23.9294 H   0  0  0  0  0  0
  -27.2700  -33.3616   26.2092 H   0  0  0  0  0  0
  -28.3834  -32.6905   25.0267 H   0  0  0  0  0  0
  -28.0768  -31.8429   26.5347 H   0  0  0  0  0  0
  -28.2606  -38.0088   24.7508 H   0  0  0  0  0  0
  -28.1061  -36.2628   24.6255 H   0  0  0  0  0  0
  -27.2310  -37.1433   25.8859 H   0  0  0  0  0  0
  -20.9267  -29.8776   21.6965 H   0  0  0  0  0  0
  -26.0168  -38.2871   24.1459 H   0  0  0  0  0  0
  -29.4787  -17.3421   20.1321 H   0  0  0  0  0  0
  -31.2979  -18.4140   24.6180 H   0  0  0  0  0  0
  -30.8162  -21.4796   20.8148 H   0  0  0  0  0  0
  -29.2261  -22.0442   21.3336 H   0  0  0  0  0  0
  -29.2468  -20.6544   17.4011 H   0  0  0  0  0  0
  -27.8424  -20.7731   18.4639 H   0  0  0  0  0  0
  -28.1830  -19.9839   20.8359 H   0  0  0  0  0  0
  -30.5365  -22.1355   18.7164 H   0  0  0  0  0  0
  -30.5401  -20.5591   24.5345 H   0  0  0  0  0  0
  -29.3682  -21.0703   23.3505 H   0  0  0  0  0  0
  -31.1112  -21.2736   23.0435 H   0  0  0  0  0  0
  -31.8810  -16.1650   25.0039 H   0  0  0  0  0  0
  -32.1121  -15.1181   23.6029 H   0  0  0  0  0  0
  -30.5574  -15.1407   24.4452 H   0  0  0  0  0  0
  -28.6770  -24.3029   20.7694 H   0  0  0  0  0  0
  -30.2040  -24.4010   19.9201 H   0  0  0  0  0  0
  -27.8415  -25.5187   18.4241 H   0  0  0  0  0  0
  -29.4709  -26.0413   18.4413 H   0  0  0  0  0  0
  -29.3563  -14.7631   22.0689 H   0  0  0  0  0  0
  -27.7579  -22.9653   19.2047 H   0  0  0  0  0  0
  -28.7526  -23.4230   18.0163 H   0  0  0  0  0  0
  1 25  1  0  0  0
  1 30  2  0  0  0
  1 85  1  0  0  0
  2  3  1  0  0  0
  2 25  1  0  0  0
  2 88  1  0  0  0
  2 89  1  0  0  0
  3  4  1  0  0  0
  3 90  1  0  0  0
  3 91  1  0  0  0
  4  5  1  0  0  0
  4 92  1  0  0  0
  4 93  1  0  0  0
  5  6  1  0  0  0
  5 26  1  0  0  0
  5 94  1  0  0  0
  6 25  1  0  0  0
  6 95  1  0  0  0
  6 96  1  0  0  0
  7  8  2  0  0  0
  7 26  1  0  0  0
  7 29  1  0  0  0
  8  9  1  0  0  0
  8 22  1  0  0  0
  9 10  1  0  0  0
  9 27  2  0  0  0
 10 11  2  0  0  0
 10 15  1  0  0  0
 11 12  1  0  0  0
 11 97  1  0  0  0
 12 13  2  0  0  0
 12 98  1  0  0  0
 13 14  1  0  0  0
 13 31  1  0  0  0
 14 15  2  0  0  0
 14 99  1  0  0  0
 15100  1  0  0  0
 16 17  2  0  0  0
 16 21  1  0  0  0
 16 31  1  0  0  0
 17 18  1  0  0  0
 17101  1  0  0  0
 18 19  2  0  0  0
 18102  1  0  0  0
 19 20  1  0  0  0
 19 24  1  0  0  0
 20 21  2  0  0  0
 20103  1  0  0  0
 21 23  1  0  0  0
 22 28  1  0  0  0
 22 32  2  0  0  0
 26 27  1  0  0  0
 28104  1  0  0  0
 28105  1  0  0  0
 29106  1  0  0  0
 29107  1  0  0  0
 33 34  1  0  0  0
 33 66  1  0  0  0
 33 70  2  0  0  0
 34 36  1  0  0  0
 34 59  1  0  0  0
 34108  1  0  0  0
 35 44  2  0  0  0
 35 45  1  0  0  0
 35 68  1  0  0  0
 36 56  1  0  0  0
 36109  1  0  0  0
 37 39  1  0  0  0
 37 47  1  0  0  0
 37 66  1  0  0  0
 37110  1  0  0  0
 38 43  2  0  0  0
 38 46  1  0  0  0
 38 47  1  0  0  0
 39 64  1  0  0  0
 39 67  2  0  0  0
 40 52  1  0  0  0
 40 53  2  0  0  0
 40 58  1  0  0  0
 41111  1  0  0  0
 41112  1  0  0  0
 41113  1  0  0  0
 41 48  1  0  0  0
 42 43  1  0  0  0
 42 66  1  0  0  0
 42114  1  0  0  0
 42115  1  0  0  0
 43 44  1  0  0  0
 44116  1  0  0  0
 45 46  2  0  0  0
 45117  1  0  0  0
 46118  1  0  0  0
 47119  1  0  0  0
 47120  1  0  0  0
 48 56  1  0  0  0
 48 65  1  0  0  0
 48121  1  0  0  0
 49 50  1  0  0  0
 49 53  1  0  0  0
 49 64  1  0  0  0
 49122  1  0  0  0
 50 51  1  0  0  0
 50123  1  0  0  0
 50124  1  0  0  0
 51 52  1  0  0  0
 51125  1  0  0  0
 51126  1  0  0  0
 52127  1  0  0  0
 52128  1  0  0  0
 53 54  1  0  0  0
 54 55  2  0  0  0
 54129  1  0  0  0
 55 57  1  0  0  0
 55130  1  0  0  0
 56 69  2  0  0  0
 57 58  2  0  0  0
 57131  1  0  0  0
 58132  1  0  0  0
 59 60  1  0  0  0
 59 61  1  0  0  0
 59 62  1  0  0  0
 60133  1  0  0  0
 60134  1  0  0  0
 60135  1  0  0  0
 61136  1  0  0  0
 61137  1  0  0  0
 61138  1  0  0  0
 62139  1  0  0  0
 62140  1  0  0  0
 62141  1  0  0  0
 63 65  1  0  0  0
 63142  1  0  0  0
 63143  1  0  0  0
 63144  1  0  0  0
 64145  1  0  0  0
 65146  1  0  0  0
 68 84  1  0  0  0
 71 73  2  0  0  0
 71 76  1  0  0  0
 71147  1  0  0  0
 72 74  2  0  0  0
 72 75  1  0  0  0
 72148  1  0  0  0
 73 74  1  0  0  0
 73 79  1  0  0  0
 74 81  1  0  0  0
 75 76  2  0  0  0
 75 82  1  0  0  0
 76 85  1  0  0  0
 77 79  1  0  0  0
 77 80  1  0  0  0
 77149  1  0  0  0
 77150  1  0  0  0
 78 80  1  0  0  0
 78 87  1  0  0  0
 78151  1  0  0  0
 78152  1  0  0  0
 79 87  1  0  0  0
 79153  1  0  0  0
 80 86  1  0  0  0
 80154  1  0  0  0
 81155  1  0  0  0
 81156  1  0  0  0
 81157  1  0  0  0
 82158  1  0  0  0
 82159  1  0  0  0
 82160  1  0  0  0
 83 84  1  0  0  0
 83 86  1  0  0  0
 83161  1  0  0  0
 83162  1  0  0  0
 84163  1  0  0  0
 84164  1  0  0  0
 85165  1  0  0  0
 86166  1  0  0  0
 86167  1  0  0  0
M  CHG  1  86   1
M  ISO  4   1 100  68 101  84 101  85 100
M  END
> <chiral flag>
0

> <version>
0

> <s_m_source_file>
/data/baiqing/PycharmProjects/Reinvent-master-3.2/result/LINK_invent/BTK/process_docking_weight1_custom_sum_contain_oxygen_bond_distance_aromatic_linkinvent_7_9_3/rearranged_h_0161.sdf

> <i_m_source_file_index>
28

> <r_mmod_Potential_Energy-OPLS-2005>
-63.6412734985352

> <r_mmod_Stretch_Energy-OPLS-2005>
39.5130043029785

> <r_mmod_Bend_Energy-OPLS-2005>
132.098587036133

> <r_mmod_Torsional_Energy-OPLS-2005>
297.974212646484

> <r_mmod_Improper_Torsional_Energy-OPLS-2005>
3.76355791091919

> <r_mmod_Van_der_Waal_Energy-OPLS-2005>
159.552337646484

> <r_mmod_Electrostatic_Energy-OPLS-2005>
-249.19010925293

> <r_mmod_Solvation_Energy-OPLS-2005>
-457.252258300781

> <b_mmod_Minimization_Converged-OPLS-2005>
0

> <r_mmod_RMS_Derivative-OPLS-2005>
2.26263213157654

$$$$
28
                    3D
 Structure written by MMmdl.
174183  0  0  1  0            999 V2000
  -30.6620  -14.4749   20.5067 C   0  0  0  0  0  0
  -30.4162  -12.2880   19.4189 C   0  0  0  0  0  0
  -29.4903  -12.5145   18.2056 C   0  0  0  0  0  0
  -28.0050  -12.3851   18.6072 C   0  0  0  0  0  0
  -27.6536  -13.1836   19.8932 C   0  0  2  0  0  0
  -28.7089  -12.9432   20.9984 C   0  0  0  0  0  0
  -25.2588  -13.8089   20.5689 C   0  0  0  0  0  0
  -24.1788  -13.0404   20.9169 C   0  0  0  0  0  0
  -24.6300  -11.6872   20.8757 C   0  0  0  0  0  0
  -23.8963  -10.4274   21.0459 C   0  0  0  0  0  0
  -24.3525   -9.4216   21.9250 C   0  0  0  0  0  0
  -23.6225   -8.2226   22.0781 C   0  0  0  0  0  0
  -22.4225   -8.0253   21.3569 C   0  0  0  0  0  0
  -21.9860   -9.0217   20.4660 C   0  0  0  0  0  0
  -22.7151  -10.2122   20.3090 C   0  0  0  0  0  0
  -21.6796   -6.0720   22.5280 C   0  0  0  0  0  0
  -21.3964   -6.5626   23.8215 C   0  0  0  0  0  0
  -21.3667   -5.6798   24.9187 C   0  0  0  0  0  0
  -21.6075   -4.3057   24.7224 C   0  0  0  0  0  0
  -21.8813   -3.8151   23.4344 C   0  0  0  0  0  0
  -21.9151   -4.6969   22.3394 C   0  0  0  0  0  0
  -22.7842  -13.5236   21.1868 C   0  0  0  0  0  0
  -22.1605   -4.2170   21.0962 F   0  0  0  0  0  0
  -21.5675   -3.4538   25.7730 F   0  0  0  0  0  0
  -30.0360  -13.2656   20.4479 N   0  0  0  0  0  0
  -26.2967  -12.9170   20.3493 N   0  0  0  0  0  0
  -25.9220  -11.6369   20.5817 N   0  0  0  0  0  0
  -22.0425  -12.8204   22.0367 N   0  0  0  0  0  0
  -25.4462  -15.1785   20.4024 N   0  0  0  0  0  0
  -31.8297  -14.6310   20.1375 O   0  0  0  0  0  0
  -21.6579   -6.8866   21.4243 O   0  0  0  0  0  0
  -22.3595  -14.5586   20.6762 O   0  0  0  0  0  0
  -24.6122  -31.8670   23.2100 C   0  0  0  0  0  0
  -25.9006  -32.4825   23.8404 C   0  0  1  0  0  0
  -27.2474  -27.4333   20.1120 C   0  0  0  0  0  0
  -25.5872  -33.8631   24.2337 N   0  0  0  0  0  0
  -23.4048  -30.4862   21.5460 C   0  0  2  0  0  0
  -24.8560  -28.9505   20.1117 C   0  0  0  0  0  0
  -22.7426  -29.4620   22.4954 C   0  0  0  0  0  0
  -18.0283  -28.1401   22.8508 C   0  0  0  0  0  0
  -24.1473  -36.7307   23.2646 C   0  0  0  0  0  0
  -25.9305  -30.8334   21.3610 C   0  0  0  0  0  0
  -26.0107  -29.4653   20.7137 C   0  0  0  0  0  0
  -27.2033  -28.7081   20.7220 C   0  0  0  0  0  0
  -26.0721  -26.9219   19.5203 C   0  0  0  0  0  0
  -24.8801  -27.6755   19.5163 C   0  0  0  0  0  0
  -23.6179  -29.8202   20.1586 C   0  0  0  0  0  0
  -25.4099  -36.3118   24.0337 C   0  0  1  0  0  0
  -20.5876  -28.3676   23.1316 C   0  0  2  0  0  0
  -20.6760  -26.9398   22.5453 C   0  0  0  0  0  0
  -19.5748  -26.6407   21.5237 C   0  0  0  0  0  0
  -18.1915  -26.7963   22.1610 C   0  0  0  0  0  0
  -19.1531  -28.8850   23.2911 C   0  0  0  0  0  0
  -18.9460  -30.1465   23.8901 C   0  0  0  0  0  0
  -17.6470  -30.6603   24.0581 C   0  0  0  0  0  0
  -25.9029  -34.9476   23.5152 C   0  0  0  0  0  0
  -16.5369  -29.9111   23.6323 C   0  0  0  0  0  0
  -16.7285  -28.6537   23.0336 C   0  0  0  0  0  0
  -26.4427  -31.6593   25.0735 C   0  0  0  0  0  0
  -25.3708  -31.3608   26.1479 C   0  0  0  0  0  0
  -27.0287  -30.3068   24.6061 C   0  0  0  0  0  0
  -27.5983  -32.4319   25.7519 C   0  0  0  0  0  0
  -27.5593  -37.1796   24.8463 C   0  0  0  0  0  0
  -21.4149  -29.3026   22.3697 N   0  0  0  0  0  0
  -26.4280  -37.3821   23.9445 N   0  0  0  0  0  0
  -24.6672  -31.0777   22.0982 N   0  0  0  0  0  0
  -23.4211  -28.8157   23.2989 O   0  0  0  0  0  0
  -28.4156  -26.7013   20.1624 O   0  0  0  0  0  0
  -26.5616  -34.8936   22.4727 O   0  0  0  0  0  0
  -23.5295  -32.1389   23.7481 O   0  0  0  0  0  0
  -29.2810  -21.6673   18.9943 C   0  0  0  0  0  0
  -29.8697  -22.3912   20.0483 C   0  0  0  0  0  0
  -28.5589  -22.2941   17.9725 C   0  0  0  0  0  0
  -29.7149  -23.8195   20.0714 C   0  0  0  0  0  0
  -28.3957  -23.7033   17.9819 C   0  0  0  0  0  0
  -28.9568  -24.4805   19.0428 C   0  0  0  0  0  0
  -30.7285  -21.5880   21.0085 C   0  0  0  0  0  0
  -29.5293  -17.4337   22.6961 C   0  0  0  0  0  0
  -30.2500  -18.6870   23.2090 C   0  0  0  0  0  0
  -31.0749  -18.1240   20.9715 C   0  0  0  0  0  0
  -30.4835  -16.8542   21.6472 C   0  0  2  0  0  0
  -30.9669  -19.2857   21.9884 C   0  0  1  0  0  0
  -28.0224  -21.4096   16.8539 C   0  0  0  0  0  0
  -30.3620  -24.6515   21.1820 C   0  0  0  0  0  0
  -27.6690  -24.3746   16.8146 C   0  0  0  0  0  0
  -29.3488  -16.3059   19.3790 C   0  0  0  0  0  0
  -28.8581  -26.0308   18.9758 C   0  0  0  0  0  0
  -29.8135  -15.7577   20.7486 C   0  0  1  0  0  0
  -30.2108  -20.4141   21.4205 N   0  0  0  0  0  0
  -31.8677  -21.9479   21.3058 O   0  0  0  0  0  0
  -31.4602  -12.3718   19.1218 H   0  0  0  0  0  0
  -30.2898  -11.2741   19.7990 H   0  0  0  0  0  0
  -29.7232  -11.8020   17.4136 H   0  0  0  0  0  0
  -29.6760  -13.5032   17.7866 H   0  0  0  0  0  0
  -27.7899  -11.3260   18.7586 H   0  0  0  0  0  0
  -27.3731  -12.7115   17.7806 H   0  0  0  0  0  0
  -27.6703  -14.2310   19.6303 H   0  0  0  0  0  0
  -28.6865  -11.8943   21.3039 H   0  0  0  0  0  0
  -28.4946  -13.5043   21.9048 H   0  0  0  0  0  0
  -25.2646   -9.5699   22.4878 H   0  0  0  0  0  0
  -23.9950   -7.4589   22.7484 H   0  0  0  0  0  0
  -21.0814   -8.8678   19.8922 H   0  0  0  0  0  0
  -22.3576  -10.9659   19.6203 H   0  0  0  0  0  0
  -21.1903   -7.6118   23.9711 H   0  0  0  0  0  0
  -21.1515   -6.0540   25.9103 H   0  0  0  0  0  0
  -22.0571   -2.7619   23.2818 H   0  0  0  0  0  0
  -22.3879  -11.9747   22.4674 H   0  0  0  0  0  0
  -21.1112  -13.1372   22.2629 H   0  0  0  0  0  0
  -24.7056  -15.8617   20.5073 H   0  0  0  0  0  0
  -26.3222  -15.5921   20.1064 H   0  0  0  0  0  0
  -26.7107  -32.5554   23.1191 H   0  0  0  0  0  0
  -25.0022  -33.9823   25.0473 H   0  0  0  0  0  0
  -22.6918  -31.3002   21.4033 H   0  0  0  0  0  0
  -23.3815  -35.9559   23.3202 H   0  0  0  0  0  0
  -24.3585  -36.9057   22.2089 H   0  0  0  0  0  0
  -23.7128  -37.6426   23.6754 H   0  0  0  0  0  0
  -26.0357  -31.5962   20.5883 H   0  0  0  0  0  0
  -26.8195  -30.8948   21.9766 H   0  0  0  0  0  0
  -28.0918  -29.0956   21.2014 H   0  0  0  0  0  0
  -26.0667  -25.9255   19.1028 H   0  0  0  0  0  0
  -23.9851  -27.2607   19.0742 H   0  0  0  0  0  0
  -23.7331  -30.6002   19.4053 H   0  0  0  0  0  0
  -22.7425  -29.2457   19.8520 H   0  0  0  0  0  0
  -25.1256  -36.1983   25.0828 H   0  0  0  0  0  0
  -20.9977  -28.3286   24.1434 H   0  0  0  0  0  0
  -20.5682  -26.2283   23.3653 H   0  0  0  0  0  0
  -21.6624  -26.7410   22.1262 H   0  0  0  0  0  0
  -19.6903  -25.6328   21.1254 H   0  0  0  0  0  0
  -19.6714  -27.3226   20.6781 H   0  0  0  0  0  0
  -17.4220  -26.6798   21.3977 H   0  0  0  0  0  0
  -18.0219  -26.0072   22.8944 H   0  0  0  0  0  0
  -19.7929  -30.7285   24.2265 H   0  0  0  0  0  0
  -17.5016  -31.6248   24.5235 H   0  0  0  0  0  0
  -15.5375  -30.3013   23.7599 H   0  0  0  0  0  0
  -15.8711  -28.0874   22.6980 H   0  0  0  0  0  0
  -24.6065  -30.6715   25.7854 H   0  0  0  0  0  0
  -24.8660  -32.2685   26.4801 H   0  0  0  0  0  0
  -25.8146  -30.8988   27.0314 H   0  0  0  0  0  0
  -26.2812  -29.6848   24.1132 H   0  0  0  0  0  0
  -27.4107  -29.7266   25.4472 H   0  0  0  0  0  0
  -27.8603  -30.4446   23.9144 H   0  0  0  0  0  0
  -27.2647  -33.3711   26.1934 H   0  0  0  0  0  0
  -28.3888  -32.6725   25.0406 H   0  0  0  0  0  0
  -28.0514  -31.8532   26.5575 H   0  0  0  0  0  0
  -28.2532  -38.0167   24.7641 H   0  0  0  0  0  0
  -28.1171  -36.2704   24.6155 H   0  0  0  0  0  0
  -27.2336  -37.1307   25.8867 H   0  0  0  0  0  0
  -20.9316  -29.8790   21.6946 H   0  0  0  0  0  0
  -26.0165  -38.2879   24.1561 H   0  0  0  0  0  0
  -29.4301  -20.5965   18.9430 H   0  0  0  0  0  0
  -28.5792  -17.7050   22.2339 H   0  0  0  0  0  0
  -29.3121  -16.7263   23.4976 H   0  0  0  0  0  0
  -31.0002  -18.3762   23.9383 H   0  0  0  0  0  0
  -29.5893  -19.3881   23.7189 H   0  0  0  0  0  0
  -30.5234  -18.4184   20.0809 H   0  0  0  0  0  0
  -32.1053  -17.9596   20.6492 H   0  0  0  0  0  0
  -31.2983  -16.3918   22.2059 H   0  0  0  0  0  0
  -31.9670  -19.6112   22.2797 H   0  0  0  0  0  0
  -28.0972  -20.3512   17.1106 H   0  0  0  0  0  0
  -28.5926  -21.5679   15.9381 H   0  0  0  0  0  0
  -26.9714  -21.6113   16.6507 H   0  0  0  0  0  0
  -29.7135  -24.6737   22.0590 H   0  0  0  0  0  0
  -30.5639  -25.6771   20.8850 H   0  0  0  0  0  0
  -31.3292  -24.2748   21.5007 H   0  0  0  0  0  0
  -27.3694  -23.6908   16.0241 H   0  0  0  0  0  0
  -28.3233  -25.1028   16.3373 H   0  0  0  0  0  0
  -26.7634  -24.8772   17.1515 H   0  0  0  0  0  0
  -28.5637  -17.0507   19.5044 H   0  0  0  0  0  0
  -28.9614  -15.5380   18.7143 H   0  0  0  0  0  0
  -30.1674  -16.7487   18.8109 H   0  0  0  0  0  0
  -28.2902  -26.3975   18.1232 H   0  0  0  0  0  0
  -29.8708  -26.3887   18.7812 H   0  0  0  0  0  0
  -28.9106  -15.4650   21.2770 H   0  0  0  0  0  0
  -29.2499  -20.2340   21.1626 H   0  0  0  0  0  0
  1 25  1  0  0  0
  1 30  2  0  0  0
  1 88  1  0  0  0
  2  3  1  0  0  0
  2 25  1  0  0  0
  2 91  1  0  0  0
  2 92  1  0  0  0
  3  4  1  0  0  0
  3 93  1  0  0  0
  3 94  1  0  0  0
  4  5  1  0  0  0
  4 95  1  0  0  0
  4 96  1  0  0  0
  5  6  1  0  0  0
  5 26  1  0  0  0
  5 97  1  0  0  0
  6 25  1  0  0  0
  6 98  1  0  0  0
  6 99  1  0  0  0
  7  8  2  0  0  0
  7 26  1  0  0  0
  7 29  1  0  0  0
  8  9  1  0  0  0
  8 22  1  0  0  0
  9 10  1  0  0  0
  9 27  2  0  0  0
 10 11  2  0  0  0
 10 15  1  0  0  0
 11 12  1  0  0  0
 11100  1  0  0  0
 12 13  2  0  0  0
 12101  1  0  0  0
 13 14  1  0  0  0
 13 31  1  0  0  0
 14 15  2  0  0  0
 14102  1  0  0  0
 15103  1  0  0  0
 16 17  2  0  0  0
 16 21  1  0  0  0
 16 31  1  0  0  0
 17 18  1  0  0  0
 17104  1  0  0  0
 18 19  2  0  0  0
 18105  1  0  0  0
 19 20  1  0  0  0
 19 24  1  0  0  0
 20 21  2  0  0  0
 20106  1  0  0  0
 21 23  1  0  0  0
 22 28  1  0  0  0
 22 32  2  0  0  0
 26 27  1  0  0  0
 28107  1  0  0  0
 28108  1  0  0  0
 29109  1  0  0  0
 29110  1  0  0  0
 33 34  1  0  0  0
 33 66  1  0  0  0
 33 70  2  0  0  0
 34 36  1  0  0  0
 34 59  1  0  0  0
 34111  1  0  0  0
 35 44  2  0  0  0
 35 45  1  0  0  0
 35 68  1  0  0  0
 36 56  1  0  0  0
 36112  1  0  0  0
 37 39  1  0  0  0
 37 47  1  0  0  0
 37 66  1  0  0  0
 37113  1  0  0  0
 38 43  2  0  0  0
 38 46  1  0  0  0
 38 47  1  0  0  0
 39 64  1  0  0  0
 39 67  2  0  0  0
 40 52  1  0  0  0
 40 53  2  0  0  0
 40 58  1  0  0  0
 41114  1  0  0  0
 41115  1  0  0  0
 41116  1  0  0  0
 41 48  1  0  0  0
 42 43  1  0  0  0
 42 66  1  0  0  0
 42117  1  0  0  0
 42118  1  0  0  0
 43 44  1  0  0  0
 44119  1  0  0  0
 45 46  2  0  0  0
 45120  1  0  0  0
 46121  1  0  0  0
 47122  1  0  0  0
 47123  1  0  0  0
 48 56  1  0  0  0
 48 65  1  0  0  0
 48124  1  0  0  0
 49 50  1  0  0  0
 49 53  1  0  0  0
 49 64  1  0  0  0
 49125  1  0  0  0
 50 51  1  0  0  0
 50126  1  0  0  0
 50127  1  0  0  0
 51 52  1  0  0  0
 51128  1  0  0  0
 51129  1  0  0  0
 52130  1  0  0  0
 52131  1  0  0  0
 53 54  1  0  0  0
 54 55  2  0  0  0
 54132  1  0  0  0
 55 57  1  0  0  0
 55133  1  0  0  0
 56 69  2  0  0  0
 57 58  2  0  0  0
 57134  1  0  0  0
 58135  1  0  0  0
 59 60  1  0  0  0
 59 61  1  0  0  0
 59 62  1  0  0  0
 60136  1  0  0  0
 60137  1  0  0  0
 60138  1  0  0  0
 61139  1  0  0  0
 61140  1  0  0  0
 61141  1  0  0  0
 62142  1  0  0  0
 62143  1  0  0  0
 62144  1  0  0  0
 63 65  1  0  0  0
 63145  1  0  0  0
 63146  1  0  0  0
 63147  1  0  0  0
 64148  1  0  0  0
 65149  1  0  0  0
 68 87  1  0  0  0
 71 72  2  0  0  0
 71 73  1  0  0  0
 71150  1  0  0  0
 72 74  1  0  0  0
 72 77  1  0  0  0
 73 75  2  0  0  0
 73 83  1  0  0  0
 74 76  2  0  0  0
 74 84  1  0  0  0
 75 76  1  0  0  0
 75 85  1  0  0  0
 76 87  1  0  0  0
 77 89  1  0  0  0
 77 90  2  0  0  0
 78 79  1  0  0  0
 78151  1  0  0  0
 78152  1  0  0  0
 78 81  1  0  0  0
 79 82  1  0  0  0
 79153  1  0  0  0
 79154  1  0  0  0
 80 81  1  0  0  0
 80 82  1  0  0  0
 80155  1  0  0  0
 80156  1  0  0  0
 81 88  1  0  0  0
 81157  1  0  0  0
 82 89  1  0  0  0
 82158  1  0  0  0
 83159  1  0  0  0
 83160  1  0  0  0
 83161  1  0  0  0
 84162  1  0  0  0
 84163  1  0  0  0
 84164  1  0  0  0
 85165  1  0  0  0
 85166  1  0  0  0
 85167  1  0  0  0
 86168  1  0  0  0
 86169  1  0  0  0
 86170  1  0  0  0
 86 88  1  0  0  0
 87171  1  0  0  0
 87172  1  0  0  0
 88173  1  0  0  0
 89174  1  0  0  0
M  ISO  4   1 100  68 101  87 101  88 100
M  END
> <chiral flag>
0

> <version>
0

> <s_m_source_file>
/data/baiqing/PycharmProjects/Reinvent-master-3.2/result/LINK_invent/BTK/process_docking_weight1_custom_sum_contain_oxygen_bond_distance_aromatic_linkinvent_7_9_3/rearranged_h_0161.sdf

> <i_m_source_file_index>
29

> <r_mmod_Potential_Energy-OPLS-2005>
116.997131347656

> <r_mmod_Stretch_Energy-OPLS-2005>
50.2248077392578

> <r_mmod_Bend_Energy-OPLS-2005>
138.801910400391

> <r_mmod_Torsional_Energy-OPLS-2005>
277.225158691406

> <r_mmod_Improper_Torsional_Energy-OPLS-2005>
8.70638465881348

> <r_mmod_Van_der_Waal_Energy-OPLS-2005>
177.54411315918

> <r_mmod_Electrostatic_Energy-OPLS-2005>
-339.914093017578

> <r_mmod_Solvation_Energy-OPLS-2005>
-211.81591796875

> <b_mmod_Minimization_Converged-OPLS-2005>
0

> <r_mmod_RMS_Derivative-OPLS-2005>
5.26729679107666

$$$$
29
                    3D
 Structure written by MMmdl.
175184  0  0  1  0            999 V2000
  -30.7875  -14.4569   20.3139 C   0  0  0  0  0  0
  -30.3939  -12.2610   19.4023 C   0  0  0  0  0  0
  -29.4633  -12.4179   18.1872 C   0  0  0  0  0  0
  -27.9934  -12.3145   18.6347 C   0  0  0  0  0  0
  -27.6447  -13.2150   19.8531 C   0  0  2  0  0  0
  -28.7223  -13.1348   20.9558 C   0  0  0  0  0  0
  -25.2545  -13.8143   20.5944 C   0  0  0  0  0  0
  -24.1791  -13.0386   20.9241 C   0  0  0  0  0  0
  -24.6359  -11.6874   20.8809 C   0  0  0  0  0  0
  -23.9033  -10.4245   21.0431 C   0  0  0  0  0  0
  -24.3582   -9.4162   21.9223 C   0  0  0  0  0  0
  -23.6264   -8.2199   22.0779 C   0  0  0  0  0  0
  -22.4257   -8.0237   21.3542 C   0  0  0  0  0  0
  -21.9885   -9.0215   20.4662 C   0  0  0  0  0  0
  -22.7194  -10.2089   20.3091 C   0  0  0  0  0  0
  -21.6832   -6.0698   22.5288 C   0  0  0  0  0  0
  -21.3984   -6.5618   23.8206 C   0  0  0  0  0  0
  -21.3675   -5.6787   24.9192 C   0  0  0  0  0  0
  -21.6054   -4.3058   24.7233 C   0  0  0  0  0  0
  -21.8805   -3.8119   23.4367 C   0  0  0  0  0  0
  -21.9165   -4.6935   22.3407 C   0  0  0  0  0  0
  -22.7806  -13.5199   21.1850 C   0  0  0  0  0  0
  -22.1652   -4.2119   21.1001 F   0  0  0  0  0  0
  -21.5656   -3.4540   25.7752 F   0  0  0  0  0  0
  -30.0282  -13.3379   20.3195 N   0  0  0  0  0  0
  -26.2997  -12.9369   20.3514 N   0  0  0  0  0  0
  -25.9318  -11.6507   20.5896 N   0  0  0  0  0  0
  -22.0396  -12.8255   22.0410 N   0  0  0  0  0  0
  -25.4183  -15.1889   20.4682 N   0  0  0  0  0  0
  -32.0120  -14.4056   20.3799 O   0  0  0  0  0  0
  -21.6625   -6.8838   21.4235 O   0  0  0  0  0  0
  -22.3538  -14.5493   20.6660 O   0  0  0  0  0  0
  -24.6097  -31.8715   23.2176 C   0  0  0  0  0  0
  -25.9026  -32.4836   23.8433 C   0  0  1  0  0  0
  -27.2066  -27.4623   20.0863 C   0  0  0  0  0  0
  -25.5913  -33.8641   24.2362 N   0  0  0  0  0  0
  -23.3919  -30.5013   21.5576 C   0  0  2  0  0  0
  -24.8319  -28.9788   20.1157 C   0  0  0  0  0  0
  -22.7390  -29.4672   22.5018 C   0  0  0  0  0  0
  -18.0267  -28.1365   22.8501 C   0  0  0  0  0  0
  -24.1483  -36.7335   23.2637 C   0  0  0  0  0  0
  -25.9200  -30.8412   21.3731 C   0  0  0  0  0  0
  -25.9951  -29.4813   20.7182 C   0  0  0  0  0  0
  -27.1877  -28.7271   20.7089 C   0  0  0  0  0  0
  -26.0431  -26.9938   19.4428 C   0  0  0  0  0  0
  -24.8495  -27.7292   19.4810 C   0  0  0  0  0  0
  -23.5981  -29.8468   20.1671 C   0  0  0  0  0  0
  -25.4099  -36.3129   24.0353 C   0  0  1  0  0  0
  -20.5861  -28.3640   23.1326 C   0  0  2  0  0  0
  -20.6758  -26.9395   22.5406 C   0  0  0  0  0  0
  -19.5755  -26.6375   21.5199 C   0  0  0  0  0  0
  -18.1922  -26.7913   22.1609 C   0  0  0  0  0  0
  -19.1518  -28.8831   23.2895 C   0  0  0  0  0  0
  -18.9452  -30.1431   23.8912 C   0  0  0  0  0  0
  -17.6460  -30.6579   24.0573 C   0  0  0  0  0  0
  -25.9041  -34.9493   23.5145 C   0  0  0  0  0  0
  -16.5345  -29.9090   23.6335 C   0  0  0  0  0  0
  -16.7256  -28.6507   23.0356 C   0  0  0  0  0  0
  -26.4474  -31.6598   25.0754 C   0  0  0  0  0  0
  -25.3748  -31.3740   26.1515 C   0  0  0  0  0  0
  -27.0302  -30.3028   24.6153 C   0  0  0  0  0  0
  -27.6057  -32.4304   25.7509 C   0  0  0  0  0  0
  -27.5588  -37.1817   24.8467 C   0  0  0  0  0  0
  -21.4123  -29.3027   22.3760 N   0  0  0  0  0  0
  -26.4283  -37.3811   23.9437 N   0  0  0  0  0  0
  -24.6580  -31.0860   22.1057 N   0  0  0  0  0  0
  -23.4211  -28.8217   23.3031 O   0  0  0  0  0  0
  -28.3524  -26.7084   20.0701 O   0  0  0  0  0  0
  -26.5588  -34.8940   22.4689 O   0  0  0  0  0  0
  -23.5303  -32.1426   23.7619 O   0  0  0  0  0  0
  -29.8352  -17.0900   21.6145 C   0  0  0  0  0  0
  -29.1220  -18.2199   22.0827 C   0  0  0  0  0  0
  -29.4377  -16.5080   20.3699 C   0  0  0  0  0  0
  -28.1491  -18.7788   21.2334 C   0  0  0  0  0  0
  -28.3014  -17.0614   19.7067 C   0  0  0  0  0  0
  -28.9487  -20.9975   20.8485 C   0  0  0  0  0  0
  -27.9133  -20.2252   21.2291 C   0  0  0  0  0  0
  -28.8861  -22.4924   20.6284 C   0  0  0  0  0  0
  -26.5700  -20.8500   21.5427 C   0  0  0  0  0  0
  -26.4187  -22.2075   20.8301 C   0  0  0  0  0  0
  -31.1084  -16.6577   22.3412 C   0  0  0  0  0  0
  -29.4341  -18.9127   23.4078 C   0  0  0  0  0  0
  -27.7650  -16.5921   18.3576 C   0  0  0  0  0  0
  -31.0804  -17.5350   18.2482 C   0  0  0  0  0  0
  -30.9839  -16.0083   18.4665 C   0  0  0  0  0  0
  -27.3843  -24.4289   20.4110 C   0  0  0  0  0  0
  -28.3299  -25.5473   20.9152 C   0  0  0  0  0  0
  -27.6811  -18.1677   20.1362 N   0  0  0  0  0  0
  -30.2507  -15.5405   19.6898 N   0  0  0  0  0  0
  -27.5942  -23.1004   21.0521 N   0  3  2  0  0  0
  -31.4381  -12.3039   19.0859 H   0  0  0  0  0  0
  -30.2612  -11.2918   19.8838 H   0  0  0  0  0  0
  -29.6804  -11.6442   17.4492 H   0  0  0  0  0  0
  -29.6297  -13.3741   17.6899 H   0  0  0  0  0  0
  -27.8235  -11.2723   18.9050 H   0  0  0  0  0  0
  -27.3242  -12.5262   17.7995 H   0  0  0  0  0  0
  -27.6413  -14.2350   19.4854 H   0  0  0  0  0  0
  -28.7070  -12.1640   21.4517 H   0  0  0  0  0  0
  -28.5491  -13.8941   21.7211 H   0  0  0  0  0  0
  -25.2704   -9.5637   22.4835 H   0  0  0  0  0  0
  -23.9950   -7.4582   22.7520 H   0  0  0  0  0  0
  -21.0807   -8.8702   19.8993 H   0  0  0  0  0  0
  -22.3630  -10.9634   19.6227 H   0  0  0  0  0  0
  -21.1967   -7.6121   23.9704 H   0  0  0  0  0  0
  -21.1547   -6.0531   25.9094 H   0  0  0  0  0  0
  -22.0570   -2.7582   23.2877 H   0  0  0  0  0  0
  -22.3962  -11.9940   22.4886 H   0  0  0  0  0  0
  -21.1023  -13.1373   22.2541 H   0  0  0  0  0  0
  -24.6563  -15.8294   20.6558 H   0  0  0  0  0  0
  -26.3039  -15.6564   20.3386 H   0  0  0  0  0  0
  -26.7107  -32.5570   23.1206 H   0  0  0  0  0  0
  -25.0088  -33.9809   25.0528 H   0  0  0  0  0  0
  -22.6772  -31.3161   21.4305 H   0  0  0  0  0  0
  -23.3750  -35.9663   23.3298 H   0  0  0  0  0  0
  -24.3575  -36.8924   22.2049 H   0  0  0  0  0  0
  -23.7226  -37.6541   23.6632 H   0  0  0  0  0  0
  -26.0388  -31.6112   20.6126 H   0  0  0  0  0  0
  -26.8055  -30.8828   21.9952 H   0  0  0  0  0  0
  -28.0873  -29.1034   21.1771 H   0  0  0  0  0  0
  -26.0422  -26.0672   18.8911 H   0  0  0  0  0  0
  -23.9662  -27.3380   18.9965 H   0  0  0  0  0  0
  -23.7198  -30.6243   19.4132 H   0  0  0  0  0  0
  -22.7154  -29.2793   19.8625 H   0  0  0  0  0  0
  -25.1272  -36.1992   25.0846 H   0  0  0  0  0  0
  -20.9938  -28.3187   24.1462 H   0  0  0  0  0  0
  -20.5640  -26.2282   23.3592 H   0  0  0  0  0  0
  -21.6631  -26.7429   22.1239 H   0  0  0  0  0  0
  -19.6902  -25.6288   21.1242 H   0  0  0  0  0  0
  -19.6667  -27.3186   20.6741 H   0  0  0  0  0  0
  -17.4192  -26.6655   21.4009 H   0  0  0  0  0  0
  -18.0319  -26.0023   22.8994 H   0  0  0  0  0  0
  -19.7925  -30.7225   24.2282 H   0  0  0  0  0  0
  -17.5032  -31.6273   24.5160 H   0  0  0  0  0  0
  -15.5357  -30.3017   23.7639 H   0  0  0  0  0  0
  -15.8647  -28.0829   22.7070 H   0  0  0  0  0  0
  -24.5924  -30.7065   25.7901 H   0  0  0  0  0  0
  -24.8964  -32.2923   26.4927 H   0  0  0  0  0  0
  -25.8124  -30.8956   27.0282 H   0  0  0  0  0  0
  -26.2854  -29.6797   24.1191 H   0  0  0  0  0  0
  -27.4025  -29.7277   25.4639 H   0  0  0  0  0  0
  -27.8725  -30.4349   23.9356 H   0  0  0  0  0  0
  -27.2682  -33.3590   26.2113 H   0  0  0  0  0  0
  -28.3863  -32.6842   25.0336 H   0  0  0  0  0  0
  -28.0715  -31.8397   26.5391 H   0  0  0  0  0  0
  -28.2606  -38.0115   24.7535 H   0  0  0  0  0  0
  -28.1075  -36.2656   24.6255 H   0  0  0  0  0  0
  -27.2332  -37.1442   25.8872 H   0  0  0  0  0  0
  -20.9265  -29.8796   21.7032 H   0  0  0  0  0  0
  -26.0182  -38.2895   24.1420 H   0  0  0  0  0  0
  -29.8960  -20.5342   20.5979 H   0  0  0  0  0  0
  -29.0502  -22.6540   19.5610 H   0  0  0  0  0  0
  -29.7183  -22.9595   21.1560 H   0  0  0  0  0  0
  -26.4505  -20.9425   22.6216 H   0  0  0  0  0  0
  -25.7808  -20.1838   21.1894 H   0  0  0  0  0  0
  -25.5016  -22.6890   21.1716 H   0  0  0  0  0  0
  -26.3027  -22.0430   19.7554 H   0  0  0  0  0  0
  -31.0589  -15.6143   22.6548 H   0  0  0  0  0  0
  -31.3360  -17.2275   23.2382 H   0  0  0  0  0  0
  -31.9623  -16.7881   21.6688 H   0  0  0  0  0  0
  -29.6805  -18.1956   24.1919 H   0  0  0  0  0  0
  -28.5500  -19.4346   23.7731 H   0  0  0  0  0  0
  -30.2391  -19.6386   23.2995 H   0  0  0  0  0  0
  -28.3777  -15.8376   17.8696 H   0  0  0  0  0  0
  -27.6816  -17.4418   17.6786 H   0  0  0  0  0  0
  -26.7658  -16.1742   18.4506 H   0  0  0  0  0  0
  -31.6164  -17.7434   17.3219 H   0  0  0  0  0  0
  -31.6292  -18.0215   19.0556 H   0  0  0  0  0  0
  -30.1152  -18.0249   18.1424 H   0  0  0  0  0  0
  -32.0204  -15.6628   18.4401 H   0  0  0  0  0  0
  -30.5410  -15.5382   17.5900 H   0  0  0  0  0  0
  -27.4795  -24.3176   19.3267 H   0  0  0  0  0  0
  -26.3564  -24.7240   20.6165 H   0  0  0  0  0  0
  -29.3587  -25.1905   20.9509 H   0  0  0  0  0  0
  -28.0720  -25.8249   21.9395 H   0  0  0  0  0  0
  -27.6464  -23.2321   22.0549 H   0  0  0  0  0  0
  1 25  1  0  0  0
  1 30  2  0  0  0
  1 89  1  0  0  0
  2  3  1  0  0  0
  2 25  1  0  0  0
  2 91  1  0  0  0
  2 92  1  0  0  0
  3  4  1  0  0  0
  3 93  1  0  0  0
  3 94  1  0  0  0
  4  5  1  0  0  0
  4 95  1  0  0  0
  4 96  1  0  0  0
  5  6  1  0  0  0
  5 26  1  0  0  0
  5 97  1  0  0  0
  6 25  1  0  0  0
  6 98  1  0  0  0
  6 99  1  0  0  0
  7  8  2  0  0  0
  7 26  1  0  0  0
  7 29  1  0  0  0
  8  9  1  0  0  0
  8 22  1  0  0  0
  9 10  1  0  0  0
  9 27  2  0  0  0
 10 11  2  0  0  0
 10 15  1  0  0  0
 11 12  1  0  0  0
 11100  1  0  0  0
 12 13  2  0  0  0
 12101  1  0  0  0
 13 14  1  0  0  0
 13 31  1  0  0  0
 14 15  2  0  0  0
 14102  1  0  0  0
 15103  1  0  0  0
 16 17  2  0  0  0
 16 21  1  0  0  0
 16 31  1  0  0  0
 17 18  1  0  0  0
 17104  1  0  0  0
 18 19  2  0  0  0
 18105  1  0  0  0
 19 20  1  0  0  0
 19 24  1  0  0  0
 20 21  2  0  0  0
 20106  1  0  0  0
 21 23  1  0  0  0
 22 28  1  0  0  0
 22 32  2  0  0  0
 26 27  1  0  0  0
 28107  1  0  0  0
 28108  1  0  0  0
 29109  1  0  0  0
 29110  1  0  0  0
 33 34  1  0  0  0
 33 66  1  0  0  0
 33 70  2  0  0  0
 34 36  1  0  0  0
 34 59  1  0  0  0
 34111  1  0  0  0
 35 44  2  0  0  0
 35 45  1  0  0  0
 35 68  1  0  0  0
 36 56  1  0  0  0
 36112  1  0  0  0
 37 39  1  0  0  0
 37 47  1  0  0  0
 37 66  1  0  0  0
 37113  1  0  0  0
 38 43  2  0  0  0
 38 46  1  0  0  0
 38 47  1  0  0  0
 39 64  1  0  0  0
 39 67  2  0  0  0
 40 52  1  0  0  0
 40 53  2  0  0  0
 40 58  1  0  0  0
 41114  1  0  0  0
 41115  1  0  0  0
 41116  1  0  0  0
 41 48  1  0  0  0
 42 43  1  0  0  0
 42 66  1  0  0  0
 42117  1  0  0  0
 42118  1  0  0  0
 43 44  1  0  0  0
 44119  1  0  0  0
 45 46  2  0  0  0
 45120  1  0  0  0
 46121  1  0  0  0
 47122  1  0  0  0
 47123  1  0  0  0
 48 56  1  0  0  0
 48 65  1  0  0  0
 48124  1  0  0  0
 49 50  1  0  0  0
 49 53  1  0  0  0
 49 64  1  0  0  0
 49125  1  0  0  0
 50 51  1  0  0  0
 50126  1  0  0  0
 50127  1  0  0  0
 51 52  1  0  0  0
 51128  1  0  0  0
 51129  1  0  0  0
 52130  1  0  0  0
 52131  1  0  0  0
 53 54  1  0  0  0
 54 55  2  0  0  0
 54132  1  0  0  0
 55 57  1  0  0  0
 55133  1  0  0  0
 56 69  2  0  0  0
 57 58  2  0  0  0
 57134  1  0  0  0
 58135  1  0  0  0
 59 60  1  0  0  0
 59 61  1  0  0  0
 59 62  1  0  0  0
 60136  1  0  0  0
 60137  1  0  0  0
 60138  1  0  0  0
 61139  1  0  0  0
 61140  1  0  0  0
 61141  1  0  0  0
 62142  1  0  0  0
 62143  1  0  0  0
 62144  1  0  0  0
 63 65  1  0  0  0
 63145  1  0  0  0
 63146  1  0  0  0
 63147  1  0  0  0
 64148  1  0  0  0
 65149  1  0  0  0
 68 87  1  0  0  0
 71 72  2  0  0  0
 71 73  1  0  0  0
 71 81  1  0  0  0
 72 74  1  0  0  0
 72 82  1  0  0  0
 73 75  2  0  0  0
 73 89  1  0  0  0
 74 77  1  0  0  0
 74 88  2  0  0  0
 75 83  1  0  0  0
 75 88  1  0  0  0
 76 77  2  0  0  0
 76 78  1  0  0  0
 76150  1  0  0  0
 77 79  1  0  0  0
 78 90  1  0  0  0
 78151  1  0  0  0
 78152  1  0  0  0
 79 80  1  0  0  0
 79153  1  0  0  0
 79154  1  0  0  0
 80 90  1  0  0  0
 80155  1  0  0  0
 80156  1  0  0  0
 81157  1  0  0  0
 81158  1  0  0  0
 81159  1  0  0  0
 82160  1  0  0  0
 82161  1  0  0  0
 82162  1  0  0  0
 83163  1  0  0  0
 83164  1  0  0  0
 83165  1  0  0  0
 84 85  1  0  0  0
 84166  1  0  0  0
 84167  1  0  0  0
 84168  1  0  0  0
 85 89  1  0  0  0
 85169  1  0  0  0
 85170  1  0  0  0
 86 87  1  0  0  0
 86171  1  0  0  0
 86172  1  0  0  0
 86 90  1  0  0  0
 87173  1  0  0  0
 87174  1  0  0  0
 90175  1  0  0  0
M  CHG  1  90   1
M  ISO  4   1 100  68 101  87 101  89 100
M  END
> <chiral flag>
0

> <version>
0

> <s_m_source_file>
/data/baiqing/PycharmProjects/Reinvent-master-3.2/result/LINK_invent/BTK/process_docking_weight1_custom_sum_contain_oxygen_bond_distance_aromatic_linkinvent_7_9_3/rearranged_h_0161.sdf

> <i_m_source_file_index>
30

> <r_mmod_Potential_Energy-OPLS-2005>
34.256031036377

> <r_mmod_Stretch_Energy-OPLS-2005>
42.0906944274902

> <r_mmod_Bend_Energy-OPLS-2005>
123.119720458984

> <r_mmod_Torsional_Energy-OPLS-2005>
397.252227783203

> <r_mmod_Improper_Torsional_Energy-OPLS-2005>
25.7961692810059

> <r_mmod_Van_der_Waal_Energy-OPLS-2005>
190.683181762695

> <r_mmod_Electrostatic_Energy-OPLS-2005>
-402.231597900391

> <r_mmod_Solvation_Energy-OPLS-2005>
-397.021057128906

> <b_mmod_Minimization_Converged-OPLS-2005>
0

> <r_mmod_RMS_Derivative-OPLS-2005>
5.14379215240479

$$$$
30
                    3D
 Structure written by MMmdl.
167177  0  0  1  0            999 V2000
  -30.7564  -14.4381   20.6127 C   0  0  0  0  0  0
  -30.4014  -12.2980   19.4304 C   0  0  0  0  0  0
  -29.4778  -12.4759   18.2083 C   0  0  0  0  0  0
  -28.0057  -12.3292   18.6304 C   0  0  0  0  0  0
  -27.6505  -13.2087   19.8590 C   0  0  2  0  0  0
  -28.6880  -13.0320   20.9905 C   0  0  0  0  0  0
  -25.2542  -13.8179   20.5684 C   0  0  0  0  0  0
  -24.1830  -13.0476   20.9215 C   0  0  0  0  0  0
  -24.6385  -11.6920   20.8780 C   0  0  0  0  0  0
  -23.9074  -10.4305   21.0446 C   0  0  0  0  0  0
  -24.3635   -9.4201   21.9200 C   0  0  0  0  0  0
  -23.6320   -8.2228   22.0748 C   0  0  0  0  0  0
  -22.4278   -8.0297   21.3557 C   0  0  0  0  0  0
  -21.9939   -9.0269   20.4646 C   0  0  0  0  0  0
  -22.7268  -10.2143   20.3068 C   0  0  0  0  0  0
  -21.6836   -6.0762   22.5299 C   0  0  0  0  0  0
  -21.4010   -6.5661   23.8243 C   0  0  0  0  0  0
  -21.3659   -5.6804   24.9200 C   0  0  0  0  0  0
  -21.6034   -4.3062   24.7231 C   0  0  0  0  0  0
  -21.8817   -3.8174   23.4341 C   0  0  0  0  0  0
  -21.9201   -4.7001   22.3414 C   0  0  0  0  0  0
  -22.7845  -13.5231   21.1904 C   0  0  0  0  0  0
  -22.1660   -4.2206   21.0978 F   0  0  0  0  0  0
  -21.5628   -3.4529   25.7730 F   0  0  0  0  0  0
  -30.0243  -13.3060   20.4379 N   0  0  0  0  0  0
  -26.2966  -12.9361   20.3313 N   0  0  0  0  0  0
  -25.9306  -11.6517   20.5793 N   0  0  0  0  0  0
  -22.0509  -12.8249   22.0464 N   0  0  0  0  0  0
  -25.4312  -15.1907   20.4065 N   0  0  0  0  0  0
  -31.8505  -14.6050   20.0672 O   0  0  0  0  0  0
  -21.6616   -6.8905   21.4258 O   0  0  0  0  0  0
  -22.3540  -14.5552   20.6731 O   0  0  0  0  0  0
  -24.6167  -31.8660   23.2044 C   0  0  0  0  0  0
  -25.9069  -32.4808   23.8351 C   0  0  1  0  0  0
  -27.2392  -27.4302   20.0764 C   0  0  0  0  0  0
  -25.5914  -33.8607   24.2307 N   0  0  0  0  0  0
  -23.4013  -30.4904   21.5441 C   0  0  2  0  0  0
  -24.8430  -28.9476   20.1098 C   0  0  0  0  0  0
  -22.7418  -29.4674   22.4970 C   0  0  0  0  0  0
  -18.0290  -28.1398   22.8482 C   0  0  0  0  0  0
  -24.1494  -36.7310   23.2624 C   0  0  0  0  0  0
  -25.9298  -30.8265   21.3568 C   0  0  0  0  0  0
  -26.0023  -29.4588   20.7066 C   0  0  0  0  0  0
  -27.1969  -28.7038   20.6909 C   0  0  0  0  0  0
  -26.0570  -26.9259   19.4857 C   0  0  0  0  0  0
  -24.8658  -27.6806   19.4984 C   0  0  0  0  0  0
  -23.6062  -29.8169   20.1596 C   0  0  0  0  0  0
  -25.4103  -36.3097   24.0348 C   0  0  1  0  0  0
  -20.5866  -28.3674   23.1303 C   0  0  2  0  0  0
  -20.6785  -26.9424   22.5391 C   0  0  0  0  0  0
  -19.5763  -26.6402   21.5202 C   0  0  0  0  0  0
  -18.1946  -26.7948   22.1614 C   0  0  0  0  0  0
  -19.1529  -28.8864   23.2883 C   0  0  0  0  0  0
  -18.9466  -30.1483   23.8891 C   0  0  0  0  0  0
  -17.6458  -30.6594   24.0585 C   0  0  0  0  0  0
  -25.9033  -34.9475   23.5111 C   0  0  0  0  0  0
  -16.5357  -29.9101   23.6333 C   0  0  0  0  0  0
  -16.7281  -28.6528   23.0339 C   0  0  0  0  0  0
  -26.4534  -31.6570   25.0663 C   0  0  0  0  0  0
  -25.3857  -31.3679   26.1457 C   0  0  0  0  0  0
  -27.0334  -30.3000   24.6021 C   0  0  0  0  0  0
  -27.6104  -32.4299   25.7415 C   0  0  0  0  0  0
  -27.5589  -37.1798   24.8470 C   0  0  0  0  0  0
  -21.4148  -29.3029   22.3716 N   0  0  0  0  0  0
  -26.4277  -37.3798   23.9446 N   0  0  0  0  0  0
  -24.6669  -31.0799   22.0917 N   0  0  0  0  0  0
  -23.4200  -28.8230   23.3009 O   0  0  0  0  0  0
  -28.4346  -26.7380   20.0856 O   0  0  0  0  0  0
  -26.5580  -34.8945   22.4665 O   0  0  0  0  0  0
  -23.5361  -32.1403   23.7457 O   0  0  0  0  0  0
  -29.7249  -20.2820   22.2108 C   0  0  0  0  0  0
  -30.6358  -19.2174   21.9868 C   0  0  0  0  0  0
  -28.4388  -19.9077   22.6123 C   0  0  0  0  0  0
  -30.0779  -17.9179   21.8099 C   0  0  0  0  0  0
  -27.9877  -18.8729   21.7986 C   0  0  0  0  0  0
  -29.7714  -21.5562   21.3681 C   0  0  0  0  0  0
  -29.9549  -24.9894   19.7090 C   0  0  0  0  0  0
  -28.0289  -20.2638   19.8253 C   0  0  0  0  0  0
  -28.5013  -21.6555   20.4226 C   0  0  1  0  0  0
  -28.7305  -24.1913   20.0733 C   0  0  2  0  0  0
  -28.5942  -25.5244   19.3319 C   0  0  2  0  0  0
  -32.1216  -19.4820   21.8243 C   0  0  0  0  0  0
  -27.4311  -20.8928   23.1935 C   0  0  0  0  0  0
  -30.9417  -16.6667   21.6642 C   0  0  0  0  0  0
  -28.5951  -22.8165   19.4007 C   0  0  0  0  0  0
  -28.7544  -17.7862   21.5614 N   0  0  0  0  0  0
  -30.2273  -15.4092   21.3716 N   0  0  0  0  0  0
  -27.3075  -19.3283   20.6892 O   0  0  0  0  0  0
  -31.4513  -12.3622   19.1321 H   0  0  0  0  0  0
  -30.2791  -11.3002   19.8562 H   0  0  0  0  0  0
  -29.7144  -11.7314   17.4449 H   0  0  0  0  0  0
  -29.6418  -13.4547   17.7547 H   0  0  0  0  0  0
  -27.8390  -11.2785   18.8709 H   0  0  0  0  0  0
  -27.3442  -12.5481   17.7905 H   0  0  0  0  0  0
  -27.6818  -14.2460   19.5224 H   0  0  0  0  0  0
  -28.6587  -12.0123   21.3774 H   0  0  0  0  0  0
  -28.4401  -13.6712   21.8383 H   0  0  0  0  0  0
  -25.2769   -9.5687   22.4782 H   0  0  0  0  0  0
  -24.0068   -7.4592   22.7425 H   0  0  0  0  0  0
  -21.0885   -8.8759   19.8921 H   0  0  0  0  0  0
  -22.3730  -10.9678   19.6176 H   0  0  0  0  0  0
  -21.1968   -7.6165   23.9769 H   0  0  0  0  0  0
  -21.1486   -6.0523   25.9108 H   0  0  0  0  0  0
  -22.0592   -2.7640   23.2823 H   0  0  0  0  0  0
  -22.4119  -11.9897   22.4839 H   0  0  0  0  0  0
  -21.1094  -13.1218   22.2591 H   0  0  0  0  0  0
  -24.6728  -15.8558   20.5075 H   0  0  0  0  0  0
  -26.3031  -15.6212   20.1265 H   0  0  0  0  0  0
  -26.7133  -32.5509   23.1111 H   0  0  0  0  0  0
  -25.0202  -33.9790   25.0552 H   0  0  0  0  0  0
  -22.6877  -31.3051   21.4070 H   0  0  0  0  0  0
  -23.3746  -35.9648   23.3266 H   0  0  0  0  0  0
  -24.3596  -36.8926   22.2033 H   0  0  0  0  0  0
  -23.7263  -37.6525   23.6637 H   0  0  0  0  0  0
  -26.0475  -31.5882   20.5848 H   0  0  0  0  0  0
  -26.8180  -30.8754   21.9762 H   0  0  0  0  0  0
  -28.0934  -29.0999   21.1509 H   0  0  0  0  0  0
  -26.0432  -25.9464   19.0279 H   0  0  0  0  0  0
  -23.9750  -27.2829   19.0278 H   0  0  0  0  0  0
  -23.7124  -30.5871   19.3957 H   0  0  0  0  0  0
  -22.7300  -29.2354   19.8647 H   0  0  0  0  0  0
  -25.1283  -36.1913   25.0836 H   0  0  0  0  0  0
  -20.9990  -28.3247   24.1408 H   0  0  0  0  0  0
  -20.5683  -26.2327   23.3598 H   0  0  0  0  0  0
  -21.6668  -26.7478   22.1206 H   0  0  0  0  0  0
  -19.6918  -25.6305   21.1243 H   0  0  0  0  0  0
  -19.6688  -27.3222   20.6724 H   0  0  0  0  0  0
  -17.4232  -26.6724   21.3993 H   0  0  0  0  0  0
  -18.0323  -26.0088   22.8979 H   0  0  0  0  0  0
  -19.7933  -30.7305   24.2254 H   0  0  0  0  0  0
  -17.5014  -31.6260   24.5181 H   0  0  0  0  0  0
  -15.5357  -30.2995   23.7666 H   0  0  0  0  0  0
  -15.8693  -28.0853   22.7027 H   0  0  0  0  0  0
  -24.5866  -30.7244   25.7791 H   0  0  0  0  0  0
  -24.9294  -32.2863   26.5148 H   0  0  0  0  0  0
  -25.8230  -30.8605   27.0055 H   0  0  0  0  0  0
  -26.2814  -29.6741   24.1184 H   0  0  0  0  0  0
  -27.4218  -29.7263   25.4442 H   0  0  0  0  0  0
  -27.8639  -30.4324   23.9080 H   0  0  0  0  0  0
  -27.2671  -33.3502   26.2167 H   0  0  0  0  0  0
  -28.3805  -32.7024   25.0177 H   0  0  0  0  0  0
  -28.0927  -31.8344   26.5178 H   0  0  0  0  0  0
  -28.2612  -38.0095   24.7534 H   0  0  0  0  0  0
  -28.1081  -36.2629   24.6253 H   0  0  0  0  0  0
  -27.2332  -37.1410   25.8880 H   0  0  0  0  0  0
  -20.9335  -29.8705   21.6889 H   0  0  0  0  0  0
  -26.0146  -38.2874   24.1415 H   0  0  0  0  0  0
  -30.6779  -21.5680   20.7611 H   0  0  0  0  0  0
  -29.8559  -22.4222   22.0220 H   0  0  0  0  0  0
  -30.5796  -24.5815   18.9178 H   0  0  0  0  0  0
  -30.5003  -25.4567   20.5268 H   0  0  0  0  0  0
  -28.8749  -19.7464   19.3696 H   0  0  0  0  0  0
  -27.3422  -20.4585   19.0030 H   0  0  0  0  0  0
  -27.6396  -21.9987   20.9880 H   0  0  0  0  0  0
  -28.3954  -24.2206   21.1095 H   0  0  0  0  0  0
  -28.3552  -25.5767   18.2700 H   0  0  0  0  0  0
  -32.3814  -20.4510   22.2500 H   0  0  0  0  0  0
  -32.3806  -19.4977   20.7659 H   0  0  0  0  0  0
  -32.7282  -18.7294   22.3322 H   0  0  0  0  0  0
  -27.7633  -21.9299   23.1201 H   0  0  0  0  0  0
  -27.2443  -20.6593   24.2389 H   0  0  0  0  0  0
  -26.4742  -20.8122   22.6759 H   0  0  0  0  0  0
  -31.6396  -16.8985   20.8601 H   0  0  0  0  0  0
  -31.5359  -16.5230   22.5689 H   0  0  0  0  0  0
  -27.6850  -22.8381   18.7989 H   0  0  0  0  0  0
  -29.4128  -22.6525   18.6967 H   0  0  0  0  0  0
  -29.2884  -15.3051   21.7303 H   0  0  0  0  0  0
  1 25  1  0  0  0
  1 30  2  0  0  0
  1 87  1  0  0  0
  2  3  1  0  0  0
  2 25  1  0  0  0
  2 89  1  0  0  0
  2 90  1  0  0  0
  3  4  1  0  0  0
  3 91  1  0  0  0
  3 92  1  0  0  0
  4  5  1  0  0  0
  4 93  1  0  0  0
  4 94  1  0  0  0
  5  6  1  0  0  0
  5 26  1  0  0  0
  5 95  1  0  0  0
  6 25  1  0  0  0
  6 96  1  0  0  0
  6 97  1  0  0  0
  7  8  2  0  0  0
  7 26  1  0  0  0
  7 29  1  0  0  0
  8  9  1  0  0  0
  8 22  1  0  0  0
  9 10  1  0  0  0
  9 27  2  0  0  0
 10 11  2  0  0  0
 10 15  1  0  0  0
 11 12  1  0  0  0
 11 98  1  0  0  0
 12 13  2  0  0  0
 12 99  1  0  0  0
 13 14  1  0  0  0
 13 31  1  0  0  0
 14 15  2  0  0  0
 14100  1  0  0  0
 15101  1  0  0  0
 16 17  2  0  0  0
 16 21  1  0  0  0
 16 31  1  0  0  0
 17 18  1  0  0  0
 17102  1  0  0  0
 18 19  2  0  0  0
 18103  1  0  0  0
 19 20  1  0  0  0
 19 24  1  0  0  0
 20 21  2  0  0  0
 20104  1  0  0  0
 21 23  1  0  0  0
 22 28  1  0  0  0
 22 32  2  0  0  0
 26 27  1  0  0  0
 28105  1  0  0  0
 28106  1  0  0  0
 29107  1  0  0  0
 29108  1  0  0  0
 33 34  1  0  0  0
 33 66  1  0  0  0
 33 70  2  0  0  0
 34 36  1  0  0  0
 34 59  1  0  0  0
 34109  1  0  0  0
 35 44  2  0  0  0
 35 45  1  0  0  0
 35 68  1  0  0  0
 36 56  1  0  0  0
 36110  1  0  0  0
 37 39  1  0  0  0
 37 47  1  0  0  0
 37 66  1  0  0  0
 37111  1  0  0  0
 38 43  2  0  0  0
 38 46  1  0  0  0
 38 47  1  0  0  0
 39 64  1  0  0  0
 39 67  2  0  0  0
 40 52  1  0  0  0
 40 53  2  0  0  0
 40 58  1  0  0  0
 41112  1  0  0  0
 41113  1  0  0  0
 41114  1  0  0  0
 41 48  1  0  0  0
 42 43  1  0  0  0
 42 66  1  0  0  0
 42115  1  0  0  0
 42116  1  0  0  0
 43 44  1  0  0  0
 44117  1  0  0  0
 45 46  2  0  0  0
 45118  1  0  0  0
 46119  1  0  0  0
 47120  1  0  0  0
 47121  1  0  0  0
 48 56  1  0  0  0
 48 65  1  0  0  0
 48122  1  0  0  0
 49 50  1  0  0  0
 49 53  1  0  0  0
 49 64  1  0  0  0
 49123  1  0  0  0
 50 51  1  0  0  0
 50124  1  0  0  0
 50125  1  0  0  0
 51 52  1  0  0  0
 51126  1  0  0  0
 51127  1  0  0  0
 52128  1  0  0  0
 52129  1  0  0  0
 53 54  1  0  0  0
 54 55  2  0  0  0
 54130  1  0  0  0
 55 57  1  0  0  0
 55131  1  0  0  0
 56 69  2  0  0  0
 57 58  2  0  0  0
 57132  1  0  0  0
 58133  1  0  0  0
 59 60  1  0  0  0
 59 61  1  0  0  0
 59 62  1  0  0  0
 60134  1  0  0  0
 60135  1  0  0  0
 60136  1  0  0  0
 61137  1  0  0  0
 61138  1  0  0  0
 61139  1  0  0  0
 62140  1  0  0  0
 62141  1  0  0  0
 62142  1  0  0  0
 63 65  1  0  0  0
 63143  1  0  0  0
 63144  1  0  0  0
 63145  1  0  0  0
 64146  1  0  0  0
 65147  1  0  0  0
 68 81  1  0  0  0
 71 72  2  0  0  0
 71 73  1  0  0  0
 71 76  1  0  0  0
 72 74  1  0  0  0
 72 82  1  0  0  0
 73 75  2  0  0  0
 73 83  1  0  0  0
 74 84  1  0  0  0
 74 86  2  0  0  0
 75 86  1  0  0  0
 75 88  1  0  0  0
 76 79  1  0  0  0
 76148  1  0  0  0
 76149  1  0  0  0
 77 80  1  0  0  0
 77 81  1  0  0  0
 77150  1  0  0  0
 77151  1  0  0  0
 78 79  1  0  0  0
 78 88  1  0  0  0
 78152  1  0  0  0
 78153  1  0  0  0
 79 85  1  0  0  0
 79154  1  0  0  0
 80 81  1  0  0  0
 80 85  1  0  0  0
 80155  1  0  0  0
 81156  1  0  0  0
 82157  1  0  0  0
 82158  1  0  0  0
 82159  1  0  0  0
 83160  1  0  0  0
 83161  1  0  0  0
 83162  1  0  0  0
 84 87  1  0  0  0
 84163  1  0  0  0
 84164  1  0  0  0
 85165  1  0  0  0
 85166  1  0  0  0
 87167  1  0  0  0
M  ISO  4   1 100  68 101  81 101  87 100
M  END
> <chiral flag>
0

> <version>
0

> <s_m_source_file>
/data/baiqing/PycharmProjects/Reinvent-master-3.2/result/LINK_invent/BTK/process_docking_weight1_custom_sum_contain_oxygen_bond_distance_aromatic_linkinvent_7_9_3/rearranged_h_0161.sdf

> <i_m_source_file_index>
31

> <r_mmod_Potential_Energy-OPLS-2005>
-15.4430150985718

> <r_mmod_Stretch_Energy-OPLS-2005>
50.0532302856445

> <r_mmod_Bend_Energy-OPLS-2005>
153.547271728516

> <r_mmod_Torsional_Energy-OPLS-2005>
463.455444335938

> <r_mmod_Improper_Torsional_Energy-OPLS-2005>
36.7834701538086

> <r_mmod_Van_der_Waal_Energy-OPLS-2005>
189.383270263672

> <r_mmod_Electrostatic_Energy-OPLS-2005>
-709.129638671875

> <r_mmod_Solvation_Energy-OPLS-2005>
-212.910842895508

> <b_mmod_Minimization_Converged-OPLS-2005>
0

> <r_mmod_RMS_Derivative-OPLS-2005>
6.62562417984009

$$$$
31
                    3D
 Structure written by MMmdl.
163172  0  0  1  0            999 V2000
  -30.6100  -14.7915   20.4731 C   0  0  0  0  0  0
  -30.4337  -12.4815   19.5016 C   0  0  0  0  0  0
  -29.5206  -12.5016   18.2560 C   0  0  0  0  0  0
  -28.0448  -12.3321   18.6612 C   0  0  0  0  0  0
  -27.6417  -13.2403   19.8556 C   0  0  2  0  0  0
  -28.6824  -13.1998   20.9953 C   0  0  0  0  0  0
  -25.2493  -13.8227   20.5714 C   0  0  0  0  0  0
  -24.1787  -13.0436   20.9186 C   0  0  0  0  0  0
  -24.6391  -11.6930   20.8731 C   0  0  0  0  0  0
  -23.9082  -10.4292   21.0391 C   0  0  0  0  0  0
  -24.3625   -9.4220   21.9175 C   0  0  0  0  0  0
  -23.6293   -8.2259   22.0756 C   0  0  0  0  0  0
  -22.4279   -8.0289   21.3545 C   0  0  0  0  0  0
  -21.9915   -9.0260   20.4651 C   0  0  0  0  0  0
  -22.7247  -10.2135   20.3052 C   0  0  0  0  0  0
  -21.6854   -6.0736   22.5269 C   0  0  0  0  0  0
  -21.4023   -6.5639   23.8209 C   0  0  0  0  0  0
  -21.3658   -5.6796   24.9165 C   0  0  0  0  0  0
  -21.6046   -4.3054   24.7217 C   0  0  0  0  0  0
  -21.8823   -3.8146   23.4331 C   0  0  0  0  0  0
  -21.9197   -4.6961   22.3393 C   0  0  0  0  0  0
  -22.7805  -13.5221   21.1845 C   0  0  0  0  0  0
  -22.1661   -4.2143   21.0969 F   0  0  0  0  0  0
  -21.5621   -3.4540   25.7732 F   0  0  0  0  0  0
  -29.9759  -13.5643   20.4088 N   0  0  0  0  0  0
  -26.2938  -12.9444   20.3319 N   0  0  0  0  0  0
  -25.9336  -11.6577   20.5774 N   0  0  0  0  0  0
  -22.0460  -12.8204   22.0412 N   0  0  0  0  0  0
  -25.4170  -15.1949   20.4154 N   0  0  0  0  0  0
  -31.7971  -14.8602   20.1291 O   0  0  0  0  0  0
  -21.6649   -6.8872   21.4235 O   0  0  0  0  0  0
  -22.3486  -14.5527   20.6703 O   0  0  0  0  0  0
  -24.6350  -31.8465   23.1978 C   0  0  0  0  0  0
  -25.9169  -32.4703   23.8282 C   0  0  1  0  0  0
  -27.2007  -27.2251   20.1693 C   0  0  0  0  0  0
  -25.5934  -33.8490   24.2225 N   0  0  0  0  0  0
  -23.4318  -30.4788   21.5380 C   0  0  2  0  0  0
  -24.8762  -28.9171   20.1195 C   0  0  0  0  0  0
  -22.7527  -29.4599   22.4866 C   0  0  0  0  0  0
  -18.0316  -28.1365   22.8493 C   0  0  0  0  0  0
  -24.1469  -36.7287   23.2652 C   0  0  0  0  0  0
  -25.9804  -30.7617   21.3755 C   0  0  0  0  0  0
  -26.0500  -29.3782   20.7285 C   0  0  0  0  0  0
  -27.2216  -28.5484   20.7344 C   0  0  0  0  0  0
  -26.0018  -26.8341   19.5422 C   0  0  0  0  0  0
  -24.8575  -27.6545   19.5114 C   0  0  0  0  0  0
  -23.6521  -29.8124   20.1548 C   0  0  0  0  0  0
  -25.4083  -36.3040   24.0342 C   0  0  1  0  0  0
  -20.5926  -28.3681   23.1259 C   0  0  2  0  0  0
  -20.6804  -26.9399   22.5393 C   0  0  0  0  0  0
  -19.5768  -26.6377   21.5202 C   0  0  0  0  0  0
  -18.1950  -26.7914   22.1618 C   0  0  0  0  0  0
  -19.1574  -28.8842   23.2876 C   0  0  0  0  0  0
  -18.9490  -30.1452   23.8883 C   0  0  0  0  0  0
  -17.6481  -30.6563   24.0573 C   0  0  0  0  0  0
  -25.9038  -34.9411   23.5094 C   0  0  0  0  0  0
  -16.5373  -29.9063   23.6329 C   0  0  0  0  0  0
  -16.7304  -28.6490   23.0334 C   0  0  0  0  0  0
  -26.4526  -31.6533   25.0677 C   0  0  0  0  0  0
  -25.3732  -31.3693   26.1390 C   0  0  0  0  0  0
  -27.0393  -30.2944   24.6196 C   0  0  0  0  0  0
  -27.6070  -32.4273   25.7458 C   0  0  0  0  0  0
  -27.5566  -37.1788   24.8475 C   0  0  0  0  0  0
  -21.4246  -29.3025   22.3640 N   0  0  0  0  0  0
  -26.4265  -37.3746   23.9427 N   0  0  0  0  0  0
  -24.7019  -31.0470   22.0926 N   0  0  0  0  0  0
  -23.4229  -28.8097   23.2923 O   0  0  0  0  0  0
  -28.2848  -26.3132   20.1775 O   0  0  0  0  0  0
  -26.5633  -34.8898   22.4666 O   0  0  0  0  0  0
  -23.5508  -32.1240   23.7323 O   0  0  0  0  0  0
  -28.5439  -20.7994   19.8020 C   0  0  0  0  0  0
  -29.5969  -22.0012   21.5820 C   0  0  0  0  0  0
  -29.0318  -19.5179   20.2979 C   0  0  0  0  0  0
  -29.8269  -19.4933   21.4668 C   0  0  0  0  0  0
  -28.8085  -22.0951   20.4116 C   0  0  0  0  0  0
  -30.0938  -20.7595   22.0900 C   0  0  0  0  0  0
  -28.6936  -18.1543   19.6072 C   0  0  0  0  0  0
  -30.4863  -18.1650   21.9936 C   0  0  0  0  0  0
  -29.7934  -16.9953   19.5132 C   0  0  0  0  0  0
  -29.7970  -16.7293   21.9037 C   0  0  0  0  0  0
  -30.9795  -20.8440   23.3227 C   0  0  0  0  0  0
  -27.2622  -23.3829   18.7624 C   0  0  0  0  0  0
  -28.1116  -24.8866   20.6753 C   0  0  0  0  0  0
  -28.4071  -23.5411   19.7770 C   0  0  1  0  0  0
  -29.8621  -15.9761   20.6156 N   0  0  0  0  0  0
  -31.4777  -12.5982   19.2049 H   0  0  0  0  0  0
  -30.3810  -11.5146   20.0046 H   0  0  0  0  0  0
  -29.8124  -11.7111   17.5647 H   0  0  0  0  0  0
  -29.6538  -13.4423   17.7193 H   0  0  0  0  0  0
  -27.9018  -11.2845   18.9298 H   0  0  0  0  0  0
  -27.3957  -12.5199   17.8049 H   0  0  0  0  0  0
  -27.6327  -14.2588   19.4668 H   0  0  0  0  0  0
  -28.7288  -12.2109   21.4532 H   0  0  0  0  0  0
  -28.4130  -13.8955   21.7918 H   0  0  0  0  0  0
  -25.2761   -9.5699   22.4768 H   0  0  0  0  0  0
  -23.9992   -7.4663   22.7487 H   0  0  0  0  0  0
  -21.0851   -8.8771   19.8965 H   0  0  0  0  0  0
  -22.3693  -10.9665   19.6168 H   0  0  0  0  0  0
  -21.2031   -7.6155   23.9702 H   0  0  0  0  0  0
  -21.1470   -6.0530   25.9072 H   0  0  0  0  0  0
  -22.0606   -2.7605   23.2839 H   0  0  0  0  0  0
  -22.4077  -11.9874   22.4806 H   0  0  0  0  0  0
  -21.1082  -13.1218   22.2626 H   0  0  0  0  0  0
  -24.6531  -15.8485   20.5514 H   0  0  0  0  0  0
  -26.2774  -15.6418   20.1238 H   0  0  0  0  0  0
  -26.7250  -32.5375   23.1035 H   0  0  0  0  0  0
  -25.0097  -33.9533   25.0388 H   0  0  0  0  0  0
  -22.7305  -31.3033   21.3908 H   0  0  0  0  0  0
  -23.3705  -35.9649   23.3298 H   0  0  0  0  0  0
  -24.3633  -36.8899   22.2081 H   0  0  0  0  0  0
  -23.7212  -37.6486   23.6676 H   0  0  0  0  0  0
  -26.1156  -31.5168   20.5991 H   0  0  0  0  0  0
  -26.8622  -30.8232   22.0019 H   0  0  0  0  0  0
  -28.1249  -28.9022   21.2117 H   0  0  0  0  0  0
  -25.9212  -25.8655   19.0812 H   0  0  0  0  0  0
  -23.9563  -27.2951   19.0332 H   0  0  0  0  0  0
  -23.7908  -30.5828   19.3948 H   0  0  0  0  0  0
  -22.7687  -29.2477   19.8478 H   0  0  0  0  0  0
  -25.1259  -36.1902   25.0838 H   0  0  0  0  0  0
  -21.0037  -28.3269   24.1376 H   0  0  0  0  0  0
  -20.5718  -26.2273   23.3587 H   0  0  0  0  0  0
  -21.6665  -26.7411   22.1165 H   0  0  0  0  0  0
  -19.6918  -25.6291   21.1211 H   0  0  0  0  0  0
  -19.6695  -27.3218   20.6750 H   0  0  0  0  0  0
  -17.4208  -26.6684   21.4019 H   0  0  0  0  0  0
  -18.0362  -26.0029   22.8984 H   0  0  0  0  0  0
  -19.7972  -30.7292   24.2207 H   0  0  0  0  0  0
  -17.5034  -31.6245   24.5181 H   0  0  0  0  0  0
  -15.5377  -30.2943   23.7661 H   0  0  0  0  0  0
  -15.8715  -28.0823   22.6984 H   0  0  0  0  0  0
  -24.5936  -30.7002   25.7738 H   0  0  0  0  0  0
  -24.8878  -32.2857   26.4747 H   0  0  0  0  0  0
  -25.8012  -30.8929   27.0209 H   0  0  0  0  0  0
  -26.2994  -29.6657   24.1229 H   0  0  0  0  0  0
  -27.4070  -29.7238   25.4728 H   0  0  0  0  0  0
  -27.8870  -30.4186   23.9455 H   0  0  0  0  0  0
  -27.2699  -33.3591   26.1992 H   0  0  0  0  0  0
  -28.3932  -32.6755   25.0325 H   0  0  0  0  0  0
  -28.0698  -31.8405   26.5408 H   0  0  0  0  0  0
  -28.2567  -38.0098   24.7555 H   0  0  0  0  0  0
  -28.1066  -36.2630   24.6257 H   0  0  0  0  0  0
  -27.2341  -37.1426   25.8893 H   0  0  0  0  0  0
  -20.9424  -29.8742   21.6851 H   0  0  0  0  0  0
  -26.0148  -38.2823   24.1404 H   0  0  0  0  0  0
  -27.9538  -20.7691   18.8992 H   0  0  0  0  0  0
  -29.8741  -22.9154   22.0908 H   0  0  0  0  0  0
  -28.3754  -18.3905   18.5924 H   0  0  0  0  0  0
  -27.7975  -17.7556   20.0838 H   0  0  0  0  0  0
  -30.6558  -18.3112   23.0584 H   0  0  0  0  0  0
  -31.4849  -18.1104   21.5581 H   0  0  0  0  0  0
  -30.7807  -17.4235   19.3285 H   0  0  0  0  0  0
  -29.5648  -16.4193   18.6134 H   0  0  0  0  0  0
  -28.7617  -16.7854   22.2408 H   0  0  0  0  0  0
  -30.2949  -16.1051   22.6504 H   0  0  0  0  0  0
  -31.3774  -21.8508   23.4620 H   0  0  0  0  0  0
  -31.8355  -20.1754   23.2404 H   0  0  0  0  0  0
  -30.4133  -20.5768   24.2152 H   0  0  0  0  0  0
  -27.5186  -22.6957   17.9594 H   0  0  0  0  0  0
  -27.0450  -24.3292   18.2756 H   0  0  0  0  0  0
  -26.3493  -23.0275   19.2408 H   0  0  0  0  0  0
  -27.1290  -24.7874   21.1397 H   0  0  0  0  0  0
  -28.8018  -24.8394   21.5136 H   0  0  0  0  0  0
  -29.2863  -23.8022   19.1892 H   0  0  0  0  0  0
  1 25  1  0  0  0
  1 30  2  0  0  0
  1 85  1  0  0  0
  2  3  1  0  0  0
  2 25  1  0  0  0
  2 86  1  0  0  0
  2 87  1  0  0  0
  3  4  1  0  0  0
  3 88  1  0  0  0
  3 89  1  0  0  0
  4  5  1  0  0  0
  4 90  1  0  0  0
  4 91  1  0  0  0
  5  6  1  0  0  0
  5 26  1  0  0  0
  5 92  1  0  0  0
  6 25  1  0  0  0
  6 93  1  0  0  0
  6 94  1  0  0  0
  7  8  2  0  0  0
  7 26  1  0  0  0
  7 29  1  0  0  0
  8  9  1  0  0  0
  8 22  1  0  0  0
  9 10  1  0  0  0
  9 27  2  0  0  0
 10 11  2  0  0  0
 10 15  1  0  0  0
 11 12  1  0  0  0
 11 95  1  0  0  0
 12 13  2  0  0  0
 12 96  1  0  0  0
 13 14  1  0  0  0
 13 31  1  0  0  0
 14 15  2  0  0  0
 14 97  1  0  0  0
 15 98  1  0  0  0
 16 17  2  0  0  0
 16 21  1  0  0  0
 16 31  1  0  0  0
 17 18  1  0  0  0
 17 99  1  0  0  0
 18 19  2  0  0  0
 18100  1  0  0  0
 19 20  1  0  0  0
 19 24  1  0  0  0
 20 21  2  0  0  0
 20101  1  0  0  0
 21 23  1  0  0  0
 22 28  1  0  0  0
 22 32  2  0  0  0
 26 27  1  0  0  0
 28102  1  0  0  0
 28103  1  0  0  0
 29104  1  0  0  0
 29105  1  0  0  0
 33 34  1  0  0  0
 33 66  1  0  0  0
 33 70  2  0  0  0
 34 36  1  0  0  0
 34 59  1  0  0  0
 34106  1  0  0  0
 35 44  2  0  0  0
 35 45  1  0  0  0
 35 68  1  0  0  0
 36 56  1  0  0  0
 36107  1  0  0  0
 37 39  1  0  0  0
 37 47  1  0  0  0
 37 66  1  0  0  0
 37108  1  0  0  0
 38 43  2  0  0  0
 38 46  1  0  0  0
 38 47  1  0  0  0
 39 64  1  0  0  0
 39 67  2  0  0  0
 40 52  1  0  0  0
 40 53  2  0  0  0
 40 58  1  0  0  0
 41109  1  0  0  0
 41110  1  0  0  0
 41111  1  0  0  0
 41 48  1  0  0  0
 42 43  1  0  0  0
 42 66  1  0  0  0
 42112  1  0  0  0
 42113  1  0  0  0
 43 44  1  0  0  0
 44114  1  0  0  0
 45 46  2  0  0  0
 45115  1  0  0  0
 46116  1  0  0  0
 47117  1  0  0  0
 47118  1  0  0  0
 48 56  1  0  0  0
 48 65  1  0  0  0
 48119  1  0  0  0
 49 50  1  0  0  0
 49 53  1  0  0  0
 49 64  1  0  0  0
 49120  1  0  0  0
 50 51  1  0  0  0
 50121  1  0  0  0
 50122  1  0  0  0
 51 52  1  0  0  0
 51123  1  0  0  0
 51124  1  0  0  0
 52125  1  0  0  0
 52126  1  0  0  0
 53 54  1  0  0  0
 54 55  2  0  0  0
 54127  1  0  0  0
 55 57  1  0  0  0
 55128  1  0  0  0
 56 69  2  0  0  0
 57 58  2  0  0  0
 57129  1  0  0  0
 58130  1  0  0  0
 59 60  1  0  0  0
 59 61  1  0  0  0
 59 62  1  0  0  0
 60131  1  0  0  0
 60132  1  0  0  0
 60133  1  0  0  0
 61134  1  0  0  0
 61135  1  0  0  0
 61136  1  0  0  0
 62137  1  0  0  0
 62138  1  0  0  0
 62139  1  0  0  0
 63 65  1  0  0  0
 63140  1  0  0  0
 63141  1  0  0  0
 63142  1  0  0  0
 64143  1  0  0  0
 65144  1  0  0  0
 68 83  1  0  0  0
 71 73  2  0  0  0
 71 75  1  0  0  0
 71145  1  0  0  0
 72 75  2  0  0  0
 72 76  1  0  0  0
 72146  1  0  0  0
 73 74  1  0  0  0
 73 77  1  0  0  0
 74 76  2  0  0  0
 74 78  1  0  0  0
 75 84  1  0  0  0
 76 81  1  0  0  0
 77 79  1  0  0  0
 77147  1  0  0  0
 77148  1  0  0  0
 78 80  1  0  0  0
 78149  1  0  0  0
 78150  1  0  0  0
 79 85  1  0  0  0
 79151  1  0  0  0
 79152  1  0  0  0
 80 85  1  0  0  0
 80153  1  0  0  0
 80154  1  0  0  0
 81155  1  0  0  0
 81156  1  0  0  0
 81157  1  0  0  0
 82158  1  0  0  0
 82159  1  0  0  0
 82160  1  0  0  0
 82 84  1  0  0  0
 83 84  1  0  0  0
 83161  1  0  0  0
 83162  1  0  0  0
 84163  1  0  0  0
M  ISO  4   1 100  68 101  83 101  85 100
M  END
> <chiral flag>
0

> <version>
0

> <s_m_source_file>
/data/baiqing/PycharmProjects/Reinvent-master-3.2/result/LINK_invent/BTK/process_docking_weight1_custom_sum_contain_oxygen_bond_distance_aromatic_linkinvent_7_9_3/rearranged_h_0161.sdf

> <i_m_source_file_index>
32

> <r_mmod_Potential_Energy-OPLS-2005>
458.534027099609

> <r_mmod_Stretch_Energy-OPLS-2005>
152.093643188477

> <r_mmod_Bend_Energy-OPLS-2005>
206.820465087891

> <r_mmod_Torsional_Energy-OPLS-2005>
350.938323974609

> <r_mmod_Improper_Torsional_Energy-OPLS-2005>
11.3345890045166

> <r_mmod_Van_der_Waal_Energy-OPLS-2005>
142.803756713867

> <r_mmod_Electrostatic_Energy-OPLS-2005>
-320.324371337891

> <r_mmod_Solvation_Energy-OPLS-2005>
-191.232513427734

> <b_mmod_Minimization_Converged-OPLS-2005>
0

> <r_mmod_RMS_Derivative-OPLS-2005>
4.12677145004272

$$$$
32
                    3D
 Structure written by MMmdl.
166175  0  0  1  0            999 V2000
  -30.6300  -14.8715   20.4280 C   0  0  0  0  0  0
  -30.4220  -12.5492   19.4760 C   0  0  0  0  0  0
  -29.5011  -12.5001   18.2396 C   0  0  0  0  0  0
  -28.0416  -12.2772   18.6750 C   0  0  0  0  0  0
  -27.6202  -13.2201   19.8297 C   0  0  2  0  0  0
  -28.6712  -13.2888   20.9592 C   0  0  0  0  0  0
  -25.2474  -13.8135   20.5740 C   0  0  0  0  0  0
  -24.1764  -13.0401   20.9250 C   0  0  0  0  0  0
  -24.6356  -11.6880   20.8805 C   0  0  0  0  0  0
  -23.9044  -10.4264   21.0448 C   0  0  0  0  0  0
  -24.3604   -9.4175   21.9211 C   0  0  0  0  0  0
  -23.6279   -8.2213   22.0770 C   0  0  0  0  0  0
  -22.4266   -8.0263   21.3551 C   0  0  0  0  0  0
  -21.9902   -9.0241   20.4658 C   0  0  0  0  0  0
  -22.7230  -10.2116   20.3079 C   0  0  0  0  0  0
  -21.6840   -6.0725   22.5285 C   0  0  0  0  0  0
  -21.4010   -6.5637   23.8217 C   0  0  0  0  0  0
  -21.3657   -5.6796   24.9184 C   0  0  0  0  0  0
  -21.6048   -4.3057   24.7237 C   0  0  0  0  0  0
  -21.8819   -3.8146   23.4362 C   0  0  0  0  0  0
  -21.9191   -4.6957   22.3416 C   0  0  0  0  0  0
  -22.7794  -13.5210   21.1883 C   0  0  0  0  0  0
  -22.1654   -4.2145   21.0994 F   0  0  0  0  0  0
  -21.5631   -3.4544   25.7752 F   0  0  0  0  0  0
  -29.9473  -13.6646   20.3402 N   0  0  0  0  0  0
  -26.2849  -12.9299   20.3285 N   0  0  0  0  0  0
  -25.9278  -11.6468   20.5815 N   0  0  0  0  0  0
  -22.0427  -12.8209   22.0427 N   0  0  0  0  0  0
  -25.4191  -15.1853   20.4141 N   0  0  0  0  0  0
  -31.8463  -14.8385   20.2156 O   0  0  0  0  0  0
  -21.6628   -6.8862   21.4245 O   0  0  0  0  0  0
  -22.3504  -14.5526   20.6724 O   0  0  0  0  0  0
  -24.6372  -31.8502   23.1944 C   0  0  0  0  0  0
  -25.9175  -32.4729   23.8319 C   0  0  1  0  0  0
  -27.2145  -27.2038   20.1465 C   0  0  0  0  0  0
  -25.5946  -33.8537   24.2231 N   0  0  0  0  0  0
  -23.4366  -30.4720   21.5387 C   0  0  2  0  0  0
  -24.8839  -28.9052   20.1152 C   0  0  0  0  0  0
  -22.7522  -29.4594   22.4894 C   0  0  0  0  0  0
  -18.0293  -28.1397   22.8502 C   0  0  0  0  0  0
  -24.1486  -36.7260   23.2645 C   0  0  0  0  0  0
  -25.9880  -30.7445   21.3832 C   0  0  0  0  0  0
  -26.0598  -29.3623   20.7246 C   0  0  0  0  0  0
  -27.2314  -28.5284   20.7194 C   0  0  0  0  0  0
  -26.0168  -26.8265   19.5054 C   0  0  0  0  0  0
  -24.8698  -27.6471   19.4927 C   0  0  0  0  0  0
  -23.6578  -29.7998   20.1583 C   0  0  0  0  0  0
  -25.4122  -36.3053   24.0318 C   0  0  1  0  0  0
  -20.5901  -28.3722   23.1251 C   0  0  2  0  0  0
  -20.6782  -26.9434   22.5408 C   0  0  0  0  0  0
  -19.5748  -26.6387   21.5221 C   0  0  0  0  0  0
  -18.1927  -26.7945   22.1626 C   0  0  0  0  0  0
  -19.1548  -28.8874   23.2869 C   0  0  0  0  0  0
  -18.9472  -30.1473   23.8891 C   0  0  0  0  0  0
  -17.6471  -30.6607   24.0556 C   0  0  0  0  0  0
  -25.9066  -34.9424   23.5081 C   0  0  0  0  0  0
  -16.5362  -29.9098   23.6343 C   0  0  0  0  0  0
  -16.7278  -28.6504   23.0389 C   0  0  0  0  0  0
  -26.4519  -31.6592   25.0744 C   0  0  0  0  0  0
  -25.3716  -31.3752   26.1444 C   0  0  0  0  0  0
  -27.0406  -30.3003   24.6309 C   0  0  0  0  0  0
  -27.6050  -32.4376   25.7520 C   0  0  0  0  0  0
  -27.5579  -37.1779   24.8461 C   0  0  0  0  0  0
  -21.4222  -29.3058   22.3626 N   0  0  0  0  0  0
  -26.4284  -37.3762   23.9416 N   0  0  0  0  0  0
  -24.7070  -31.0421   22.0941 N   0  0  0  0  0  0
  -23.4185  -28.8137   23.3023 O   0  0  0  0  0  0
  -28.2897  -26.2697   20.1582 O   0  0  0  0  0  0
  -26.5639  -34.8900   22.4649 O   0  0  0  0  0  0
  -23.5508  -32.1355   23.7200 O   0  0  0  0  0  0
  -29.8179  -22.4696   17.9798 C   0  0  0  0  0  0
  -29.2896  -20.9110   19.8332 C   0  0  0  0  0  0
  -29.8324  -21.1725   18.5368 C   0  0  0  0  0  0
  -29.2836  -23.6000   18.6247 C   0  0  0  0  0  0
  -28.7470  -22.1233   20.4997 C   0  0  0  0  0  0
  -28.7258  -23.4944   19.9206 C   0  0  0  0  0  0
  -28.6908  -18.1921   19.5707 C   0  0  0  0  0  0
  -30.6604  -18.7428   20.8928 C   0  0  0  0  0  0
  -28.7310  -16.6834   20.1187 C   0  0  0  0  0  0
  -30.6694  -17.2388   21.4452 C   0  0  0  0  0  0
  -29.2912  -19.3726   20.4380 C   0  0  0  0  0  0
  -30.4339  -20.1101   17.6260 C   0  0  0  0  0  0
  -29.3173  -24.9170   17.8655 C   0  0  0  0  0  0
  -28.1505  -21.9249   21.8854 C   0  0  0  0  0  0
  -28.0491  -24.8202   20.5936 C   0  0  0  0  0  0
  -30.0112  -16.1309   20.6667 N   0  0  0  0  0  0
  -31.4571  -12.6783   19.1566 H   0  0  0  0  0  0
  -30.3966  -11.6049   20.0209 H   0  0  0  0  0  0
  -29.8168  -11.7039   17.5638 H   0  0  0  0  0  0
  -29.5833  -13.4311   17.6765 H   0  0  0  0  0  0
  -27.9521  -11.2393   18.9985 H   0  0  0  0  0  0
  -27.3686  -12.3886   17.8246 H   0  0  0  0  0  0
  -27.5547  -14.1963   19.3660 H   0  0  0  0  0  0
  -28.7576  -12.3341   21.4797 H   0  0  0  0  0  0
  -28.3808  -14.0280   21.7080 H   0  0  0  0  0  0
  -25.2750   -9.5638   22.4791 H   0  0  0  0  0  0
  -23.9984   -7.4600   22.7487 H   0  0  0  0  0  0
  -21.0836   -8.8764   19.8964 H   0  0  0  0  0  0
  -22.3703  -10.9661   19.6194 H   0  0  0  0  0  0
  -21.1993   -7.6143   23.9717 H   0  0  0  0  0  0
  -21.1482   -6.0531   25.9085 H   0  0  0  0  0  0
  -22.0601   -2.7611   23.2874 H   0  0  0  0  0  0
  -22.4032  -11.9861   22.4798 H   0  0  0  0  0  0
  -21.1053  -13.1246   22.2643 H   0  0  0  0  0  0
  -24.6576  -15.8445   20.5338 H   0  0  0  0  0  0
  -26.2727  -15.6200   20.0900 H   0  0  0  0  0  0
  -26.7242  -32.5345   23.1057 H   0  0  0  0  0  0
  -25.0089  -33.9674   25.0375 H   0  0  0  0  0  0
  -22.7378  -31.2969   21.3873 H   0  0  0  0  0  0
  -23.3767  -35.9571   23.3284 H   0  0  0  0  0  0
  -24.3568  -36.8922   22.2065 H   0  0  0  0  0  0
  -23.7212  -37.6435   23.6699 H   0  0  0  0  0  0
  -26.1409  -31.5046   20.6160 H   0  0  0  0  0  0
  -26.8594  -30.7893   22.0249 H   0  0  0  0  0  0
  -28.1354  -28.8784   21.1980 H   0  0  0  0  0  0
  -25.9538  -25.8642   19.0176 H   0  0  0  0  0  0
  -23.9698  -27.2925   19.0092 H   0  0  0  0  0  0
  -23.7851  -30.5731   19.4002 H   0  0  0  0  0  0
  -22.7742  -29.2355   19.8535 H   0  0  0  0  0  0
  -25.1307  -36.1895   25.0808 H   0  0  0  0  0  0
  -20.9990  -28.3321   24.1368 H   0  0  0  0  0  0
  -20.5693  -26.2341   23.3627 H   0  0  0  0  0  0
  -21.6649  -26.7458   22.1193 H   0  0  0  0  0  0
  -19.6901  -25.6287   21.1273 H   0  0  0  0  0  0
  -19.6680  -27.3179   20.6737 H   0  0  0  0  0  0
  -17.4201  -26.6722   21.4018 H   0  0  0  0  0  0
  -18.0302  -26.0084   22.9014 H   0  0  0  0  0  0
  -19.7945  -30.7294   24.2261 H   0  0  0  0  0  0
  -17.5025  -31.6288   24.5157 H   0  0  0  0  0  0
  -15.5360  -30.2996   23.7673 H   0  0  0  0  0  0
  -15.8681  -28.0803   22.7141 H   0  0  0  0  0  0
  -24.5882  -30.7127   25.7747 H   0  0  0  0  0  0
  -24.8915  -32.2920   26.4876 H   0  0  0  0  0  0
  -25.8002  -30.8906   27.0225 H   0  0  0  0  0  0
  -26.3037  -29.6716   24.1300 H   0  0  0  0  0  0
  -27.4018  -29.7316   25.4890 H   0  0  0  0  0  0
  -27.8934  -30.4268   23.9636 H   0  0  0  0  0  0
  -27.2642  -33.3687   26.2065 H   0  0  0  0  0  0
  -28.3867  -32.6942   25.0354 H   0  0  0  0  0  0
  -28.0721  -31.8539   26.5464 H   0  0  0  0  0  0
  -28.2577  -38.0100   24.7558 H   0  0  0  0  0  0
  -28.1106  -36.2635   24.6246 H   0  0  0  0  0  0
  -27.2296  -37.1370   25.8861 H   0  0  0  0  0  0
  -20.9422  -29.8764   21.6809 H   0  0  0  0  0  0
  -26.0158  -38.2826   24.1449 H   0  0  0  0  0  0
  -30.2263  -22.6013   16.9867 H   0  0  0  0  0  0
  -27.6565  -18.4427   19.3318 H   0  0  0  0  0  0
  -29.1881  -18.1455   18.6092 H   0  0  0  0  0  0
  -31.3880  -18.7860   20.0888 H   0  0  0  0  0  0
  -31.0798  -19.3887   21.6653 H   0  0  0  0  0  0
  -28.4303  -16.0627   19.2799 H   0  0  0  0  0  0
  -27.9709  -16.5654   20.8916 H   0  0  0  0  0  0
  -30.1832  -17.2434   22.4211 H   0  0  0  0  0  0
  -31.7052  -16.9673   21.6543 H   0  0  0  0  0  0
  -28.6674  -19.4023   21.3303 H   0  0  0  0  0  0
  -31.1474  -20.5522   16.9297 H   0  0  0  0  0  0
  -29.6521  -19.6460   17.0245 H   0  0  0  0  0  0
  -30.9857  -19.3375   18.1466 H   0  0  0  0  0  0
  -29.7096  -24.7951   16.8554 H   0  0  0  0  0  0
  -29.9606  -25.6346   18.3747 H   0  0  0  0  0  0
  -28.3169  -25.3405   17.7712 H   0  0  0  0  0  0
  -27.2144  -21.3700   21.8186 H   0  0  0  0  0  0
  -27.9417  -22.8560   22.4057 H   0  0  0  0  0  0
  -28.8364  -21.3629   22.5201 H   0  0  0  0  0  0
  -28.3759  -24.8271   21.6325 H   0  0  0  0  0  0
  -26.9788  -24.6239   20.6429 H   0  0  0  0  0  0
  1 25  1  0  0  0
  1 30  2  0  0  0
  1 86  1  0  0  0
  2  3  1  0  0  0
  2 25  1  0  0  0
  2 87  1  0  0  0
  2 88  1  0  0  0
  3  4  1  0  0  0
  3 89  1  0  0  0
  3 90  1  0  0  0
  4  5  1  0  0  0
  4 91  1  0  0  0
  4 92  1  0  0  0
  5  6  1  0  0  0
  5 26  1  0  0  0
  5 93  1  0  0  0
  6 25  1  0  0  0
  6 94  1  0  0  0
  6 95  1  0  0  0
  7  8  2  0  0  0
  7 26  1  0  0  0
  7 29  1  0  0  0
  8  9  1  0  0  0
  8 22  1  0  0  0
  9 10  1  0  0  0
  9 27  2  0  0  0
 10 11  2  0  0  0
 10 15  1  0  0  0
 11 12  1  0  0  0
 11 96  1  0  0  0
 12 13  2  0  0  0
 12 97  1  0  0  0
 13 14  1  0  0  0
 13 31  1  0  0  0
 14 15  2  0  0  0
 14 98  1  0  0  0
 15 99  1  0  0  0
 16 17  2  0  0  0
 16 21  1  0  0  0
 16 31  1  0  0  0
 17 18  1  0  0  0
 17100  1  0  0  0
 18 19  2  0  0  0
 18101  1  0  0  0
 19 20  1  0  0  0
 19 24  1  0  0  0
 20 21  2  0  0  0
 20102  1  0  0  0
 21 23  1  0  0  0
 22 28  1  0  0  0
 22 32  2  0  0  0
 26 27  1  0  0  0
 28103  1  0  0  0
 28104  1  0  0  0
 29105  1  0  0  0
 29106  1  0  0  0
 33 34  1  0  0  0
 33 66  1  0  0  0
 33 70  2  0  0  0
 34 36  1  0  0  0
 34 59  1  0  0  0
 34107  1  0  0  0
 35 44  2  0  0  0
 35 45  1  0  0  0
 35 68  1  0  0  0
 36 56  1  0  0  0
 36108  1  0  0  0
 37 39  1  0  0  0
 37 47  1  0  0  0
 37 66  1  0  0  0
 37109  1  0  0  0
 38 43  2  0  0  0
 38 46  1  0  0  0
 38 47  1  0  0  0
 39 64  1  0  0  0
 39 67  2  0  0  0
 40 52  1  0  0  0
 40 53  2  0  0  0
 40 58  1  0  0  0
 41110  1  0  0  0
 41111  1  0  0  0
 41112  1  0  0  0
 41 48  1  0  0  0
 42 43  1  0  0  0
 42 66  1  0  0  0
 42113  1  0  0  0
 42114  1  0  0  0
 43 44  1  0  0  0
 44115  1  0  0  0
 45 46  2  0  0  0
 45116  1  0  0  0
 46117  1  0  0  0
 47118  1  0  0  0
 47119  1  0  0  0
 48 56  1  0  0  0
 48 65  1  0  0  0
 48120  1  0  0  0
 49 50  1  0  0  0
 49 53  1  0  0  0
 49 64  1  0  0  0
 49121  1  0  0  0
 50 51  1  0  0  0
 50122  1  0  0  0
 50123  1  0  0  0
 51 52  1  0  0  0
 51124  1  0  0  0
 51125  1  0  0  0
 52126  1  0  0  0
 52127  1  0  0  0
 53 54  1  0  0  0
 54 55  2  0  0  0
 54128  1  0  0  0
 55 57  1  0  0  0
 55129  1  0  0  0
 56 69  2  0  0  0
 57 58  2  0  0  0
 57130  1  0  0  0
 58131  1  0  0  0
 59 60  1  0  0  0
 59 61  1  0  0  0
 59 62  1  0  0  0
 60132  1  0  0  0
 60133  1  0  0  0
 60134  1  0  0  0
 61135  1  0  0  0
 61136  1  0  0  0
 61137  1  0  0  0
 62138  1  0  0  0
 62139  1  0  0  0
 62140  1  0  0  0
 63 65  1  0  0  0
 63141  1  0  0  0
 63142  1  0  0  0
 63143  1  0  0  0
 64144  1  0  0  0
 65145  1  0  0  0
 68 85  1  0  0  0
 71 73  2  0  0  0
 71 74  1  0  0  0
 71146  1  0  0  0
 72 73  1  0  0  0
 72 75  2  0  0  0
 72 81  1  0  0  0
 73 82  1  0  0  0
 74 76  2  0  0  0
 74 83  1  0  0  0
 75 76  1  0  0  0
 75 84  1  0  0  0
 76 85  1  0  0  0
 77 79  1  0  0  0
 77 81  1  0  0  0
 77147  1  0  0  0
 77148  1  0  0  0
 78 80  1  0  0  0
 78 81  1  0  0  0
 78149  1  0  0  0
 78150  1  0  0  0
 79 86  1  0  0  0
 79151  1  0  0  0
 79152  1  0  0  0
 80 86  1  0  0  0
 80153  1  0  0  0
 80154  1  0  0  0
 81155  1  0  0  0
 82156  1  0  0  0
 82157  1  0  0  0
 82158  1  0  0  0
 83159  1  0  0  0
 83160  1  0  0  0
 83161  1  0  0  0
 84162  1  0  0  0
 84163  1  0  0  0
 84164  1  0  0  0
 85165  1  0  0  0
 85166  1  0  0  0
M  ISO  4   1 100  68 101  85 101  86 100
M  END
> <chiral flag>
0

> <version>
0

> <s_m_source_file>
/data/baiqing/PycharmProjects/Reinvent-master-3.2/result/LINK_invent/BTK/process_docking_weight1_custom_sum_contain_oxygen_bond_distance_aromatic_linkinvent_7_9_3/rearranged_h_0161.sdf

> <i_m_source_file_index>
33

> <r_mmod_Potential_Energy-OPLS-2005>
586.309020996094

> <r_mmod_Stretch_Energy-OPLS-2005>
192.756790161133

> <r_mmod_Bend_Energy-OPLS-2005>
237.033660888672

> <r_mmod_Torsional_Energy-OPLS-2005>
340.697418212891

> <r_mmod_Improper_Torsional_Energy-OPLS-2005>
2.03776955604553

> <r_mmod_Van_der_Waal_Energy-OPLS-2005>
149.491973876953

> <r_mmod_Electrostatic_Energy-OPLS-2005>
-284.890777587891

> <r_mmod_Solvation_Energy-OPLS-2005>
-193.837387084961

> <b_mmod_Minimization_Converged-OPLS-2005>
0

> <r_mmod_RMS_Derivative-OPLS-2005>
1.31529986858368

$$$$
33
                    3D
 Structure written by MMmdl.
172181  0  0  1  0            999 V2000
  -30.4189  -15.3040   20.4132 C   0  0  0  0  0  0
  -30.4306  -12.8265   19.5617 C   0  0  0  0  0  0
  -29.5443  -12.5912   18.3132 C   0  0  0  0  0  0
  -28.0837  -12.3147   18.7242 C   0  0  0  0  0  0
  -27.6014  -13.2802   19.8336 C   0  0  2  0  0  0
  -28.6289  -13.4593   20.9738 C   0  0  0  0  0  0
  -25.2288  -13.8262   20.5750 C   0  0  0  0  0  0
  -24.1649  -13.0442   20.9229 C   0  0  0  0  0  0
  -24.6312  -11.6925   20.8669 C   0  0  0  0  0  0
  -23.9033  -10.4250   21.0384 C   0  0  0  0  0  0
  -24.3586   -9.4194   21.9172 C   0  0  0  0  0  0
  -23.6260   -8.2251   22.0731 C   0  0  0  0  0  0
  -22.4214   -8.0263   21.3550 C   0  0  0  0  0  0
  -21.9904   -9.0259   20.4683 C   0  0  0  0  0  0
  -22.7203  -10.2118   20.3094 C   0  0  0  0  0  0
  -21.6888   -6.0687   22.5282 C   0  0  0  0  0  0
  -21.4005   -6.5587   23.8198 C   0  0  0  0  0  0
  -21.3669   -5.6772   24.9168 C   0  0  0  0  0  0
  -21.6057   -4.3018   24.7213 C   0  0  0  0  0  0
  -21.8819   -3.8097   23.4323 C   0  0  0  0  0  0
  -21.9202   -4.6903   22.3391 C   0  0  0  0  0  0
  -22.7680  -13.5272   21.1941 C   0  0  0  0  0  0
  -22.1687   -4.2082   21.0976 F   0  0  0  0  0  0
  -21.5629   -3.4564   25.7726 F   0  0  0  0  0  0
  -29.8583  -13.9877   20.3619 N   0  0  0  0  0  0
  -26.2703  -12.9591   20.3224 N   0  0  0  0  0  0
  -25.9239  -11.6640   20.5605 N   0  0  0  0  0  0
  -22.0378  -12.8224   22.0430 N   0  0  0  0  0  0
  -25.3927  -15.2030   20.4182 N   0  0  0  0  0  0
  -31.6256  -15.2914   20.1072 O   0  0  0  0  0  0
  -21.6648   -6.8846   21.4218 O   0  0  0  0  0  0
  -22.3310  -14.5530   20.6759 O   0  0  0  0  0  0
  -24.6621  -31.8213   23.1649 C   0  0  0  0  0  0
  -25.9259  -32.4593   23.8124 C   0  0  1  0  0  0
  -27.2689  -26.8848   20.1763 C   0  0  0  0  0  0
  -25.5969  -33.8384   24.2006 N   0  0  0  0  0  0
  -23.4858  -30.4175   21.5217 C   0  0  2  0  0  0
  -24.9519  -28.7890   20.1285 C   0  0  0  0  0  0
  -22.7676  -29.4367   22.4865 C   0  0  0  0  0  0
  -18.0281  -28.1443   22.8403 C   0  0  0  0  0  0
  -24.1525  -36.7174   23.2645 C   0  0  0  0  0  0
  -26.0601  -30.6034   21.4116 C   0  0  0  0  0  0
  -26.1380  -29.1813   20.7605 C   0  0  0  0  0  0
  -27.2829  -28.2484   20.7673 C   0  0  0  0  0  0
  -26.0468  -26.6537   19.4945 C   0  0  0  0  0  0
  -24.9336  -27.5440   19.4871 C   0  0  0  0  0  0
  -23.7348  -29.7237   20.1537 C   0  0  0  0  0  0
  -25.4154  -36.2937   24.0259 C   0  0  1  0  0  0
  -20.5938  -28.3760   23.1247 C   0  0  2  0  0  0
  -20.6809  -26.9434   22.5469 C   0  0  0  0  0  0
  -19.5807  -26.6370   21.5239 C   0  0  0  0  0  0
  -18.1965  -26.7960   22.1597 C   0  0  0  0  0  0
  -19.1557  -28.8914   23.2790 C   0  0  0  0  0  0
  -18.9462  -30.1530   23.8814 C   0  0  0  0  0  0
  -17.6465  -30.6633   24.0545 C   0  0  0  0  0  0
  -25.9117  -34.9311   23.4956 C   0  0  0  0  0  0
  -16.5364  -29.9103   23.6377 C   0  0  0  0  0  0
  -16.7256  -28.6552   23.0317 C   0  0  0  0  0  0
  -26.4509  -31.6534   25.0658 C   0  0  0  0  0  0
  -25.3619  -31.3854   26.1314 C   0  0  0  0  0  0
  -27.0363  -30.2872   24.6436 C   0  0  0  0  0  0
  -27.6031  -32.4311   25.7461 C   0  0  0  0  0  0
  -27.5539  -37.1753   24.8408 C   0  0  0  0  0  0
  -21.4356  -29.2997   22.3528 N   0  0  0  0  0  0
  -26.4298  -37.3652   23.9383 N   0  0  0  0  0  0
  -24.7564  -30.9715   22.0841 N   0  0  0  0  0  0
  -23.4239  -28.7963   23.3150 O   0  0  0  0  0  0
  -28.2839  -25.7672   20.2549 O   0  0  0  0  0  0
  -26.5727  -34.8887   22.4569 O   0  0  0  0  0  0
  -23.5692  -32.1182   23.6737 O   0  0  0  0  0  0
  -28.6437  -18.4834   21.9565 C   0  0  0  0  0  0
  -29.0893  -19.3883   20.9620 C   0  0  0  0  0  0
  -28.2075  -18.9370   23.2084 C   0  0  0  0  0  0
  -28.8503  -20.9608   21.0914 C   0  0  0  0  0  0
  -28.2598  -20.3243   23.4970 C   0  0  0  0  0  0
  -28.5360  -21.3026   22.4800 C   0  0  0  0  0  0
  -28.7363  -16.9432   21.6198 C   0  0  0  0  0  0
  -29.7842  -18.1766   20.0128 C   0  0  1  0  0  0
  -28.0024  -20.7428   24.9391 C   0  0  0  0  0  0
  -31.2490  -18.5184   19.7164 C   0  0  0  0  0  0
  -28.7943  -17.1673   25.0519 C   0  0  0  0  0  0
  -27.5206  -24.9546   23.6539 C   0  0  0  0  0  0
  -27.7103  -17.9017   24.2451 C   0  0  0  0  0  0
  -28.9544  -22.4383   20.1049 C   0  0  0  0  0  0
  -28.6467  -22.7661   22.9419 C   0  0  0  0  0  0
  -27.3191  -23.4959   23.2620 C   0  0  0  0  0  0
  -28.1124  -24.0988   20.0082 C   0  0  0  0  0  0
  -29.6701  -16.6207   20.5263 N   0  0  0  0  0  0
  -31.4627  -13.0135   19.2578 H   0  0  0  0  0  0
  -30.4738  -11.9207   20.1699 H   0  0  0  0  0  0
  -29.9345  -11.7800   17.6963 H   0  0  0  0  0  0
  -29.5812  -13.4801   17.6884 H   0  0  0  0  0  0
  -28.0150  -11.2840   19.0645 H   0  0  0  0  0  0
  -27.4416  -12.4070   17.8499 H   0  0  0  0  0  0
  -27.5313  -14.2416   19.3354 H   0  0  0  0  0  0
  -28.7978  -12.5255   21.4904 H   0  0  0  0  0  0
  -28.2482  -14.1667   21.7218 H   0  0  0  0  0  0
  -25.2783   -9.5663   22.4705 H   0  0  0  0  0  0
  -24.0025   -7.4615   22.7460 H   0  0  0  0  0  0
  -21.0805   -8.8723   19.9025 H   0  0  0  0  0  0
  -22.3669  -10.9595   19.6139 H   0  0  0  0  0  0
  -21.2016   -7.6109   23.9662 H   0  0  0  0  0  0
  -21.1511   -6.0505   25.9070 H   0  0  0  0  0  0
  -22.0598   -2.7557   23.2856 H   0  0  0  0  0  0
  -22.4069  -11.9954   22.4856 H   0  0  0  0  0  0
  -21.1006  -13.1144   22.2786 H   0  0  0  0  0  0
  -24.5985  -15.8259   20.4696 H   0  0  0  0  0  0
  -26.2069  -15.6281   19.9891 H   0  0  0  0  0  0
  -26.7354  -32.5115   23.0828 H   0  0  0  0  0  0
  -24.9988  -33.9498   25.0099 H   0  0  0  0  0  0
  -22.7961  -31.2466   21.3418 H   0  0  0  0  0  0
  -23.3801  -35.9489   23.3246 H   0  0  0  0  0  0
  -24.3588  -36.8897   22.2073 H   0  0  0  0  0  0
  -23.7324  -37.6354   23.6761 H   0  0  0  0  0  0
  -26.2306  -31.3365   20.6234 H   0  0  0  0  0  0
  -26.9228  -30.6782   22.0649 H   0  0  0  0  0  0
  -28.1646  -28.5254   21.3315 H   0  0  0  0  0  0
  -25.9098  -25.7102   18.9883 H   0  0  0  0  0  0
  -24.0279  -27.2276   18.9855 H   0  0  0  0  0  0
  -23.9036  -30.4928   19.3941 H   0  0  0  0  0  0
  -22.8497  -29.1759   19.8206 H   0  0  0  0  0  0
  -25.1404  -36.1667   25.0745 H   0  0  0  0  0  0
  -20.9895  -28.3354   24.1431 H   0  0  0  0  0  0
  -20.5771  -26.2302   23.3659 H   0  0  0  0  0  0
  -21.6691  -26.7495   22.1249 H   0  0  0  0  0  0
  -19.6984  -25.6262   21.1327 H   0  0  0  0  0  0
  -19.6822  -27.3152   20.6761 H   0  0  0  0  0  0
  -17.4236  -26.6647   21.3991 H   0  0  0  0  0  0
  -18.0348  -26.0171   22.9065 H   0  0  0  0  0  0
  -19.7953  -30.7350   24.2161 H   0  0  0  0  0  0
  -17.5033  -31.6306   24.5156 H   0  0  0  0  0  0
  -15.5372  -30.2994   23.7784 H   0  0  0  0  0  0
  -15.8641  -28.0894   22.7067 H   0  0  0  0  0  0
  -24.5826  -30.7140   25.7633 H   0  0  0  0  0  0
  -24.8797  -32.3098   26.4521 H   0  0  0  0  0  0
  -25.7852  -30.9179   27.0218 H   0  0  0  0  0  0
  -26.2992  -29.6574   24.1425 H   0  0  0  0  0  0
  -27.3796  -29.7221   25.5109 H   0  0  0  0  0  0
  -27.8996  -30.3982   23.9875 H   0  0  0  0  0  0
  -27.2613  -33.3671   26.1904 H   0  0  0  0  0  0
  -28.3935  -32.6760   25.0334 H   0  0  0  0  0  0
  -28.0558  -31.8490   26.5506 H   0  0  0  0  0  0
  -28.2539  -38.0080   24.7471 H   0  0  0  0  0  0
  -28.1107  -36.2589   24.6243 H   0  0  0  0  0  0
  -27.2226  -37.1359   25.8818 H   0  0  0  0  0  0
  -20.9611  -29.8585   21.6560 H   0  0  0  0  0  0
  -26.0075  -38.2693   24.1496 H   0  0  0  0  0  0
  -27.7450  -16.5897   21.3394 H   0  0  0  0  0  0
  -29.0220  -16.3503   22.4774 H   0  0  0  0  0  0
  -29.2352  -18.2048   19.0725 H   0  0  0  0  0  0
  -28.4781  -20.0576   25.6478 H   0  0  0  0  0  0
  -26.9346  -20.7571   25.1602 H   0  0  0  0  0  0
  -28.3481  -21.7204   25.2556 H   0  0  0  0  0  0
  -31.8454  -18.4727   20.6323 H   0  0  0  0  0  0
  -31.3452  -19.5091   19.2718 H   0  0  0  0  0  0
  -31.6375  -17.7947   19.0052 H   0  0  0  0  0  0
  -29.3333  -17.8443   25.7100 H   0  0  0  0  0  0
  -29.5627  -16.6835   24.4530 H   0  0  0  0  0  0
  -28.3447  -16.3876   25.6700 H   0  0  0  0  0  0
  -26.5761  -25.4217   23.9347 H   0  0  0  0  0  0
  -27.9312  -25.5414   22.8250 H   0  0  0  0  0  0
  -28.1752  -25.0605   24.5143 H   0  0  0  0  0  0
  -27.1029  -17.1521   23.7352 H   0  0  0  0  0  0
  -27.0224  -18.3724   24.9543 H   0  0  0  0  0  0
  -28.7169  -22.0144   19.1272 H   0  0  0  0  0  0
  -30.0244  -22.6320   20.0049 H   0  0  0  0  0  0
  -29.2353  -23.3686   22.2700 H   0  0  0  0  0  0
  -29.2728  -22.7811   23.8253 H   0  0  0  0  0  0
  -26.6612  -23.4450   22.3964 H   0  0  0  0  0  0
  -26.7783  -23.0212   24.0735 H   0  0  0  0  0  0
  -27.1050  -23.9287   19.6106 H   0  0  0  0  0  0
  -28.6411  -24.2768   19.0687 H   0  0  0  0  0  0
  1 25  1  0  0  0
  1 30  2  0  0  0
  1 88  1  0  0  0
  2  3  1  0  0  0
  2 25  1  0  0  0
  2 89  1  0  0  0
  2 90  1  0  0  0
  3  4  1  0  0  0
  3 91  1  0  0  0
  3 92  1  0  0  0
  4  5  1  0  0  0
  4 93  1  0  0  0
  4 94  1  0  0  0
  5  6  1  0  0  0
  5 26  1  0  0  0
  5 95  1  0  0  0
  6 25  1  0  0  0
  6 96  1  0  0  0
  6 97  1  0  0  0
  7  8  2  0  0  0
  7 26  1  0  0  0
  7 29  1  0  0  0
  8  9  1  0  0  0
  8 22  1  0  0  0
  9 10  1  0  0  0
  9 27  2  0  0  0
 10 11  2  0  0  0
 10 15  1  0  0  0
 11 12  1  0  0  0
 11 98  1  0  0  0
 12 13  2  0  0  0
 12 99  1  0  0  0
 13 14  1  0  0  0
 13 31  1  0  0  0
 14 15  2  0  0  0
 14100  1  0  0  0
 15101  1  0  0  0
 16 17  2  0  0  0
 16 21  1  0  0  0
 16 31  1  0  0  0
 17 18  1  0  0  0
 17102  1  0  0  0
 18 19  2  0  0  0
 18103  1  0  0  0
 19 20  1  0  0  0
 19 24  1  0  0  0
 20 21  2  0  0  0
 20104  1  0  0  0
 21 23  1  0  0  0
 22 28  1  0  0  0
 22 32  2  0  0  0
 26 27  1  0  0  0
 28105  1  0  0  0
 28106  1  0  0  0
 29107  1  0  0  0
 29108  1  0  0  0
 33 34  1  0  0  0
 33 66  1  0  0  0
 33 70  2  0  0  0
 34 36  1  0  0  0
 34 59  1  0  0  0
 34109  1  0  0  0
 35 44  2  0  0  0
 35 45  1  0  0  0
 35 68  1  0  0  0
 36 56  1  0  0  0
 36110  1  0  0  0
 37 39  1  0  0  0
 37 47  1  0  0  0
 37 66  1  0  0  0
 37111  1  0  0  0
 38 43  2  0  0  0
 38 46  1  0  0  0
 38 47  1  0  0  0
 39 64  1  0  0  0
 39 67  2  0  0  0
 40 52  1  0  0  0
 40 53  2  0  0  0
 40 58  1  0  0  0
 41112  1  0  0  0
 41113  1  0  0  0
 41114  1  0  0  0
 41 48  1  0  0  0
 42 43  1  0  0  0
 42 66  1  0  0  0
 42115  1  0  0  0
 42116  1  0  0  0
 43 44  1  0  0  0
 44117  1  0  0  0
 45 46  2  0  0  0
 45118  1  0  0  0
 46119  1  0  0  0
 47120  1  0  0  0
 47121  1  0  0  0
 48 56  1  0  0  0
 48 65  1  0  0  0
 48122  1  0  0  0
 49 50  1  0  0  0
 49 53  1  0  0  0
 49 64  1  0  0  0
 49123  1  0  0  0
 50 51  1  0  0  0
 50124  1  0  0  0
 50125  1  0  0  0
 51 52  1  0  0  0
 51126  1  0  0  0
 51127  1  0  0  0
 52128  1  0  0  0
 52129  1  0  0  0
 53 54  1  0  0  0
 54 55  2  0  0  0
 54130  1  0  0  0
 55 57  1  0  0  0
 55131  1  0  0  0
 56 69  2  0  0  0
 57 58  2  0  0  0
 57132  1  0  0  0
 58133  1  0  0  0
 59 60  1  0  0  0
 59 61  1  0  0  0
 59 62  1  0  0  0
 60134  1  0  0  0
 60135  1  0  0  0
 60136  1  0  0  0
 61137  1  0  0  0
 61138  1  0  0  0
 61139  1  0  0  0
 62140  1  0  0  0
 62141  1  0  0  0
 62142  1  0  0  0
 63 65  1  0  0  0
 63143  1  0  0  0
 63144  1  0  0  0
 63145  1  0  0  0
 64146  1  0  0  0
 65147  1  0  0  0
 68 87  1  0  0  0
 71 72  1  0  0  0
 71 73  2  0  0  0
 71 77  1  0  0  0
 72 74  2  0  0  0
 72 78  1  0  0  0
 73 75  1  0  0  0
 73 83  1  0  0  0
 74 76  1  0  0  0
 74 84  1  0  0  0
 75 76  2  0  0  0
 75 79  1  0  0  0
 76 85  1  0  0  0
 77 88  1  0  0  0
 77148  1  0  0  0
 77149  1  0  0  0
 78 80  1  0  0  0
 78 88  1  0  0  0
 78150  1  0  0  0
 79151  1  0  0  0
 79152  1  0  0  0
 79153  1  0  0  0
 80154  1  0  0  0
 80155  1  0  0  0
 80156  1  0  0  0
 81 83  1  0  0  0
 81157  1  0  0  0
 81158  1  0  0  0
 81159  1  0  0  0
 82 86  1  0  0  0
 82160  1  0  0  0
 82161  1  0  0  0
 82162  1  0  0  0
 83163  1  0  0  0
 83164  1  0  0  0
 84 87  1  0  0  0
 84165  1  0  0  0
 84166  1  0  0  0
 85 86  1  0  0  0
 85167  1  0  0  0
 85168  1  0  0  0
 86169  1  0  0  0
 86170  1  0  0  0
 87171  1  0  0  0
 87172  1  0  0  0
M  ISO  4   1 100  68 101  87 101  88 100
M  END
> <chiral flag>
0

> <version>
0

> <s_m_source_file>
/data/baiqing/PycharmProjects/Reinvent-master-3.2/result/LINK_invent/BTK/process_docking_weight1_custom_sum_contain_oxygen_bond_distance_aromatic_linkinvent_7_9_3/rearranged_h_0161.sdf

> <i_m_source_file_index>
34

> <r_mmod_Potential_Energy-OPLS-2005>
1787.55944824219

> <r_mmod_Stretch_Energy-OPLS-2005>
729.914184570312

> <r_mmod_Bend_Energy-OPLS-2005>
659.010559082031

> <r_mmod_Torsional_Energy-OPLS-2005>
280.752319335938

> <r_mmod_Improper_Torsional_Energy-OPLS-2005>
9.00933170318604

> <r_mmod_Van_der_Waal_Energy-OPLS-2005>
137.848968505859

> <r_mmod_Electrostatic_Energy-OPLS-2005>
-337.510772705078

> <r_mmod_Solvation_Energy-OPLS-2005>
-197.930068969727

> <b_mmod_Minimization_Converged-OPLS-2005>
0

> <r_mmod_RMS_Derivative-OPLS-2005>
20.6202754974365

$$$$
34
                    3D
 Structure written by MMmdl.
176186  0  0  1  0            999 V2000
  -30.6882  -14.4637   20.6141 C   0  0  0  0  0  0
  -30.4326  -12.3187   19.4098 C   0  0  0  0  0  0
  -29.4945  -12.5176   18.2005 C   0  0  0  0  0  0
  -28.0161  -12.3710   18.6145 C   0  0  0  0  0  0
  -27.6641  -13.2003   19.8777 C   0  0  2  0  0  0
  -28.7049  -12.9544   20.9929 C   0  0  0  0  0  0
  -25.2603  -13.8146   20.5673 C   0  0  0  0  0  0
  -24.1845  -13.0436   20.9175 C   0  0  0  0  0  0
  -24.6385  -11.6899   20.8729 C   0  0  0  0  0  0
  -23.9047  -10.4292   21.0402 C   0  0  0  0  0  0
  -24.3602   -9.4209   21.9181 C   0  0  0  0  0  0
  -23.6281   -8.2243   22.0753 C   0  0  0  0  0  0
  -22.4264   -8.0280   21.3543 C   0  0  0  0  0  0
  -21.9893   -9.0253   20.4648 C   0  0  0  0  0  0
  -22.7218  -10.2133   20.3055 C   0  0  0  0  0  0
  -21.6852   -6.0730   22.5276 C   0  0  0  0  0  0
  -21.4016   -6.5634   23.8208 C   0  0  0  0  0  0
  -21.3659   -5.6789   24.9171 C   0  0  0  0  0  0
  -21.6042   -4.3051   24.7225 C   0  0  0  0  0  0
  -21.8820   -3.8142   23.4346 C   0  0  0  0  0  0
  -21.9194   -4.6959   22.3401 C   0  0  0  0  0  0
  -22.7869  -13.5247   21.1837 C   0  0  0  0  0  0
  -22.1662   -4.2144   21.0979 F   0  0  0  0  0  0
  -21.5629   -3.4537   25.7738 F   0  0  0  0  0  0
  -30.0367  -13.2801   20.4499 N   0  0  0  0  0  0
  -26.3031  -12.9301   20.3363 N   0  0  0  0  0  0
  -25.9309  -11.6468   20.5753 N   0  0  0  0  0  0
  -22.0497  -12.8251   22.0390 N   0  0  0  0  0  0
  -25.4340  -15.1860   20.4069 N   0  0  0  0  0  0
  -31.7889  -14.7090   20.1122 O   0  0  0  0  0  0
  -21.6635   -6.8873   21.4237 O   0  0  0  0  0  0
  -22.3566  -14.5558   20.6686 O   0  0  0  0  0  0
  -24.6142  -31.8681   23.2104 C   0  0  0  0  0  0
  -25.9035  -32.4825   23.8400 C   0  0  1  0  0  0
  -27.2384  -27.4343   20.1072 C   0  0  0  0  0  0
  -25.5892  -33.8623   24.2332 N   0  0  0  0  0  0
  -23.4038  -30.4894   21.5500 C   0  0  2  0  0  0
  -24.8541  -28.9492   20.1226 C   0  0  0  0  0  0
  -22.7411  -29.4656   22.4995 C   0  0  0  0  0  0
  -18.0271  -28.1379   22.8491 C   0  0  0  0  0  0
  -24.1484  -36.7318   23.2634 C   0  0  0  0  0  0
  -25.9318  -30.8309   21.3663 C   0  0  0  0  0  0
  -26.0117  -29.4605   20.7250 C   0  0  0  0  0  0
  -27.2089  -28.7069   20.7226 C   0  0  0  0  0  0
  -26.0702  -26.9355   19.4995 C   0  0  0  0  0  0
  -24.8764  -27.6829   19.5107 C   0  0  0  0  0  0
  -23.6158  -29.8174   20.1665 C   0  0  0  0  0  0
  -25.4102  -36.3114   24.0339 C   0  0  1  0  0  0
  -20.5862  -28.3665   23.1320 C   0  0  2  0  0  0
  -20.6763  -26.9400   22.5422 C   0  0  0  0  0  0
  -19.5745  -26.6388   21.5213 C   0  0  0  0  0  0
  -18.1922  -26.7925   22.1622 C   0  0  0  0  0  0
  -19.1521  -28.8837   23.2904 C   0  0  0  0  0  0
  -18.9450  -30.1442   23.8916 C   0  0  0  0  0  0
  -17.6453  -30.6584   24.0568 C   0  0  0  0  0  0
  -25.9030  -34.9479   23.5134 C   0  0  0  0  0  0
  -16.5343  -29.9088   23.6323 C   0  0  0  0  0  0
  -16.7261  -28.6506   23.0343 C   0  0  0  0  0  0
  -26.4469  -31.6598   25.0722 C   0  0  0  0  0  0
  -25.3741  -31.3704   26.1476 C   0  0  0  0  0  0
  -27.0294  -30.3040   24.6090 C   0  0  0  0  0  0
  -27.6052  -32.4311   25.7478 C   0  0  0  0  0  0
  -27.5585  -37.1804   24.8456 C   0  0  0  0  0  0
  -21.4139  -29.3031   22.3727 N   0  0  0  0  0  0
  -26.4288  -37.3799   23.9414 N   0  0  0  0  0  0
  -24.6677  -31.0776   22.1007 N   0  0  0  0  0  0
  -23.4176  -28.8204   23.3049 O   0  0  0  0  0  0
  -28.3893  -26.6868   20.0195 O   0  0  0  0  0  0
  -26.5595  -34.8928   22.4697 O   0  0  0  0  0  0
  -23.5332  -32.1436   23.7491 O   0  0  0  0  0  0
  -27.5089  -23.2823   22.5648 C   0  0  0  0  0  0
  -26.4257  -22.2135   22.4920 C   0  0  0  0  0  0
  -27.4994  -20.0149   21.7889 C   0  0  0  0  0  0
  -29.1860  -17.6425   22.1072 C   0  0  0  0  0  0
  -30.1379  -17.7806   20.3156 C   0  0  0  0  0  0
  -27.8539  -23.5259   21.0961 C   0  0  2  0  0  0
  -29.1813  -21.2398   20.6630 C   0  0  2  0  0  0
  -30.3216  -16.8195   21.4959 C   0  0  2  0  0  0
  -28.6702  -19.7844   20.8298 C   0  0  1  0  0  0
  -26.7982  -21.3032   21.2980 C   0  0  2  0  0  0
  -27.8740  -22.0953   20.4589 C   0  0  1  0  0  0
  -30.2650  -21.3865   19.5732 C   0  0  0  0  0  0
  -25.5094  -20.9214   20.5331 C   0  0  0  0  0  0
  -27.5240  -22.2221   18.9527 C   0  0  0  0  0  0
  -29.0611  -24.4710   20.8760 C   0  0  0  0  0  0
  -28.7774  -25.9678   21.1938 C   0  0  0  0  0  0
  -29.9839  -15.4026   21.2727 N   0  0  0  0  0  0
  -29.6809  -18.7801   21.3077 N   0  3  1  0  0  0
  -31.4735  -12.4419   19.1049 H   0  0  0  0  0  0
  -30.3537  -11.3005   19.7932 H   0  0  0  0  0  0
  -29.7345  -11.7992   17.4155 H   0  0  0  0  0  0
  -29.6569  -13.5067   17.7688 H   0  0  0  0  0  0
  -27.8269  -11.3135   18.8030 H   0  0  0  0  0  0
  -27.3642  -12.6525   17.7868 H   0  0  0  0  0  0
  -27.7158  -14.2518   19.5941 H   0  0  0  0  0  0
  -28.6859  -11.9079   21.3011 H   0  0  0  0  0  0
  -28.4558  -13.5188   21.8924 H   0  0  0  0  0  0
  -25.2748   -9.5690   22.4752 H   0  0  0  0  0  0
  -23.9993   -7.4637   22.7473 H   0  0  0  0  0  0
  -21.0821   -8.8771   19.8956 H   0  0  0  0  0  0
  -22.3672  -10.9673   19.6165 H   0  0  0  0  0  0
  -21.2008   -7.6142   23.9711 H   0  0  0  0  0  0
  -21.1478   -6.0518   25.9074 H   0  0  0  0  0  0
  -22.0599   -2.7604   23.2848 H   0  0  0  0  0  0
  -22.4090  -11.9907   22.4785 H   0  0  0  0  0  0
  -21.1116  -13.1294   22.2584 H   0  0  0  0  0  0
  -24.6618  -15.8375   20.4971 H   0  0  0  0  0  0
  -26.2754  -15.6166   20.0464 H   0  0  0  0  0  0
  -26.7110  -32.5549   23.1171 H   0  0  0  0  0  0
  -25.0044  -33.9787   25.0479 H   0  0  0  0  0  0
  -22.6927  -31.3057   21.4076 H   0  0  0  0  0  0
  -23.3744  -35.9653   23.3300 H   0  0  0  0  0  0
  -24.3585  -36.8929   22.2049 H   0  0  0  0  0  0
  -23.7238  -37.6525   23.6644 H   0  0  0  0  0  0
  -26.0406  -31.5907   20.5909 H   0  0  0  0  0  0
  -26.8209  -30.8920   21.9818 H   0  0  0  0  0  0
  -28.1069  -29.1017   21.1771 H   0  0  0  0  0  0
  -26.0892  -25.9684   19.0166 H   0  0  0  0  0  0
  -23.9879  -27.2827   19.0421 H   0  0  0  0  0  0
  -23.7270  -30.5898   19.4046 H   0  0  0  0  0  0
  -22.7403  -29.2368   19.8704 H   0  0  0  0  0  0
  -25.1274  -36.1982   25.0831 H   0  0  0  0  0  0
  -20.9952  -28.3231   24.1441 H   0  0  0  0  0  0
  -20.5663  -26.2271   23.3608 H   0  0  0  0  0  0
  -21.6637  -26.7447   22.1217 H   0  0  0  0  0  0
  -19.6909  -25.6304   21.1230 H   0  0  0  0  0  0
  -19.6686  -27.3209   20.6752 H   0  0  0  0  0  0
  -17.4194  -26.6675   21.4021 H   0  0  0  0  0  0
  -18.0322  -26.0064   22.9014 H   0  0  0  0  0  0
  -19.7926  -30.7250   24.2298 H   0  0  0  0  0  0
  -17.5009  -31.6264   24.5169 H   0  0  0  0  0  0
  -15.5345  -30.2997   23.7638 H   0  0  0  0  0  0
  -15.8661  -28.0832   22.7047 H   0  0  0  0  0  0
  -24.5908  -30.7055   25.7818 H   0  0  0  0  0  0
  -24.8936  -32.2859   26.4938 H   0  0  0  0  0  0
  -25.8098  -30.8866   27.0226 H   0  0  0  0  0  0
  -26.2833  -29.6810   24.1141 H   0  0  0  0  0  0
  -27.4063  -29.7266   25.4542 H   0  0  0  0  0  0
  -27.8671  -30.4360   23.9237 H   0  0  0  0  0  0
  -27.2678  -33.3596   26.2096 H   0  0  0  0  0  0
  -28.3838  -32.6893   25.0287 H   0  0  0  0  0  0
  -28.0749  -31.8410   26.5359 H   0  0  0  0  0  0
  -28.2588  -38.0117   24.7534 H   0  0  0  0  0  0
  -28.1095  -36.2653   24.6234 H   0  0  0  0  0  0
  -27.2314  -37.1404   25.8860 H   0  0  0  0  0  0
  -20.9302  -29.8747   21.6944 H   0  0  0  0  0  0
  -26.0179  -38.2875   24.1432 H   0  0  0  0  0  0
  -28.3757  -22.9084   23.1111 H   0  0  0  0  0  0
  -27.1570  -24.1795   23.0752 H   0  0  0  0  0  0
  -25.4713  -22.7099   22.3074 H   0  0  0  0  0  0
  -26.3113  -21.6747   23.4338 H   0  0  0  0  0  0
  -27.8893  -20.1522   22.7991 H   0  0  0  0  0  0
  -26.8172  -19.1648   21.8283 H   0  0  0  0  0  0
  -29.2604  -17.7968   23.1841 H   0  0  0  0  0  0
  -28.1914  -17.2969   21.8158 H   0  0  0  0  0  0
  -29.3655  -17.4673   19.6096 H   0  0  0  0  0  0
  -31.0601  -18.0598   19.8051 H   0  0  0  0  0  0
  -26.9929  -24.0444   20.6689 H   0  0  0  0  0  0
  -29.6347  -21.5442   21.6080 H   0  0  0  0  0  0
  -31.2730  -16.9676   22.0141 H   0  0  0  0  0  0
  -28.2555  -19.4399   19.8815 H   0  0  0  0  0  0
  -29.9341  -21.0008   18.6086 H   0  0  0  0  0  0
  -31.1708  -20.8424   19.8411 H   0  0  0  0  0  0
  -30.5539  -22.4272   19.4342 H   0  0  0  0  0  0
  -24.8094  -20.3990   21.1863 H   0  0  0  0  0  0
  -25.7121  -20.2593   19.6910 H   0  0  0  0  0  0
  -24.9875  -21.7991   20.1511 H   0  0  0  0  0  0
  -28.2693  -22.8101   18.4174 H   0  0  0  0  0  0
  -26.5731  -22.7299   18.7928 H   0  0  0  0  0  0
  -27.4637  -21.2521   18.4598 H   0  0  0  0  0  0
  -29.4138  -24.4003   19.8478 H   0  0  0  0  0  0
  -29.8887  -24.1251   21.4961 H   0  0  0  0  0  0
  -29.6950  -26.4329   21.5552 H   0  0  0  0  0  0
  -28.0513  -26.0699   22.0021 H   0  0  0  0  0  0
  -29.1036  -15.0800   21.6467 H   0  0  0  0  0  0
  -30.4615  -19.2135   21.7775 H   0  0  0  0  0  0
  1 25  1  0  0  0
  1 30  2  0  0  0
  1 87  1  0  0  0
  2  3  1  0  0  0
  2 25  1  0  0  0
  2 89  1  0  0  0
  2 90  1  0  0  0
  3  4  1  0  0  0
  3 91  1  0  0  0
  3 92  1  0  0  0
  4  5  1  0  0  0
  4 93  1  0  0  0
  4 94  1  0  0  0
  5  6  1  0  0  0
  5 26  1  0  0  0
  5 95  1  0  0  0
  6 25  1  0  0  0
  6 96  1  0  0  0
  6 97  1  0  0  0
  7  8  2  0  0  0
  7 26  1  0  0  0
  7 29  1  0  0  0
  8  9  1  0  0  0
  8 22  1  0  0  0
  9 10  1  0  0  0
  9 27  2  0  0  0
 10 11  2  0  0  0
 10 15  1  0  0  0
 11 12  1  0  0  0
 11 98  1  0  0  0
 12 13  2  0  0  0
 12 99  1  0  0  0
 13 14  1  0  0  0
 13 31  1  0  0  0
 14 15  2  0  0  0
 14100  1  0  0  0
 15101  1  0  0  0
 16 17  2  0  0  0
 16 21  1  0  0  0
 16 31  1  0  0  0
 17 18  1  0  0  0
 17102  1  0  0  0
 18 19  2  0  0  0
 18103  1  0  0  0
 19 20  1  0  0  0
 19 24  1  0  0  0
 20 21  2  0  0  0
 20104  1  0  0  0
 21 23  1  0  0  0
 22 28  1  0  0  0
 22 32  2  0  0  0
 26 27  1  0  0  0
 28105  1  0  0  0
 28106  1  0  0  0
 29107  1  0  0  0
 29108  1  0  0  0
 33 34  1  0  0  0
 33 66  1  0  0  0
 33 70  2  0  0  0
 34 36  1  0  0  0
 34 59  1  0  0  0
 34109  1  0  0  0
 35 44  2  0  0  0
 35 45  1  0  0  0
 35 68  1  0  0  0
 36 56  1  0  0  0
 36110  1  0  0  0
 37 39  1  0  0  0
 37 47  1  0  0  0
 37 66  1  0  0  0
 37111  1  0  0  0
 38 43  2  0  0  0
 38 46  1  0  0  0
 38 47  1  0  0  0
 39 64  1  0  0  0
 39 67  2  0  0  0
 40 52  1  0  0  0
 40 53  2  0  0  0
 40 58  1  0  0  0
 41112  1  0  0  0
 41113  1  0  0  0
 41114  1  0  0  0
 41 48  1  0  0  0
 42 43  1  0  0  0
 42 66  1  0  0  0
 42115  1  0  0  0
 42116  1  0  0  0
 43 44  1  0  0  0
 44117  1  0  0  0
 45 46  2  0  0  0
 45118  1  0  0  0
 46119  1  0  0  0
 47120  1  0  0  0
 47121  1  0  0  0
 48 56  1  0  0  0
 48 65  1  0  0  0
 48122  1  0  0  0
 49 50  1  0  0  0
 49 53  1  0  0  0
 49 64  1  0  0  0
 49123  1  0  0  0
 50 51  1  0  0  0
 50124  1  0  0  0
 50125  1  0  0  0
 51 52  1  0  0  0
 51126  1  0  0  0
 51127  1  0  0  0
 52128  1  0  0  0
 52129  1  0  0  0
 53 54  1  0  0  0
 54 55  2  0  0  0
 54130  1  0  0  0
 55 57  1  0  0  0
 55131  1  0  0  0
 56 69  2  0  0  0
 57 58  2  0  0  0
 57132  1  0  0  0
 58133  1  0  0  0
 59 60  1  0  0  0
 59 61  1  0  0  0
 59 62  1  0  0  0
 60134  1  0  0  0
 60135  1  0  0  0
 60136  1  0  0  0
 61137  1  0  0  0
 61138  1  0  0  0
 61139  1  0  0  0
 62140  1  0  0  0
 62141  1  0  0  0
 62142  1  0  0  0
 63 65  1  0  0  0
 63143  1  0  0  0
 63144  1  0  0  0
 63145  1  0  0  0
 64146  1  0  0  0
 65147  1  0  0  0
 68 86  1  0  0  0
 71 72  1  0  0  0
 71 76  1  0  0  0
 71148  1  0  0  0
 71149  1  0  0  0
 72 80  1  0  0  0
 72150  1  0  0  0
 72151  1  0  0  0
 73 80  1  0  0  0
 73152  1  0  0  0
 73153  1  0  0  0
 73 79  1  0  0  0
 74 78  1  0  0  0
 74154  1  0  0  0
 74155  1  0  0  0
 74 88  1  0  0  0
 75 78  1  0  0  0
 75 88  1  0  0  0
 75156  1  0  0  0
 75157  1  0  0  0
 76 81  1  0  0  0
 76 85  1  0  0  0
 76158  1  0  0  0
 77 79  1  0  0  0
 77 81  1  0  0  0
 77 82  1  0  0  0
 77159  1  0  0  0
 78 87  1  0  0  0
 78160  1  0  0  0
 79 88  1  0  0  0
 79161  1  0  0  0
 80 81  1  0  0  0
 80 83  1  0  0  0
 81 84  1  0  0  0
 82162  1  0  0  0
 82163  1  0  0  0
 82164  1  0  0  0
 83165  1  0  0  0
 83166  1  0  0  0
 83167  1  0  0  0
 84168  1  0  0  0
 84169  1  0  0  0
 84170  1  0  0  0
 85 86  1  0  0  0
 85171  1  0  0  0
 85172  1  0  0  0
 86173  1  0  0  0
 86174  1  0  0  0
 87175  1  0  0  0
 88176  1  0  0  0
M  CHG  1  88   1
M  ISO  4   1 100  68 101  86 101  87 100
M  END
> <chiral flag>
0

> <version>
0

> <s_m_source_file>
/data/baiqing/PycharmProjects/Reinvent-master-3.2/result/LINK_invent/BTK/process_docking_weight1_custom_sum_contain_oxygen_bond_distance_aromatic_linkinvent_7_9_3/rearranged_h_0161.sdf

> <i_m_source_file_index>
35

> <r_mmod_Potential_Energy-OPLS-2005>
47.4542808532715

> <r_mmod_Stretch_Energy-OPLS-2005>
45.4780197143555

> <r_mmod_Bend_Energy-OPLS-2005>
188.643630981445

> <r_mmod_Torsional_Energy-OPLS-2005>
404.441314697266

> <r_mmod_Improper_Torsional_Energy-OPLS-2005>
3.01554417610168

> <r_mmod_Van_der_Waal_Energy-OPLS-2005>
127.720176696777

> <r_mmod_Electrostatic_Energy-OPLS-2005>
-292.391967773438

> <r_mmod_Solvation_Energy-OPLS-2005>
-440.141143798828

> <b_mmod_Minimization_Converged-OPLS-2005>
0

> <r_mmod_RMS_Derivative-OPLS-2005>
0.406036019325256

$$$$
35
                    3D
 Structure written by MMmdl.
172182  0  0  1  0            999 V2000
  -30.5958  -14.9028   20.4272 C   0  0  0  0  0  0
  -30.4240  -12.5597   19.4970 C   0  0  0  0  0  0
  -29.5127  -12.5218   18.2515 C   0  0  0  0  0  0
  -28.0447  -12.3219   18.6692 C   0  0  0  0  0  0
  -27.6274  -13.2527   19.8390 C   0  0  2  0  0  0
  -28.6703  -13.2815   20.9760 C   0  0  0  0  0  0
  -25.2446  -13.8230   20.5722 C   0  0  0  0  0  0
  -24.1766  -13.0444   20.9228 C   0  0  0  0  0  0
  -24.6390  -11.6933   20.8754 C   0  0  0  0  0  0
  -23.9078  -10.4297   21.0406 C   0  0  0  0  0  0
  -24.3626   -9.4209   21.9181 C   0  0  0  0  0  0
  -23.6299   -8.2245   22.0750 C   0  0  0  0  0  0
  -22.4279   -8.0281   21.3542 C   0  0  0  0  0  0
  -21.9917   -9.0256   20.4644 C   0  0  0  0  0  0
  -22.7251  -10.2134   20.3055 C   0  0  0  0  0  0
  -21.6858   -6.0734   22.5276 C   0  0  0  0  0  0
  -21.4019   -6.5636   23.8209 C   0  0  0  0  0  0
  -21.3661   -5.6787   24.9169 C   0  0  0  0  0  0
  -21.6044   -4.3051   24.7221 C   0  0  0  0  0  0
  -21.8820   -3.8144   23.4342 C   0  0  0  0  0  0
  -21.9197   -4.6961   22.3399 C   0  0  0  0  0  0
  -22.7786  -13.5211   21.1882 C   0  0  0  0  0  0
  -22.1665   -4.2145   21.0976 F   0  0  0  0  0  0
  -21.5628   -3.4535   25.7735 F   0  0  0  0  0  0
  -29.9465  -13.6727   20.3680 N   0  0  0  0  0  0
  -26.2875  -12.9476   20.3263 N   0  0  0  0  0  0
  -25.9325  -11.6597   20.5749 N   0  0  0  0  0  0
  -22.0444  -12.8196   22.0438 N   0  0  0  0  0  0
  -25.4112  -15.1954   20.4146 N   0  0  0  0  0  0
  -31.7993  -14.8970   20.1439 O   0  0  0  0  0  0
  -21.6643   -6.8878   21.4238 O   0  0  0  0  0  0
  -22.3465  -14.5515   20.6728 O   0  0  0  0  0  0
  -24.6416  -31.8458   23.1899 C   0  0  0  0  0  0
  -25.9196  -32.4704   23.8282 C   0  0  1  0  0  0
  -27.2114  -27.1553   20.1467 C   0  0  0  0  0  0
  -25.5948  -33.8510   24.2199 N   0  0  0  0  0  0
  -23.4438  -30.4664   21.5350 C   0  0  2  0  0  0
  -24.8917  -28.8973   20.1080 C   0  0  0  0  0  0
  -22.7559  -29.4556   22.4863 C   0  0  0  0  0  0
  -18.0303  -28.1393   22.8478 C   0  0  0  0  0  0
  -24.1491  -36.7260   23.2643 C   0  0  0  0  0  0
  -25.9984  -30.7256   21.3857 C   0  0  0  0  0  0
  -26.0687  -29.3394   20.7257 C   0  0  0  0  0  0
  -27.2306  -28.4835   20.7284 C   0  0  0  0  0  0
  -26.0109  -26.8110   19.4877 C   0  0  0  0  0  0
  -24.8747  -27.6464   19.4738 C   0  0  0  0  0  0
  -23.6684  -29.7976   20.1532 C   0  0  0  0  0  0
  -25.4124  -36.3039   24.0318 C   0  0  1  0  0  0
  -20.5915  -28.3717   23.1240 C   0  0  2  0  0  0
  -20.6788  -26.9423   22.5403 C   0  0  0  0  0  0
  -19.5760  -26.6381   21.5212 C   0  0  0  0  0  0
  -18.1943  -26.7932   22.1625 C   0  0  0  0  0  0
  -19.1559  -28.8873   23.2852 C   0  0  0  0  0  0
  -18.9477  -30.1468   23.8878 C   0  0  0  0  0  0
  -17.6473  -30.6590   24.0559 C   0  0  0  0  0  0
  -25.9070  -34.9413   23.5067 C   0  0  0  0  0  0
  -16.5364  -29.9083   23.6334 C   0  0  0  0  0  0
  -16.7288  -28.6501   23.0356 C   0  0  0  0  0  0
  -26.4520  -31.6568   25.0719 C   0  0  0  0  0  0
  -25.3708  -31.3756   26.1416 C   0  0  0  0  0  0
  -27.0382  -30.2966   24.6291 C   0  0  0  0  0  0
  -27.6053  -32.4331   25.7503 C   0  0  0  0  0  0
  -27.5575  -37.1792   24.8469 C   0  0  0  0  0  0
  -21.4252  -29.3046   22.3614 N   0  0  0  0  0  0
  -26.4291  -37.3748   23.9403 N   0  0  0  0  0  0
  -24.7144  -31.0332   22.0921 N   0  0  0  0  0  0
  -23.4211  -28.8105   23.3007 O   0  0  0  0  0  0
  -28.2619  -26.1779   20.2320 O   0  0  0  0  0  0
  -26.5655  -34.8907   22.4645 O   0  0  0  0  0  0
  -23.5540  -32.1326   23.7130 O   0  0  0  0  0  0
  -28.6834  -21.9501   20.2676 C   0  0  0  0  0  0
  -28.9564  -23.3995   20.5030 C   0  0  0  0  0  0
  -30.1558  -23.6701   21.2100 C   0  0  0  0  0  0
  -30.9556  -22.6168   21.7411 C   0  0  0  0  0  0
  -30.6963  -21.2377   21.4638 C   0  0  0  0  0  0
  -29.5513  -20.8210   20.7071 C   0  0  0  0  0  0
  -26.0595  -22.0193   19.9461 C   0  0  0  0  0  0
  -26.4457  -20.5647   19.9416 C   0  0  0  0  0  0
  -30.2341  -18.6962   19.4542 C   0  0  0  0  0  0
  -29.1131  -18.4109   21.5807 C   0  0  0  0  0  0
  -30.0932  -17.1160   19.2017 C   0  0  0  0  0  0
  -28.9878  -16.8186   21.3102 C   0  0  0  0  0  0
  -27.4430  -21.6087   19.4813 C   0  0  0  0  0  0
  -30.6028  -25.1225   21.3830 C   0  0  0  0  0  0
  -32.1357  -22.9938   22.6482 C   0  0  0  0  0  0
  -31.7212  -20.2325   22.0113 C   0  0  0  0  0  0
  -27.9838  -24.6603   20.0531 C   0  0  0  0  0  0
  -29.3406  -19.3630   20.4419 N   0  0  0  0  0  0
  -29.8932  -16.1414   20.3289 N   0  0  0  0  0  0
  -31.4631  -12.6833   19.1879 H   0  0  0  0  0  0
  -30.3878  -11.6096   20.0324 H   0  0  0  0  0  0
  -29.8232  -11.7224   17.5774 H   0  0  0  0  0  0
  -29.6129  -13.4536   17.6921 H   0  0  0  0  0  0
  -27.9307  -11.2800   18.9706 H   0  0  0  0  0  0
  -27.3826  -12.4647   17.8145 H   0  0  0  0  0  0
  -27.5925  -14.2568   19.4146 H   0  0  0  0  0  0
  -28.7477  -12.3110   21.4678 H   0  0  0  0  0  0
  -28.3774  -13.9972   21.7450 H   0  0  0  0  0  0
  -25.2770   -9.5689   22.4756 H   0  0  0  0  0  0
  -24.0009   -7.4638   22.7469 H   0  0  0  0  0  0
  -21.0849   -8.8780   19.8950 H   0  0  0  0  0  0
  -22.3709  -10.9673   19.6165 H   0  0  0  0  0  0
  -21.2014   -7.6145   23.9713 H   0  0  0  0  0  0
  -21.1482   -6.0515   25.9072 H   0  0  0  0  0  0
  -22.0600   -2.7607   23.2841 H   0  0  0  0  0  0
  -22.4077  -11.9865   22.4829 H   0  0  0  0  0  0
  -21.1057  -13.1208   22.2645 H   0  0  0  0  0  0
  -24.6437  -15.8481   20.5285 H   0  0  0  0  0  0
  -26.2599  -15.6348   20.0829 H   0  0  0  0  0  0
  -26.7262  -32.5315   23.1011 H   0  0  0  0  0  0
  -25.0073  -33.9626   25.0331 H   0  0  0  0  0  0
  -22.7456  -31.2919   21.3828 H   0  0  0  0  0  0
  -23.3753  -35.9595   23.3312 H   0  0  0  0  0  0
  -24.3571  -36.8882   22.2056 H   0  0  0  0  0  0
  -23.7252  -37.6463   23.6672 H   0  0  0  0  0  0
  -26.1529  -31.4819   20.6149 H   0  0  0  0  0  0
  -26.8696  -30.7738   22.0276 H   0  0  0  0  0  0
  -28.1268  -28.8138   21.2347 H   0  0  0  0  0  0
  -25.9156  -25.8541   18.9968 H   0  0  0  0  0  0
  -23.9761  -27.3039   18.9793 H   0  0  0  0  0  0
  -23.8042  -30.5730   19.3985 H   0  0  0  0  0  0
  -22.7832  -29.2395   19.8427 H   0  0  0  0  0  0
  -25.1313  -36.1873   25.0812 H   0  0  0  0  0  0
  -21.0009  -28.3306   24.1361 H   0  0  0  0  0  0
  -20.5682  -26.2331   23.3621 H   0  0  0  0  0  0
  -21.6655  -26.7429   22.1202 H   0  0  0  0  0  0
  -19.6921  -25.6285   21.1256 H   0  0  0  0  0  0
  -19.6695  -27.3179   20.6732 H   0  0  0  0  0  0
  -17.4210  -26.6673   21.4031 H   0  0  0  0  0  0
  -18.0344  -26.0079   22.9027 H   0  0  0  0  0  0
  -19.7952  -30.7288   24.2243 H   0  0  0  0  0  0
  -17.5027  -31.6269   24.5163 H   0  0  0  0  0  0
  -15.5364  -30.2979   23.7667 H   0  0  0  0  0  0
  -15.8689  -28.0813   22.7084 H   0  0  0  0  0  0
  -24.5888  -30.7103   25.7738 H   0  0  0  0  0  0
  -24.8894  -32.2938   26.4792 H   0  0  0  0  0  0
  -25.7991  -30.8961   27.0228 H   0  0  0  0  0  0
  -26.2996  -29.6692   24.1289 H   0  0  0  0  0  0
  -27.3990  -29.7262   25.4860 H   0  0  0  0  0  0
  -27.8907  -30.4203   23.9608 H   0  0  0  0  0  0
  -27.2648  -33.3649   26.2031 H   0  0  0  0  0  0
  -28.3890  -32.6864   25.0351 H   0  0  0  0  0  0
  -28.0693  -31.8490   26.5461 H   0  0  0  0  0  0
  -28.2602  -38.0078   24.7490 H   0  0  0  0  0  0
  -28.1059  -36.2605   24.6329 H   0  0  0  0  0  0
  -27.2286  -37.1483   25.8871 H   0  0  0  0  0  0
  -20.9459  -29.8761   21.6797 H   0  0  0  0  0  0
  -26.0161  -38.2822   24.1386 H   0  0  0  0  0  0
  -25.9478  -22.4806   20.9253 H   0  0  0  0  0  0
  -25.3444  -22.3421   19.1919 H   0  0  0  0  0  0
  -25.9886  -19.9326   19.1828 H   0  0  0  0  0  0
  -26.5953  -20.0956   20.9115 H   0  0  0  0  0  0
  -30.0595  -19.1915   18.4976 H   0  0  0  0  0  0
  -31.2779  -18.9170   19.6631 H   0  0  0  0  0  0
  -29.8669  -18.5484   22.3505 H   0  0  0  0  0  0
  -28.1924  -18.7285   22.0717 H   0  0  0  0  0  0
  -30.9431  -16.7990   18.5953 H   0  0  0  0  0  0
  -29.2299  -16.9714   18.5506 H   0  0  0  0  0  0
  -27.9734  -16.6219   20.9630 H   0  0  0  0  0  0
  -29.0643  -16.2998   22.2670 H   0  0  0  0  0  0
  -27.6508  -21.6566   18.4141 H   0  0  0  0  0  0
  -30.5650  -25.6400   20.4253 H   0  0  0  0  0  0
  -31.6347  -25.2521   21.6997 H   0  0  0  0  0  0
  -29.9651  -25.6429   22.0982 H   0  0  0  0  0  0
  -31.8833  -23.8304   23.2993 H   0  0  0  0  0  0
  -33.0067  -23.2668   22.0516 H   0  0  0  0  0  0
  -32.4356  -22.2140   23.3449 H   0  0  0  0  0  0
  -32.7358  -20.5678   21.7961 H   0  0  0  0  0  0
  -31.6817  -19.2273   21.6136 H   0  0  0  0  0  0
  -31.6089  -20.1385   23.0914 H   0  0  0  0  0  0
  -27.0468  -24.4832   20.5788 H   0  0  0  0  0  0
  -27.7681  -24.5054   18.9958 H   0  0  0  0  0  0
  1 25  1  0  0  0
  1 30  2  0  0  0
  1 89  1  0  0  0
  2  3  1  0  0  0
  2 25  1  0  0  0
  2 90  1  0  0  0
  2 91  1  0  0  0
  3  4  1  0  0  0
  3 92  1  0  0  0
  3 93  1  0  0  0
  4  5  1  0  0  0
  4 94  1  0  0  0
  4 95  1  0  0  0
  5  6  1  0  0  0
  5 26  1  0  0  0
  5 96  1  0  0  0
  6 25  1  0  0  0
  6 97  1  0  0  0
  6 98  1  0  0  0
  7  8  2  0  0  0
  7 26  1  0  0  0
  7 29  1  0  0  0
  8  9  1  0  0  0
  8 22  1  0  0  0
  9 10  1  0  0  0
  9 27  2  0  0  0
 10 11  2  0  0  0
 10 15  1  0  0  0
 11 12  1  0  0  0
 11 99  1  0  0  0
 12 13  2  0  0  0
 12100  1  0  0  0
 13 14  1  0  0  0
 13 31  1  0  0  0
 14 15  2  0  0  0
 14101  1  0  0  0
 15102  1  0  0  0
 16 17  2  0  0  0
 16 21  1  0  0  0
 16 31  1  0  0  0
 17 18  1  0  0  0
 17103  1  0  0  0
 18 19  2  0  0  0
 18104  1  0  0  0
 19 20  1  0  0  0
 19 24  1  0  0  0
 20 21  2  0  0  0
 20105  1  0  0  0
 21 23  1  0  0  0
 22 28  1  0  0  0
 22 32  2  0  0  0
 26 27  1  0  0  0
 28106  1  0  0  0
 28107  1  0  0  0
 29108  1  0  0  0
 29109  1  0  0  0
 33 34  1  0  0  0
 33 66  1  0  0  0
 33 70  2  0  0  0
 34 36  1  0  0  0
 34 59  1  0  0  0
 34110  1  0  0  0
 35 44  2  0  0  0
 35 45  1  0  0  0
 35 68  1  0  0  0
 36 56  1  0  0  0
 36111  1  0  0  0
 37 39  1  0  0  0
 37 47  1  0  0  0
 37 66  1  0  0  0
 37112  1  0  0  0
 38 43  2  0  0  0
 38 46  1  0  0  0
 38 47  1  0  0  0
 39 64  1  0  0  0
 39 67  2  0  0  0
 40 52  1  0  0  0
 40 53  2  0  0  0
 40 58  1  0  0  0
 41113  1  0  0  0
 41114  1  0  0  0
 41115  1  0  0  0
 41 48  1  0  0  0
 42 43  1  0  0  0
 42 66  1  0  0  0
 42116  1  0  0  0
 42117  1  0  0  0
 43 44  1  0  0  0
 44118  1  0  0  0
 45 46  2  0  0  0
 45119  1  0  0  0
 46120  1  0  0  0
 47121  1  0  0  0
 47122  1  0  0  0
 48 56  1  0  0  0
 48 65  1  0  0  0
 48123  1  0  0  0
 49 50  1  0  0  0
 49 53  1  0  0  0
 49 64  1  0  0  0
 49124  1  0  0  0
 50 51  1  0  0  0
 50125  1  0  0  0
 50126  1  0  0  0
 51 52  1  0  0  0
 51127  1  0  0  0
 51128  1  0  0  0
 52129  1  0  0  0
 52130  1  0  0  0
 53 54  1  0  0  0
 54 55  2  0  0  0
 54131  1  0  0  0
 55 57  1  0  0  0
 55132  1  0  0  0
 56 69  2  0  0  0
 57 58  2  0  0  0
 57133  1  0  0  0
 58134  1  0  0  0
 59 60  1  0  0  0
 59 61  1  0  0  0
 59 62  1  0  0  0
 60135  1  0  0  0
 60136  1  0  0  0
 60137  1  0  0  0
 61138  1  0  0  0
 61139  1  0  0  0
 61140  1  0  0  0
 62141  1  0  0  0
 62142  1  0  0  0
 62143  1  0  0  0
 63 65  1  0  0  0
 63144  1  0  0  0
 63145  1  0  0  0
 63146  1  0  0  0
 64147  1  0  0  0
 65148  1  0  0  0
 68 87  1  0  0  0
 71 72  1  0  0  0
 71 76  2  0  0  0
 71 83  1  0  0  0
 72 73  2  0  0  0
 72 87  1  0  0  0
 73 74  1  0  0  0
 73 84  1  0  0  0
 74 75  2  0  0  0
 74 85  1  0  0  0
 75 76  1  0  0  0
 75 86  1  0  0  0
 76 88  1  0  0  0
 77 78  1  0  0  0
 77 83  1  0  0  0
 77149  1  0  0  0
 77150  1  0  0  0
 78 83  1  0  0  0
 78151  1  0  0  0
 78152  1  0  0  0
 79 81  1  0  0  0
 79 88  1  0  0  0
 79153  1  0  0  0
 79154  1  0  0  0
 80 82  1  0  0  0
 80 88  1  0  0  0
 80155  1  0  0  0
 80156  1  0  0  0
 81 89  1  0  0  0
 81157  1  0  0  0
 81158  1  0  0  0
 82 89  1  0  0  0
 82159  1  0  0  0
 82160  1  0  0  0
 83161  1  0  0  0
 84162  1  0  0  0
 84163  1  0  0  0
 84164  1  0  0  0
 85165  1  0  0  0
 85166  1  0  0  0
 85167  1  0  0  0
 86168  1  0  0  0
 86169  1  0  0  0
 86170  1  0  0  0
 87171  1  0  0  0
 87172  1  0  0  0
M  ISO  4   1 100  68 101  87 101  89 100
M  END
> <chiral flag>
0

> <version>
0

> <s_m_source_file>
/data/baiqing/PycharmProjects/Reinvent-master-3.2/result/LINK_invent/BTK/process_docking_weight1_custom_sum_contain_oxygen_bond_distance_aromatic_linkinvent_7_9_3/rearranged_h_0161.sdf

> <i_m_source_file_index>
36

> <r_mmod_Potential_Energy-OPLS-2005>
684.197875976562

> <r_mmod_Stretch_Energy-OPLS-2005>
225.11604309082

> <r_mmod_Bend_Energy-OPLS-2005>
251.067047119141

> <r_mmod_Torsional_Energy-OPLS-2005>
413.9833984375

> <r_mmod_Improper_Torsional_Energy-OPLS-2005>
18.8032169342041

> <r_mmod_Van_der_Waal_Energy-OPLS-2005>
162.012512207031

> <r_mmod_Electrostatic_Energy-OPLS-2005>
-357.1123046875

> <r_mmod_Solvation_Energy-OPLS-2005>
-198.528305053711

> <b_mmod_Minimization_Converged-OPLS-2005>
0

> <r_mmod_RMS_Derivative-OPLS-2005>
0.452101707458496

$$$$
36
                    3D
 Structure written by MMmdl.
175184  0  0  1  0            999 V2000
  -31.3427  -14.7134   20.9873 C   0  0  0  0  0  0
  -30.8455  -13.0121   19.1571 C   0  0  0  0  0  0
  -29.5225  -12.7119   17.7573 C   0  0  0  0  0  0
  -27.6709  -13.1835   18.0762 C   0  0  0  0  0  0
  -27.1755  -13.9498   19.8172 C   0  0  2  0  0  0
  -28.6478  -14.2410   21.2208 C   0  0  0  0  0  0
  -24.9746  -13.9769   20.7197 C   0  0  0  0  0  0
  -24.0130  -13.0755   20.9932 C   0  0  0  0  0  0
  -24.5756  -11.7694   20.8682 C   0  0  0  0  0  0
  -23.9109  -10.4576   21.0135 C   0  0  0  0  0  0
  -24.3774   -9.4580   21.8982 C   0  0  0  0  0  0
  -23.6471   -8.2561   22.0704 C   0  0  0  0  0  0
  -22.4426   -8.0435   21.3571 C   0  0  0  0  0  0
  -22.0029   -9.0319   20.4622 C   0  0  0  0  0  0
  -22.7290  -10.2190   20.2895 C   0  0  0  0  0  0
  -21.6945   -6.0837   22.5291 C   0  0  0  0  0  0
  -21.4098   -6.5732   23.8226 C   0  0  0  0  0  0
  -21.3690   -5.6857   24.9179 C   0  0  0  0  0  0
  -21.6079   -4.3116   24.7219 C   0  0  0  0  0  0
  -21.8806   -3.8211   23.4320 C   0  0  0  0  0  0
  -21.9218   -4.7060   22.3401 C   0  0  0  0  0  0
  -22.6126  -13.4774   21.2469 C   0  0  0  0  0  0
  -22.1644   -4.2232   21.0962 F   0  0  0  0  0  0
  -21.5621   -3.4609   25.7724 F   0  0  0  0  0  0
  -30.3767  -13.8468   20.7278 N   0  0  0  0  0  0
  -26.0368  -13.2484   20.3545 N   0  0  0  0  0  0
  -25.8462  -11.8866   20.4818 N   0  0  0  0  0  0
  -21.9293  -12.7437   22.1073 N   0  0  0  0  0  0
  -25.0237  -15.3712   20.7055 N   0  0  0  0  0  0
  -32.4650  -14.4913   20.5884 O   0  0  0  0  0  0
  -21.6792   -6.9013   21.4288 O   0  0  0  0  0  0
  -22.1555  -14.4956   20.7311 O   0  0  0  0  0  0
  -24.6915  -31.7814   23.1404 C   0  0  0  0  0  0
  -25.9504  -32.4327   23.7903 C   0  0  1  0  0  0
  -27.0843  -26.5455   20.1452 C   0  0  0  0  0  0
  -25.6054  -33.8162   24.1819 N   0  0  0  0  0  0
  -23.5081  -30.3959   21.5034 C   0  0  2  0  0  0
  -24.9307  -28.7091   20.0999 C   0  0  0  0  0  0
  -22.7693  -29.4236   22.4608 C   0  0  0  0  0  0
  -18.0330  -28.1359   22.8472 C   0  0  0  0  0  0
  -24.1541  -36.7159   23.2641 C   0  0  0  0  0  0
  -26.0936  -30.4567   21.4094 C   0  0  0  0  0  0
  -26.1297  -29.0072   20.7552 C   0  0  0  0  0  0
  -27.1964  -27.9470   20.7528 C   0  0  0  0  0  0
  -25.8781  -26.5026   19.4202 C   0  0  0  0  0  0
  -24.8498  -27.4902   19.4129 C   0  0  0  0  0  0
  -23.7554  -29.6986   20.1317 C   0  0  0  0  0  0
  -25.4162  -36.2802   24.0255 C   0  0  1  0  0  0
  -20.5939  -28.3705   23.1149 C   0  0  2  0  0  0
  -20.6769  -26.9353   22.5416 C   0  0  0  0  0  0
  -19.5756  -26.6334   21.5213 C   0  0  0  0  0  0
  -18.1937  -26.7899   22.1622 C   0  0  0  0  0  0
  -19.1587  -28.8854   23.2814 C   0  0  0  0  0  0
  -18.9501  -30.1433   23.8871 C   0  0  0  0  0  0
  -17.6499  -30.6569   24.0508 C   0  0  0  0  0  0
  -25.9155  -34.9201   23.4867 C   0  0  0  0  0  0
  -16.5388  -29.9052   23.6298 C   0  0  0  0  0  0
  -16.7317  -28.6451   23.0358 C   0  0  0  0  0  0
  -26.4669  -31.6344   25.0527 C   0  0  0  0  0  0
  -25.3760  -31.3723   26.1167 C   0  0  0  0  0  0
  -27.0481  -30.2623   24.6381 C   0  0  0  0  0  0
  -27.6061  -32.4140   25.7455 C   0  0  0  0  0  0
  -27.5553  -37.1733   24.8459 C   0  0  0  0  0  0
  -21.4320  -29.3015   22.3453 N   0  0  0  0  0  0
  -26.4245  -37.3598   23.9428 N   0  0  0  0  0  0
  -24.7935  -30.9104   22.0742 N   0  0  0  0  0  0
  -23.4139  -28.7723   23.2864 O   0  0  0  0  0  0
  -27.9185  -25.2113   20.1932 O   0  0  0  0  0  0
  -26.5775  -34.8812   22.4466 O   0  0  0  0  0  0
  -23.5933  -32.1001   23.6297 O   0  0  0  0  0  0
  -29.8607  -17.5269   18.8017 C   0  0  0  0  0  0
  -28.8642  -16.6218   19.2466 C   0  0  0  0  0  0
  -31.1638  -17.0924   18.8172 C   0  0  0  0  0  0
  -29.1632  -14.9086   18.9768 C   0  0  0  0  0  0
  -31.3170  -15.9109   18.1107 C   0  0  0  0  0  0
  -30.1017  -15.2102   17.8547 C   0  0  0  0  0  0
  -29.5029  -18.6340   17.8042 C   0  0  0  0  0  0
  -28.0768  -18.1689   19.9748 C   0  0  0  0  0  0
  -29.1966  -19.9703   18.4387 C   0  0  0  0  0  0
  -28.7908  -12.3552   19.9303 C   0  0  0  0  0  0
  -32.6911  -15.4396   17.6678 C   0  0  0  0  0  0
  -29.5481  -15.5423   16.4634 C   0  0  0  0  0  0
  -28.0805  -21.3136   21.6921 C   0  0  0  0  0  0
  -32.1649  -17.6810   19.7992 C   0  0  0  0  0  0
  -31.9583  -17.1141   21.2601 C   0  0  0  0  0  0
  -27.6123  -23.4462   19.8390 C   0  0  0  0  0  0
  -28.1993  -21.5640   20.2022 C   0  0  2  0  0  0
  -31.0493  -15.9415   21.4485 N   0  0  0  0  0  0
  -28.1331  -19.9122   19.4645 N   0  3  1  0  0  0
  -31.7556  -13.3721   18.6950 H   0  0  0  0  0  0
  -31.2272  -12.0217   19.4251 H   0  0  0  0  0  0
  -29.5347  -11.6481   17.5144 H   0  0  0  0  0  0
  -29.8490  -13.0626   16.7765 H   0  0  0  0  0  0
  -27.0500  -12.2956   17.9000 H   0  0  0  0  0  0
  -27.2993  -13.8322   17.2899 H   0  0  0  0  0  0
  -26.8610  -14.9208   19.4558 H   0  0  0  0  0  0
  -28.4259  -13.6801   22.1320 H   0  0  0  0  0  0
  -28.5594  -15.2698   21.5744 H   0  0  0  0  0  0
  -25.2950   -9.6174   22.4471 H   0  0  0  0  0  0
  -24.0267   -7.5072   22.7514 H   0  0  0  0  0  0
  -21.0943   -8.8828   19.8934 H   0  0  0  0  0  0
  -22.3723  -10.9657   19.5923 H   0  0  0  0  0  0
  -21.2149   -7.6259   23.9707 H   0  0  0  0  0  0
  -21.1458   -6.0635   25.9055 H   0  0  0  0  0  0
  -22.0526   -2.7688   23.2811 H   0  0  0  0  0  0
  -22.3427  -11.9331   22.5427 H   0  0  0  0  0  0
  -20.9786  -12.9866   22.3323 H   0  0  0  0  0  0
  -25.8672  -15.8916   20.5207 H   0  0  0  0  0  0
  -24.2234  -15.9616   20.9021 H   0  0  0  0  0  0
  -26.7458  -32.4711   23.0470 H   0  0  0  0  0  0
  -25.0087  -33.9150   24.9881 H   0  0  0  0  0  0
  -22.8494  -31.2442   21.3198 H   0  0  0  0  0  0
  -23.3755  -35.9529   23.3178 H   0  0  0  0  0  0
  -24.3646  -36.8953   22.2085 H   0  0  0  0  0  0
  -23.7357  -37.6325   23.6807 H   0  0  0  0  0  0
  -26.2693  -31.1620   20.5956 H   0  0  0  0  0  0
  -26.9702  -30.5534   22.0413 H   0  0  0  0  0  0
  -28.0977  -28.1526   21.3152 H   0  0  0  0  0  0
  -25.6583  -25.5811   18.8977 H   0  0  0  0  0  0
  -23.9342  -27.2652   18.8874 H   0  0  0  0  0  0
  -23.9505  -30.4738   19.3879 H   0  0  0  0  0  0
  -22.8507  -29.1896   19.7898 H   0  0  0  0  0  0
  -25.1376  -36.1489   25.0734 H   0  0  0  0  0  0
  -21.0083  -28.3347   24.1243 H   0  0  0  0  0  0
  -20.5517  -26.2338   23.3657 H   0  0  0  0  0  0
  -21.6625  -26.7186   22.1284 H   0  0  0  0  0  0
  -19.6855  -25.6242   21.1225 H   0  0  0  0  0  0
  -19.6688  -27.3145   20.6739 H   0  0  0  0  0  0
  -17.4175  -26.6633   21.4050 H   0  0  0  0  0  0
  -18.0326  -26.0052   22.9028 H   0  0  0  0  0  0
  -19.7984  -30.7220   24.2253 H   0  0  0  0  0  0
  -17.5057  -31.6251   24.5091 H   0  0  0  0  0  0
  -15.5379  -30.2923   23.7652 H   0  0  0  0  0  0
  -15.8719  -28.0733   22.7115 H   0  0  0  0  0  0
  -24.6065  -30.6882   25.7613 H   0  0  0  0  0  0
  -24.8860  -32.2960   26.4233 H   0  0  0  0  0  0
  -25.8038  -30.9247   27.0147 H   0  0  0  0  0  0
  -26.3168  -29.6326   24.1310 H   0  0  0  0  0  0
  -27.3794  -29.6967   25.5105 H   0  0  0  0  0  0
  -27.9205  -30.3669   23.9916 H   0  0  0  0  0  0
  -27.2591  -33.3560   26.1696 H   0  0  0  0  0  0
  -28.4161  -32.6419   25.0526 H   0  0  0  0  0  0
  -28.0333  -31.8410   26.5702 H   0  0  0  0  0  0
  -28.2482  -38.0109   24.7467 H   0  0  0  0  0  0
  -28.1119  -36.2602   24.6286 H   0  0  0  0  0  0
  -27.2264  -37.1373   25.8860 H   0  0  0  0  0  0
  -20.9497  -29.8854   21.6724 H   0  0  0  0  0  0
  -26.0018  -38.2609   24.1455 H   0  0  0  0  0  0
  -28.6487  -18.3307   17.1959 H   0  0  0  0  0  0
  -30.3298  -18.7579   17.1044 H   0  0  0  0  0  0
  -27.0389  -17.9386   20.2186 H   0  0  0  0  0  0
  -28.5283  -18.2013   20.9663 H   0  0  0  0  0  0
  -28.9224  -20.7016   17.6834 H   0  0  0  0  0  0
  -30.1361  -20.3138   18.8674 H   0  0  0  0  0  0
  -28.1445  -12.0947   20.7783 H   0  0  0  0  0  0
  -29.5247  -11.7680   20.5010 H   0  0  0  0  0  0
  -28.4553  -11.4810   19.3485 H   0  0  0  0  0  0
  -33.2968  -15.1468   18.5217 H   0  0  0  0  0  0
  -33.2537  -16.2283   17.1708 H   0  0  0  0  0  0
  -32.6011  -14.5665   17.0208 H   0  0  0  0  0  0
  -30.3087  -15.4475   15.6970 H   0  0  0  0  0  0
  -29.2313  -16.5652   16.3980 H   0  0  0  0  0  0
  -28.6750  -14.9807   16.1673 H   0  0  0  0  0  0
  -28.3432  -22.2012   22.2574 H   0  0  0  0  0  0
  -28.7777  -20.5268   21.9804 H   0  0  0  0  0  0
  -27.0740  -21.0136   21.9745 H   0  0  0  0  0  0
  -32.0792  -18.7820   19.7772 H   0  0  0  0  0  0
  -33.1893  -17.4843   19.4520 H   0  0  0  0  0  0
  -32.9363  -16.8464   21.6617 H   0  0  0  0  0  0
  -31.5744  -17.9073   21.9084 H   0  0  0  0  0  0
  -26.5743  -23.3592   20.1489 H   0  0  0  0  0  0
  -27.5606  -23.4857   18.7478 H   0  0  0  0  0  0
  -29.2744  -21.7384   20.1199 H   0  0  0  0  0  0
  -30.1222  -16.1168   21.8070 H   0  0  0  0  0  0
  -27.2837  -19.9559   18.9169 H   0  0  0  0  0  0
  1 25  1  0  0  0
  1 30  2  0  0  0
  1 88  1  0  0  0
  2  3  1  0  0  0
  2 25  1  0  0  0
  2 90  1  0  0  0
  2 91  1  0  0  0
  3  4  1  0  0  0
  3 92  1  0  0  0
  3 93  1  0  0  0
  4  5  1  0  0  0
  4 94  1  0  0  0
  4 95  1  0  0  0
  5  6  1  0  0  0
  5 26  1  0  0  0
  5 96  1  0  0  0
  6 25  1  0  0  0
  6 97  1  0  0  0
  6 98  1  0  0  0
  7  8  2  0  0  0
  7 26  1  0  0  0
  7 29  1  0  0  0
  8  9  1  0  0  0
  8 22  1  0  0  0
  9 10  1  0  0  0
  9 27  2  0  0  0
 10 11  2  0  0  0
 10 15  1  0  0  0
 11 12  1  0  0  0
 11 99  1  0  0  0
 12 13  2  0  0  0
 12100  1  0  0  0
 13 14  1  0  0  0
 13 31  1  0  0  0
 14 15  2  0  0  0
 14101  1  0  0  0
 15102  1  0  0  0
 16 17  2  0  0  0
 16 21  1  0  0  0
 16 31  1  0  0  0
 17 18  1  0  0  0
 17103  1  0  0  0
 18 19  2  0  0  0
 18104  1  0  0  0
 19 20  1  0  0  0
 19 24  1  0  0  0
 20 21  2  0  0  0
 20105  1  0  0  0
 21 23  1  0  0  0
 22 28  1  0  0  0
 22 32  2  0  0  0
 26 27  1  0  0  0
 28106  1  0  0  0
 28107  1  0  0  0
 29108  1  0  0  0
 29109  1  0  0  0
 33 34  1  0  0  0
 33 66  1  0  0  0
 33 70  2  0  0  0
 34 36  1  0  0  0
 34 59  1  0  0  0
 34110  1  0  0  0
 35 44  2  0  0  0
 35 45  1  0  0  0
 35 68  1  0  0  0
 36 56  1  0  0  0
 36111  1  0  0  0
 37 39  1  0  0  0
 37 47  1  0  0  0
 37 66  1  0  0  0
 37112  1  0  0  0
 38 43  2  0  0  0
 38 46  1  0  0  0
 38 47  1  0  0  0
 39 64  1  0  0  0
 39 67  2  0  0  0
 40 52  1  0  0  0
 40 53  2  0  0  0
 40 58  1  0  0  0
 41113  1  0  0  0
 41114  1  0  0  0
 41115  1  0  0  0
 41 48  1  0  0  0
 42 43  1  0  0  0
 42 66  1  0  0  0
 42116  1  0  0  0
 42117  1  0  0  0
 43 44  1  0  0  0
 44118  1  0  0  0
 45 46  2  0  0  0
 45119  1  0  0  0
 46120  1  0  0  0
 47121  1  0  0  0
 47122  1  0  0  0
 48 56  1  0  0  0
 48 65  1  0  0  0
 48123  1  0  0  0
 49 50  1  0  0  0
 49 53  1  0  0  0
 49 64  1  0  0  0
 49124  1  0  0  0
 50 51  1  0  0  0
 50125  1  0  0  0
 50126  1  0  0  0
 51 52  1  0  0  0
 51127  1  0  0  0
 51128  1  0  0  0
 52129  1  0  0  0
 52130  1  0  0  0
 53 54  1  0  0  0
 54 55  2  0  0  0
 54131  1  0  0  0
 55 57  1  0  0  0
 55132  1  0  0  0
 56 69  2  0  0  0
 57 58  2  0  0  0
 57133  1  0  0  0
 58134  1  0  0  0
 59 60  1  0  0  0
 59 61  1  0  0  0
 59 62  1  0  0  0
 60135  1  0  0  0
 60136  1  0  0  0
 60137  1  0  0  0
 61138  1  0  0  0
 61139  1  0  0  0
 61140  1  0  0  0
 62141  1  0  0  0
 62142  1  0  0  0
 62143  1  0  0  0
 63 65  1  0  0  0
 63144  1  0  0  0
 63145  1  0  0  0
 63146  1  0  0  0
 64147  1  0  0  0
 65148  1  0  0  0
 68 86  1  0  0  0
 71 72  1  0  0  0
 71 73  2  0  0  0
 71 77  1  0  0  0
 72 74  2  0  0  0
 72 78  1  0  0  0
 73 75  1  0  0  0
 73 84  1  0  0  0
 74 76  1  0  0  0
 74 80  1  0  0  0
 75 76  2  0  0  0
 75 81  1  0  0  0
 76 82  1  0  0  0
 77 79  1  0  0  0
 77149  1  0  0  0
 77150  1  0  0  0
 78151  1  0  0  0
 78152  1  0  0  0
 78 89  1  0  0  0
 79 89  1  0  0  0
 79153  1  0  0  0
 79154  1  0  0  0
 80155  1  0  0  0
 80156  1  0  0  0
 80157  1  0  0  0
 81158  1  0  0  0
 81159  1  0  0  0
 81160  1  0  0  0
 82161  1  0  0  0
 82162  1  0  0  0
 82163  1  0  0  0
 83164  1  0  0  0
 83165  1  0  0  0
 83166  1  0  0  0
 83 87  1  0  0  0
 84 85  1  0  0  0
 84167  1  0  0  0
 84168  1  0  0  0
 85 88  1  0  0  0
 85169  1  0  0  0
 85170  1  0  0  0
 86 87  1  0  0  0
 86171  1  0  0  0
 86172  1  0  0  0
 87 89  1  0  0  0
 87173  1  0  0  0
 88174  1  0  0  0
 89175  1  0  0  0
M  CHG  1  89   1
M  ISO  4   1 100  68 101  86 101  88 100
M  END
> <chiral flag>
0

> <version>
0

> <s_m_source_file>
/data/baiqing/PycharmProjects/Reinvent-master-3.2/result/LINK_invent/BTK/process_docking_weight1_custom_sum_contain_oxygen_bond_distance_aromatic_linkinvent_7_9_3/rearranged_h_0161.sdf

> <i_m_source_file_index>
37

> <r_mmod_Potential_Energy-OPLS-2005>
9230.0927734375

> <r_mmod_Stretch_Energy-OPLS-2005>
4891.90869140625

> <r_mmod_Bend_Energy-OPLS-2005>
1150.42443847656

> <r_mmod_Torsional_Energy-OPLS-2005>
731.432189941406

> <r_mmod_Improper_Torsional_Energy-OPLS-2005>
31.6506309509277

> <r_mmod_Van_der_Waal_Energy-OPLS-2005>
1909.26708984375

> <r_mmod_Electrostatic_Energy-OPLS-2005>
-297.293029785156

> <r_mmod_Solvation_Energy-OPLS-2005>
-445.358459472656

> <b_mmod_Minimization_Converged-OPLS-2005>
0

> <r_mmod_RMS_Derivative-OPLS-2005>
15.5048084259033

$$$$
37
                    3D
 Structure written by MMmdl.
170180  0  0  1  0            999 V2000
  -30.6125  -14.8664   20.4341 C   0  0  0  0  0  0
  -30.4231  -12.5435   19.4760 C   0  0  0  0  0  0
  -29.5028  -12.5111   18.2385 C   0  0  0  0  0  0
  -28.0381  -12.3038   18.6652 C   0  0  0  0  0  0
  -27.6223  -13.2312   19.8360 C   0  0  2  0  0  0
  -28.6719  -13.2725   20.9667 C   0  0  0  0  0  0
  -25.2448  -13.8169   20.5724 C   0  0  0  0  0  0
  -24.1756  -13.0409   20.9253 C   0  0  0  0  0  0
  -24.6364  -11.6898   20.8788 C   0  0  0  0  0  0
  -23.9057  -10.4275   21.0432 C   0  0  0  0  0  0
  -24.3610   -9.4189   21.9199 C   0  0  0  0  0  0
  -23.6278   -8.2227   22.0755 C   0  0  0  0  0  0
  -22.4259   -8.0280   21.3541 C   0  0  0  0  0  0
  -21.9904   -9.0257   20.4641 C   0  0  0  0  0  0
  -22.7240  -10.2128   20.3062 C   0  0  0  0  0  0
  -21.6847   -6.0738   22.5277 C   0  0  0  0  0  0
  -21.4006   -6.5641   23.8211 C   0  0  0  0  0  0
  -21.3659   -5.6790   24.9175 C   0  0  0  0  0  0
  -21.6047   -4.3055   24.7221 C   0  0  0  0  0  0
  -21.8820   -3.8151   23.4340 C   0  0  0  0  0  0
  -21.9182   -4.6964   22.3397 C   0  0  0  0  0  0
  -22.7782  -13.5204   21.1891 C   0  0  0  0  0  0
  -22.1652   -4.2152   21.0969 F   0  0  0  0  0  0
  -21.5636   -3.4537   25.7732 F   0  0  0  0  0  0
  -29.9496  -13.6495   20.3514 N   0  0  0  0  0  0
  -26.2847  -12.9360   20.3282 N   0  0  0  0  0  0
  -25.9286  -11.6515   20.5788 N   0  0  0  0  0  0
  -22.0419  -12.8198   22.0445 N   0  0  0  0  0  0
  -25.4110  -15.1888   20.4122 N   0  0  0  0  0  0
  -31.8296  -14.8626   20.2219 O   0  0  0  0  0  0
  -21.6625   -6.8878   21.4237 O   0  0  0  0  0  0
  -22.3476  -14.5513   20.6732 O   0  0  0  0  0  0
  -24.6380  -31.8490   23.1946 C   0  0  0  0  0  0
  -25.9185  -32.4712   23.8309 C   0  0  1  0  0  0
  -27.2113  -27.1998   20.1422 C   0  0  0  0  0  0
  -25.5950  -33.8517   24.2224 N   0  0  0  0  0  0
  -23.4372  -30.4714   21.5387 C   0  0  2  0  0  0
  -24.8840  -28.9062   20.1133 C   0  0  0  0  0  0
  -22.7534  -29.4568   22.4878 C   0  0  0  0  0  0
  -18.0302  -28.1372   22.8477 C   0  0  0  0  0  0
  -24.1485  -36.7264   23.2645 C   0  0  0  0  0  0
  -25.9888  -30.7423   21.3845 C   0  0  0  0  0  0
  -26.0599  -29.3595   20.7263 C   0  0  0  0  0  0
  -27.2295  -28.5221   20.7229 C   0  0  0  0  0  0
  -26.0165  -26.8338   19.4893 C   0  0  0  0  0  0
  -24.8707  -27.6538   19.4811 C   0  0  0  0  0  0
  -23.6606  -29.8039   20.1566 C   0  0  0  0  0  0
  -25.4118  -36.3034   24.0316 C   0  0  1  0  0  0
  -20.5910  -28.3696   23.1238 C   0  0  2  0  0  0
  -20.6775  -26.9402   22.5392 C   0  0  0  0  0  0
  -19.5745  -26.6366   21.5197 C   0  0  0  0  0  0
  -18.1933  -26.7914   22.1617 C   0  0  0  0  0  0
  -19.1556  -28.8853   23.2848 C   0  0  0  0  0  0
  -18.9483  -30.1455   23.8862 C   0  0  0  0  0  0
  -17.6481  -30.6573   24.0557 C   0  0  0  0  0  0
  -25.9067  -34.9409   23.5074 C   0  0  0  0  0  0
  -16.5367  -29.9072   23.6330 C   0  0  0  0  0  0
  -16.7289  -28.6490   23.0349 C   0  0  0  0  0  0
  -26.4537  -31.6566   25.0726 C   0  0  0  0  0  0
  -25.3743  -31.3719   26.1430 C   0  0  0  0  0  0
  -27.0444  -30.2985   24.6281 C   0  0  0  0  0  0
  -27.6055  -32.4358   25.7505 C   0  0  0  0  0  0
  -27.5576  -37.1775   24.8466 C   0  0  0  0  0  0
  -21.4234  -29.3038   22.3623 N   0  0  0  0  0  0
  -26.4280  -37.3751   23.9421 N   0  0  0  0  0  0
  -24.7074  -31.0406   22.0950 N   0  0  0  0  0  0
  -23.4206  -28.8107   23.2999 O   0  0  0  0  0  0
  -28.2792  -26.2555   20.1596 O   0  0  0  0  0  0
  -26.5646  -34.8899   22.4650 O   0  0  0  0  0  0
  -23.5514  -32.1341   23.7202 O   0  0  0  0  0  0
  -30.2328  -22.5514   18.1812 C   0  0  0  0  0  0
  -30.1310  -21.2151   18.6382 C   0  0  0  0  0  0
  -29.3644  -20.9101   19.8122 C   0  0  0  0  0  0
  -29.5749  -23.6524   18.7578 C   0  0  0  0  0  0
  -28.7034  -22.0945   20.4217 C   0  0  0  0  0  0
  -28.7830  -23.4912   19.9154 C   0  0  0  0  0  0
  -31.3457  -20.4342   16.3780 C   0  0  0  0  0  0
  -30.2260  -19.4737   16.6419 C   0  0  0  0  0  0
  -28.8805  -18.1807   19.3853 C   0  0  0  0  0  0
  -30.5483  -18.7150   21.0381 C   0  0  0  0  0  0
  -28.7836  -16.6753   19.9227 C   0  0  0  0  0  0
  -30.4809  -17.1950   21.5547 C   0  0  0  0  0  0
  -30.8810  -20.1867   17.8117 C   0  0  0  0  0  0
  -29.2726  -19.3529   20.3702 C   0  0  0  0  0  0
  -29.7375  -24.9994   18.0694 C   0  0  0  0  0  0
  -27.8659  -21.8391   21.6663 C   0  0  0  0  0  0
  -28.0059  -24.7909   20.5269 C   0  0  0  0  0  0
  -29.9505  -16.1025   20.6654 N   0  0  0  0  0  0
  -31.4583  -12.6798   19.1590 H   0  0  0  0  0  0
  -30.3958  -11.5908   20.0079 H   0  0  0  0  0  0
  -29.8112  -11.7180   17.5557 H   0  0  0  0  0  0
  -29.5968  -13.4476   17.6856 H   0  0  0  0  0  0
  -27.9297  -11.2617   18.9668 H   0  0  0  0  0  0
  -27.3711  -12.4459   17.8143 H   0  0  0  0  0  0
  -27.5675  -14.2221   19.3981 H   0  0  0  0  0  0
  -28.7486  -12.3090   21.4722 H   0  0  0  0  0  0
  -28.3852  -14.0030   21.7253 H   0  0  0  0  0  0
  -25.2746   -9.5667   22.4787 H   0  0  0  0  0  0
  -23.9987   -7.4613   22.7477 H   0  0  0  0  0  0
  -21.0841   -8.8789   19.8939 H   0  0  0  0  0  0
  -22.3711  -10.9683   19.6178 H   0  0  0  0  0  0
  -21.2001   -7.6148   23.9716 H   0  0  0  0  0  0
  -21.1483   -6.0520   25.9077 H   0  0  0  0  0  0
  -22.0599   -2.7615   23.2835 H   0  0  0  0  0  0
  -22.4025  -11.9856   22.4834 H   0  0  0  0  0  0
  -21.1032  -13.1225   22.2640 H   0  0  0  0  0  0
  -24.6426  -15.8411   20.5270 H   0  0  0  0  0  0
  -26.2599  -15.6291   20.0840 H   0  0  0  0  0  0
  -26.7242  -32.5330   23.1030 H   0  0  0  0  0  0
  -25.0071  -33.9643   25.0353 H   0  0  0  0  0  0
  -22.7350  -31.2940   21.3889 H   0  0  0  0  0  0
  -23.3746  -35.9596   23.3280 H   0  0  0  0  0  0
  -24.3568  -36.8939   22.2067 H   0  0  0  0  0  0
  -23.7242  -37.6448   23.6709 H   0  0  0  0  0  0
  -26.1368  -31.4992   20.6136 H   0  0  0  0  0  0
  -26.8630  -30.7904   22.0225 H   0  0  0  0  0  0
  -28.1317  -28.8658   21.2102 H   0  0  0  0  0  0
  -25.9543  -25.8825   18.9822 H   0  0  0  0  0  0
  -23.9742  -27.3040   18.9875 H   0  0  0  0  0  0
  -23.7950  -30.5797   19.4016 H   0  0  0  0  0  0
  -22.7761  -29.2452   19.8456 H   0  0  0  0  0  0
  -25.1299  -36.1856   25.0807 H   0  0  0  0  0  0
  -21.0004  -28.3278   24.1357 H   0  0  0  0  0  0
  -20.5657  -26.2306   23.3606 H   0  0  0  0  0  0
  -21.6644  -26.7390   22.1198 H   0  0  0  0  0  0
  -19.6898  -25.6276   21.1232 H   0  0  0  0  0  0
  -19.6677  -27.3164   20.6720 H   0  0  0  0  0  0
  -17.4199  -26.6661   21.4024 H   0  0  0  0  0  0
  -18.0326  -26.0056   22.9013 H   0  0  0  0  0  0
  -19.7962  -30.7279   24.2197 H   0  0  0  0  0  0
  -17.5040  -31.6248   24.5173 H   0  0  0  0  0  0
  -15.5364  -30.2967   23.7674 H   0  0  0  0  0  0
  -15.8687  -28.0809   22.7065 H   0  0  0  0  0  0
  -24.5907  -30.7095   25.7738 H   0  0  0  0  0  0
  -24.8949  -32.2893   26.4854 H   0  0  0  0  0  0
  -25.8050  -30.8877   27.0205 H   0  0  0  0  0  0
  -26.3080  -29.6655   24.1320 H   0  0  0  0  0  0
  -27.4132  -29.7321   25.4845 H   0  0  0  0  0  0
  -27.8941  -30.4255   23.9567 H   0  0  0  0  0  0
  -27.2631  -33.3679   26.2018 H   0  0  0  0  0  0
  -28.3893  -32.6908   25.0355 H   0  0  0  0  0  0
  -28.0701  -31.8539   26.5476 H   0  0  0  0  0  0
  -28.2555  -38.0106   24.7551 H   0  0  0  0  0  0
  -28.1106  -36.2635   24.6250 H   0  0  0  0  0  0
  -27.2286  -37.1377   25.8862 H   0  0  0  0  0  0
  -20.9419  -29.8791   21.6853 H   0  0  0  0  0  0
  -26.0135  -38.2804   24.1468 H   0  0  0  0  0  0
  -30.8460  -22.7642   17.3204 H   0  0  0  0  0  0
  -31.0511  -21.3168   15.8157 H   0  0  0  0  0  0
  -32.2927  -19.9941   16.0695 H   0  0  0  0  0  0
  -30.4517  -18.4212   16.4827 H   0  0  0  0  0  0
  -29.2199  -19.7822   16.3655 H   0  0  0  0  0  0
  -27.9493  -18.4387   18.8794 H   0  0  0  0  0  0
  -29.6294  -18.1126   18.6107 H   0  0  0  0  0  0
  -31.3864  -18.7751   20.3499 H   0  0  0  0  0  0
  -30.8340  -19.3457   21.8810 H   0  0  0  0  0  0
  -28.5984  -16.0524   19.0491 H   0  0  0  0  0  0
  -27.9087  -16.5815   20.5650 H   0  0  0  0  0  0
  -29.8514  -17.1799   22.4460 H   0  0  0  0  0  0
  -31.4727  -16.9124   21.9113 H   0  0  0  0  0  0
  -31.5983  -19.6473   18.4216 H   0  0  0  0  0  0
  -28.4947  -19.3513   21.1318 H   0  0  0  0  0  0
  -30.2925  -24.9163   17.1341 H   0  0  0  0  0  0
  -30.2819  -25.6956   18.7080 H   0  0  0  0  0  0
  -28.7657  -25.4276   17.8197 H   0  0  0  0  0  0
  -28.4717  -21.3613   22.4363 H   0  0  0  0  0  0
  -27.0274  -21.1835   21.4310 H   0  0  0  0  0  0
  -27.4504  -22.7435   22.1049 H   0  0  0  0  0  0
  -28.1927  -24.7647   21.5995 H   0  0  0  0  0  0
  -26.9439  -24.5716   20.4329 H   0  0  0  0  0  0
  1 25  1  0  0  0
  1 30  2  0  0  0
  1 88  1  0  0  0
  2  3  1  0  0  0
  2 25  1  0  0  0
  2 89  1  0  0  0
  2 90  1  0  0  0
  3  4  1  0  0  0
  3 91  1  0  0  0
  3 92  1  0  0  0
  4  5  1  0  0  0
  4 93  1  0  0  0
  4 94  1  0  0  0
  5  6  1  0  0  0
  5 26  1  0  0  0
  5 95  1  0  0  0
  6 25  1  0  0  0
  6 96  1  0  0  0
  6 97  1  0  0  0
  7  8  2  0  0  0
  7 26  1  0  0  0
  7 29  1  0  0  0
  8  9  1  0  0  0
  8 22  1  0  0  0
  9 10  1  0  0  0
  9 27  2  0  0  0
 10 11  2  0  0  0
 10 15  1  0  0  0
 11 12  1  0  0  0
 11 98  1  0  0  0
 12 13  2  0  0  0
 12 99  1  0  0  0
 13 14  1  0  0  0
 13 31  1  0  0  0
 14 15  2  0  0  0
 14100  1  0  0  0
 15101  1  0  0  0
 16 17  2  0  0  0
 16 21  1  0  0  0
 16 31  1  0  0  0
 17 18  1  0  0  0
 17102  1  0  0  0
 18 19  2  0  0  0
 18103  1  0  0  0
 19 20  1  0  0  0
 19 24  1  0  0  0
 20 21  2  0  0  0
 20104  1  0  0  0
 21 23  1  0  0  0
 22 28  1  0  0  0
 22 32  2  0  0  0
 26 27  1  0  0  0
 28105  1  0  0  0
 28106  1  0  0  0
 29107  1  0  0  0
 29108  1  0  0  0
 33 34  1  0  0  0
 33 66  1  0  0  0
 33 70  2  0  0  0
 34 36  1  0  0  0
 34 59  1  0  0  0
 34109  1  0  0  0
 35 44  2  0  0  0
 35 45  1  0  0  0
 35 68  1  0  0  0
 36 56  1  0  0  0
 36110  1  0  0  0
 37 39  1  0  0  0
 37 47  1  0  0  0
 37 66  1  0  0  0
 37111  1  0  0  0
 38 43  2  0  0  0
 38 46  1  0  0  0
 38 47  1  0  0  0
 39 64  1  0  0  0
 39 67  2  0  0  0
 40 52  1  0  0  0
 40 53  2  0  0  0
 40 58  1  0  0  0
 41112  1  0  0  0
 41113  1  0  0  0
 41114  1  0  0  0
 41 48  1  0  0  0
 42 43  1  0  0  0
 42 66  1  0  0  0
 42115  1  0  0  0
 42116  1  0  0  0
 43 44  1  0  0  0
 44117  1  0  0  0
 45 46  2  0  0  0
 45118  1  0  0  0
 46119  1  0  0  0
 47120  1  0  0  0
 47121  1  0  0  0
 48 56  1  0  0  0
 48 65  1  0  0  0
 48122  1  0  0  0
 49 50  1  0  0  0
 49 53  1  0  0  0
 49 64  1  0  0  0
 49123  1  0  0  0
 50 51  1  0  0  0
 50124  1  0  0  0
 50125  1  0  0  0
 51 52  1  0  0  0
 51126  1  0  0  0
 51127  1  0  0  0
 52128  1  0  0  0
 52129  1  0  0  0
 53 54  1  0  0  0
 54 55  2  0  0  0
 54130  1  0  0  0
 55 57  1  0  0  0
 55131  1  0  0  0
 56 69  2  0  0  0
 57 58  2  0  0  0
 57132  1  0  0  0
 58133  1  0  0  0
 59 60  1  0  0  0
 59 61  1  0  0  0
 59 62  1  0  0  0
 60134  1  0  0  0
 60135  1  0  0  0
 60136  1  0  0  0
 61137  1  0  0  0
 61138  1  0  0  0
 61139  1  0  0  0
 62140  1  0  0  0
 62141  1  0  0  0
 62142  1  0  0  0
 63 65  1  0  0  0
 63143  1  0  0  0
 63144  1  0  0  0
 63145  1  0  0  0
 64146  1  0  0  0
 65147  1  0  0  0
 68 87  1  0  0  0
 71 72  2  0  0  0
 71 74  1  0  0  0
 71148  1  0  0  0
 72 73  1  0  0  0
 72 83  1  0  0  0
 73 75  2  0  0  0
 73 84  1  0  0  0
 74 76  2  0  0  0
 74 85  1  0  0  0
 75 76  1  0  0  0
 75 86  1  0  0  0
 76 87  1  0  0  0
 77 78  1  0  0  0
 77 83  1  0  0  0
 77149  1  0  0  0
 77150  1  0  0  0
 78 83  1  0  0  0
 78151  1  0  0  0
 78152  1  0  0  0
 79 81  1  0  0  0
 79 84  1  0  0  0
 79153  1  0  0  0
 79154  1  0  0  0
 80 82  1  0  0  0
 80 84  1  0  0  0
 80155  1  0  0  0
 80156  1  0  0  0
 81 88  1  0  0  0
 81157  1  0  0  0
 81158  1  0  0  0
 82 88  1  0  0  0
 82159  1  0  0  0
 82160  1  0  0  0
 83161  1  0  0  0
 84162  1  0  0  0
 85163  1  0  0  0
 85164  1  0  0  0
 85165  1  0  0  0
 86166  1  0  0  0
 86167  1  0  0  0
 86168  1  0  0  0
 87169  1  0  0  0
 87170  1  0  0  0
M  ISO  4   1 100  68 101  87 101  88 100
M  END
> <chiral flag>
0

> <version>
0

> <s_m_source_file>
/data/baiqing/PycharmProjects/Reinvent-master-3.2/result/LINK_invent/BTK/process_docking_weight1_custom_sum_contain_oxygen_bond_distance_aromatic_linkinvent_7_9_3/rearranged_h_0161.sdf

> <i_m_source_file_index>
38

> <r_mmod_Potential_Energy-OPLS-2005>
621.488464355469

> <r_mmod_Stretch_Energy-OPLS-2005>
195.808334350586

> <r_mmod_Bend_Energy-OPLS-2005>
234.724609375

> <r_mmod_Torsional_Energy-OPLS-2005>
374.995513916016

> <r_mmod_Improper_Torsional_Energy-OPLS-2005>
2.27701783180237

> <r_mmod_Van_der_Waal_Energy-OPLS-2005>
149.767166137695

> <r_mmod_Electrostatic_Energy-OPLS-2005>
-286.053558349609

> <r_mmod_Solvation_Energy-OPLS-2005>
-191.875579833984

> <b_mmod_Minimization_Converged-OPLS-2005>
0

> <r_mmod_RMS_Derivative-OPLS-2005>
1.42193865776062

$$$$
38
                    3D
 Structure written by MMmdl.
183193  0  0  1  0            999 V2000
  -30.6652  -14.5586   20.5670 C   0  0  0  0  0  0
  -30.4077  -12.3756   19.4371 C   0  0  0  0  0  0
  -29.4748  -12.4783   18.2145 C   0  0  0  0  0  0
  -28.0004  -12.3038   18.6331 C   0  0  0  0  0  0
  -27.6301  -13.1745   19.8616 C   0  0  2  0  0  0
  -28.6739  -13.0054   20.9857 C   0  0  0  0  0  0
  -25.2411  -13.7958   20.5701 C   0  0  0  0  0  0
  -24.1713  -13.0314   20.9215 C   0  0  0  0  0  0
  -24.6267  -11.6736   20.8791 C   0  0  0  0  0  0
  -23.8937  -10.4160   21.0461 C   0  0  0  0  0  0
  -24.3508   -9.4055   21.9253 C   0  0  0  0  0  0
  -23.6196   -8.2091   22.0785 C   0  0  0  0  0  0
  -22.4189   -8.0186   21.3561 C   0  0  0  0  0  0
  -21.9786   -9.0160   20.4671 C   0  0  0  0  0  0
  -22.7093  -10.2041   20.3119 C   0  0  0  0  0  0
  -21.6772   -6.0694   22.5298 C   0  0  0  0  0  0
  -21.3951   -6.5623   23.8224 C   0  0  0  0  0  0
  -21.3621   -5.6797   24.9210 C   0  0  0  0  0  0
  -21.6044   -4.3073   24.7248 C   0  0  0  0  0  0
  -21.8804   -3.8130   23.4381 C   0  0  0  0  0  0
  -21.9151   -4.6941   22.3405 C   0  0  0  0  0  0
  -22.7749  -13.5117   21.1850 C   0  0  0  0  0  0
  -22.1642   -4.2130   21.0993 F   0  0  0  0  0  0
  -21.5632   -3.4561   25.7756 F   0  0  0  0  0  0
  -29.9635  -13.3952   20.4102 N   0  0  0  0  0  0
  -26.2821  -12.9108   20.3359 N   0  0  0  0  0  0
  -25.9167  -11.6284   20.5787 N   0  0  0  0  0  0
  -22.0384  -12.8232   22.0441 N   0  0  0  0  0  0
  -25.4088  -15.1660   20.4094 N   0  0  0  0  0  0
  -31.8732  -14.5517   20.3470 O   0  0  0  0  0  0
  -21.6561   -6.8814   21.4247 O   0  0  0  0  0  0
  -22.3453  -14.5430   20.6616 O   0  0  0  0  0  0
  -24.6127  -31.8682   23.2063 C   0  0  0  0  0  0
  -25.9003  -32.4838   23.8373 C   0  0  1  0  0  0
  -27.2080  -27.4186   20.1120 C   0  0  0  0  0  0
  -25.5858  -33.8639   24.2340 N   0  0  0  0  0  0
  -23.3941  -30.4883   21.5511 C   0  0  2  0  0  0
  -24.8377  -28.9568   20.1042 C   0  0  0  0  0  0
  -22.7376  -29.4628   22.5032 C   0  0  0  0  0  0
  -18.0247  -28.1390   22.8483 C   0  0  0  0  0  0
  -24.1464  -36.7354   23.2633 C   0  0  0  0  0  0
  -25.9147  -30.8472   21.3308 C   0  0  0  0  0  0
  -25.9978  -29.4684   20.7043 C   0  0  0  0  0  0
  -27.1888  -28.7062   20.7060 C   0  0  0  0  0  0
  -26.0397  -26.9333   19.4906 C   0  0  0  0  0  0
  -24.8548  -27.6947   19.4886 C   0  0  0  0  0  0
  -23.5945  -29.8167   20.1643 C   0  0  0  0  0  0
  -25.4079  -36.3153   24.0361 C   0  0  1  0  0  0
  -20.5829  -28.3668   23.1363 C   0  0  2  0  0  0
  -20.6771  -26.9418   22.5435 C   0  0  0  0  0  0
  -19.5767  -26.6406   21.5219 C   0  0  0  0  0  0
  -18.1933  -26.7926   22.1623 C   0  0  0  0  0  0
  -19.1496  -28.8849   23.2924 C   0  0  0  0  0  0
  -18.9421  -30.1447   23.8941 C   0  0  0  0  0  0
  -17.6431  -30.6602   24.0575 C   0  0  0  0  0  0
  -25.9011  -34.9503   23.5164 C   0  0  0  0  0  0
  -16.5319  -29.9122   23.6300 C   0  0  0  0  0  0
  -16.7239  -28.6538   23.0327 C   0  0  0  0  0  0
  -26.4458  -31.6568   25.0655 C   0  0  0  0  0  0
  -25.3721  -31.3624   26.1410 C   0  0  0  0  0  0
  -27.0186  -30.3036   24.5827 C   0  0  0  0  0  0
  -27.6086  -32.4171   25.7411 C   0  0  0  0  0  0
  -27.5589  -37.1850   24.8470 C   0  0  0  0  0  0
  -21.4101  -29.3035   22.3800 N   0  0  0  0  0  0
  -26.4282  -37.3830   23.9428 N   0  0  0  0  0  0
  -24.6620  -31.0811   22.0921 N   0  0  0  0  0  0
  -23.4187  -28.8146   23.3023 O   0  0  0  0  0  0
  -28.3422  -26.6352   20.1194 O   0  0  0  0  0  0
  -26.5596  -34.8948   22.4729 O   0  0  0  0  0  0
  -23.5340  -32.1383   23.7510 O   0  0  0  0  0  0
  -31.8128  -20.0572   21.3329 C   0  0  0  0  0  0
  -31.4442  -17.9236   20.0821 C   0  0  0  0  0  0
  -33.2272  -19.8539   21.2369 C   0  0  0  0  0  0
  -32.8571  -17.8204   19.8778 C   0  0  0  0  0  0
  -33.7305  -18.8035   20.4209 C   0  0  0  0  0  0
  -30.9475  -19.1140   20.7148 C   0  0  0  0  0  0
  -28.0832  -17.0082   19.7204 C   0  0  0  0  0  0
  -29.2460  -17.3039   18.7728 C   0  0  0  0  0  0
  -28.6888  -16.2263   20.8996 C   0  0  0  0  0  0
  -29.3174  -20.7868   20.2386 C   0  0  0  0  0  0
  -31.0619  -21.2660   21.9793 C   0  0  2  0  0  0
  -30.4987  -16.8143   19.5145 C   0  0  1  0  0  0
  -30.1403  -21.9126   20.9032 C   0  0  2  0  0  0
  -34.2392  -20.7466   21.9505 C   0  0  0  0  0  0
  -33.4944  -16.6845   19.0395 C   0  0  0  0  0  0
  -35.2260  -18.7390   20.0565 C   0  0  0  0  0  0
  -31.8570  -22.3264   22.7694 C   0  0  0  0  0  0
  -27.8909  -23.6430   19.1364 C   0  0  0  0  0  0
  -29.2111  -23.1074   21.3467 C   0  0  0  0  0  0
  -28.2352  -25.4416   20.9173 C   0  0  0  0  0  0
  -28.8342  -24.1647   20.2545 C   0  0  2  0  0  0
  -30.0051  -15.7623   20.4369 N   0  0  0  0  0  0
  -29.6085  -19.4446   20.6983 O   0  0  0  0  0  0
  -31.4364  -12.5214   19.0982 H   0  0  0  0  0  0
  -30.3814  -11.3818   19.8871 H   0  0  0  0  0  0
  -29.7409  -11.7310   17.4610 H   0  0  0  0  0  0
  -29.6042  -13.4547   17.7540 H   0  0  0  0  0  0
  -27.8455  -11.2518   18.8704 H   0  0  0  0  0  0
  -27.3335  -12.5157   17.7938 H   0  0  0  0  0  0
  -27.6396  -14.1984   19.5049 H   0  0  0  0  0  0
  -28.6913  -11.9604   21.3045 H   0  0  0  0  0  0
  -28.4272  -13.5576   21.8895 H   0  0  0  0  0  0
  -25.2667   -9.5503   22.4865 H   0  0  0  0  0  0
  -23.9897   -7.4401   22.7469 H   0  0  0  0  0  0
  -21.0695   -8.8642   19.8927 H   0  0  0  0  0  0
  -22.3549  -10.9622   19.6253 H   0  0  0  0  0  0
  -21.1967   -7.6151   23.9725 H   0  0  0  0  0  0
  -21.1473   -6.0574   25.9123 H   0  0  0  0  0  0
  -22.0626   -2.7605   23.2917 H   0  0  0  0  0  0
  -22.3941  -11.9904   22.4881 H   0  0  0  0  0  0
  -21.1041  -13.1383   22.2605 H   0  0  0  0  0  0
  -24.6352  -15.8149   20.5042 H   0  0  0  0  0  0
  -26.2739  -15.6133   20.1335 H   0  0  0  0  0  0
  -26.7065  -32.5606   23.1154 H   0  0  0  0  0  0
  -25.0016  -33.9777   25.0508 H   0  0  0  0  0  0
  -22.6735  -31.3002   21.4178 H   0  0  0  0  0  0
  -23.3714  -35.9705   23.3306 H   0  0  0  0  0  0
  -24.3555  -36.8952   22.2040 H   0  0  0  0  0  0
  -23.7211  -37.6576   23.6602 H   0  0  0  0  0  0
  -25.9572  -31.5845   20.5267 H   0  0  0  0  0  0
  -26.8306  -30.9643   21.8970 H   0  0  0  0  0  0
  -28.0813  -29.0916   21.1767 H   0  0  0  0  0  0
  -26.0443  -25.9642   19.0113 H   0  0  0  0  0  0
  -23.9618  -27.3073   19.0139 H   0  0  0  0  0  0
  -23.6744  -30.5873   19.3955 H   0  0  0  0  0  0
  -22.7216  -29.2194   19.8918 H   0  0  0  0  0  0
  -25.1240  -36.2046   25.0858 H   0  0  0  0  0  0
  -20.9899  -28.3222   24.1500 H   0  0  0  0  0  0
  -20.5699  -26.2260   23.3602 H   0  0  0  0  0  0
  -21.6654  -26.7529   22.1223 H   0  0  0  0  0  0
  -19.6961  -25.6328   21.1247 H   0  0  0  0  0  0
  -19.6723  -27.3228   20.6746 H   0  0  0  0  0  0
  -17.4202  -26.6627   21.4022 H   0  0  0  0  0  0
  -18.0373  -26.0083   22.9035 H   0  0  0  0  0  0
  -19.7894  -30.7254   24.2352 H   0  0  0  0  0  0
  -17.4982  -31.6276   24.5189 H   0  0  0  0  0  0
  -15.5336  -30.3066   23.7587 H   0  0  0  0  0  0
  -15.8618  -28.0891   22.7026 H   0  0  0  0  0  0
  -24.6005  -30.6833   25.7784 H   0  0  0  0  0  0
  -24.8781  -32.2741   26.4774 H   0  0  0  0  0  0
  -25.8145  -30.8920   27.0202 H   0  0  0  0  0  0
  -26.2641  -29.6888   24.0908 H   0  0  0  0  0  0
  -27.4083  -29.7164   25.4151 H   0  0  0  0  0  0
  -27.8414  -30.4448   23.8802 H   0  0  0  0  0  0
  -27.2835  -33.3501   26.2023 H   0  0  0  0  0  0
  -28.3930  -32.6632   25.0231 H   0  0  0  0  0  0
  -28.0675  -31.8185   26.5293 H   0  0  0  0  0  0
  -28.2634  -38.0120   24.7514 H   0  0  0  0  0  0
  -28.1061  -36.2672   24.6290 H   0  0  0  0  0  0
  -27.2325  -37.1520   25.8875 H   0  0  0  0  0  0
  -20.9234  -29.8773   21.7069 H   0  0  0  0  0  0
  -26.0190  -38.2929   24.1397 H   0  0  0  0  0  0
  -27.3220  -16.4486   19.1744 H   0  0  0  0  0  0
  -27.5954  -17.9149   20.0848 H   0  0  0  0  0  0
  -29.2882  -18.3367   18.4251 H   0  0  0  0  0  0
  -29.1315  -16.6954   17.8731 H   0  0  0  0  0  0
  -28.0058  -15.4867   21.2983 H   0  0  0  0  0  0
  -28.8322  -16.9115   21.7345 H   0  0  0  0  0  0
  -29.4612  -20.8432   19.1597 H   0  0  0  0  0  0
  -28.2576  -20.9843   20.3995 H   0  0  0  0  0  0
  -30.4060  -20.8029   22.7179 H   0  0  0  0  0  0
  -31.0258  -16.2685   18.7485 H   0  0  0  0  0  0
  -30.8260  -22.3074   20.1472 H   0  0  0  0  0  0
  -33.9909  -20.8831   22.9989 H   0  0  0  0  0  0
  -34.3333  -21.7092   21.4514 H   0  0  0  0  0  0
  -35.2335  -20.3112   22.0213 H   0  0  0  0  0  0
  -34.3797  -16.9638   18.4874 H   0  0  0  0  0  0
  -32.8915  -16.3322   18.2105 H   0  0  0  0  0  0
  -33.8252  -15.8435   19.6520 H   0  0  0  0  0  0
  -35.7798  -19.6622   20.2006 H   0  0  0  0  0  0
  -35.3379  -18.6505   18.9829 H   0  0  0  0  0  0
  -35.7479  -17.9018   20.5340 H   0  0  0  0  0  0
  -32.5541  -22.8687   22.1292 H   0  0  0  0  0  0
  -32.3639  -21.9090   23.6335 H   0  0  0  0  0  0
  -31.2015  -23.0510   23.2410 H   0  0  0  0  0  0
  -27.7046  -24.4119   18.3868 H   0  0  0  0  0  0
  -26.9076  -23.3477   19.5125 H   0  0  0  0  0  0
  -28.3133  -22.7898   18.5979 H   0  0  0  0  0  0
  -29.6901  -23.6938   22.1208 H   0  0  0  0  0  0
  -28.3254  -22.7310   21.8529 H   0  0  0  0  0  0
  -28.7645  -25.6653   21.8458 H   0  0  0  0  0  0
  -27.2099  -25.2234   21.2251 H   0  0  0  0  0  0
  -29.7772  -24.4524   19.7887 H   0  0  0  0  0  0
  1 25  1  0  0  0
  1 30  2  0  0  0
  1 92  1  0  0  0
  2  3  1  0  0  0
  2 25  1  0  0  0
  2 94  1  0  0  0
  2 95  1  0  0  0
  3  4  1  0  0  0
  3 96  1  0  0  0
  3 97  1  0  0  0
  4  5  1  0  0  0
  4 98  1  0  0  0
  4 99  1  0  0  0
  5  6  1  0  0  0
  5 26  1  0  0  0
  5100  1  0  0  0
  6 25  1  0  0  0
  6101  1  0  0  0
  6102  1  0  0  0
  7  8  2  0  0  0
  7 26  1  0  0  0
  7 29  1  0  0  0
  8  9  1  0  0  0
  8 22  1  0  0  0
  9 10  1  0  0  0
  9 27  2  0  0  0
 10 11  2  0  0  0
 10 15  1  0  0  0
 11 12  1  0  0  0
 11103  1  0  0  0
 12 13  2  0  0  0
 12104  1  0  0  0
 13 14  1  0  0  0
 13 31  1  0  0  0
 14 15  2  0  0  0
 14105  1  0  0  0
 15106  1  0  0  0
 16 17  2  0  0  0
 16 21  1  0  0  0
 16 31  1  0  0  0
 17 18  1  0  0  0
 17107  1  0  0  0
 18 19  2  0  0  0
 18108  1  0  0  0
 19 20  1  0  0  0
 19 24  1  0  0  0
 20 21  2  0  0  0
 20109  1  0  0  0
 21 23  1  0  0  0
 22 28  1  0  0  0
 22 32  2  0  0  0
 26 27  1  0  0  0
 28110  1  0  0  0
 28111  1  0  0  0
 29112  1  0  0  0
 29113  1  0  0  0
 33 34  1  0  0  0
 33 66  1  0  0  0
 33 70  2  0  0  0
 34 36  1  0  0  0
 34 59  1  0  0  0
 34114  1  0  0  0
 35 44  2  0  0  0
 35 45  1  0  0  0
 35 68  1  0  0  0
 36 56  1  0  0  0
 36115  1  0  0  0
 37 39  1  0  0  0
 37 47  1  0  0  0
 37 66  1  0  0  0
 37116  1  0  0  0
 38 43  2  0  0  0
 38 46  1  0  0  0
 38 47  1  0  0  0
 39 64  1  0  0  0
 39 67  2  0  0  0
 40 52  1  0  0  0
 40 53  2  0  0  0
 40 58  1  0  0  0
 41117  1  0  0  0
 41118  1  0  0  0
 41119  1  0  0  0
 41 48  1  0  0  0
 42 43  1  0  0  0
 42 66  1  0  0  0
 42120  1  0  0  0
 42121  1  0  0  0
 43 44  1  0  0  0
 44122  1  0  0  0
 45 46  2  0  0  0
 45123  1  0  0  0
 46124  1  0  0  0
 47125  1  0  0  0
 47126  1  0  0  0
 48 56  1  0  0  0
 48 65  1  0  0  0
 48127  1  0  0  0
 49 50  1  0  0  0
 49 53  1  0  0  0
 49 64  1  0  0  0
 49128  1  0  0  0
 50 51  1  0  0  0
 50129  1  0  0  0
 50130  1  0  0  0
 51 52  1  0  0  0
 51131  1  0  0  0
 51132  1  0  0  0
 52133  1  0  0  0
 52134  1  0  0  0
 53 54  1  0  0  0
 54 55  2  0  0  0
 54135  1  0  0  0
 55 57  1  0  0  0
 55136  1  0  0  0
 56 69  2  0  0  0
 57 58  2  0  0  0
 57137  1  0  0  0
 58138  1  0  0  0
 59 60  1  0  0  0
 59 61  1  0  0  0
 59 62  1  0  0  0
 60139  1  0  0  0
 60140  1  0  0  0
 60141  1  0  0  0
 61142  1  0  0  0
 61143  1  0  0  0
 61144  1  0  0  0
 62145  1  0  0  0
 62146  1  0  0  0
 62147  1  0  0  0
 63 65  1  0  0  0
 63148  1  0  0  0
 63149  1  0  0  0
 63150  1  0  0  0
 64151  1  0  0  0
 65152  1  0  0  0
 68 90  1  0  0  0
 71 73  2  0  0  0
 71 76  1  0  0  0
 71 81  1  0  0  0
 72 74  1  0  0  0
 72 76  2  0  0  0
 72 82  1  0  0  0
 73 75  1  0  0  0
 73 84  1  0  0  0
 74 75  2  0  0  0
 74 85  1  0  0  0
 75 86  1  0  0  0
 76 93  1  0  0  0
 77 78  1  0  0  0
 77 79  1  0  0  0
 77153  1  0  0  0
 77154  1  0  0  0
 78 82  1  0  0  0
 78155  1  0  0  0
 78156  1  0  0  0
 79 92  1  0  0  0
 79157  1  0  0  0
 79158  1  0  0  0
 80 83  1  0  0  0
 80 93  1  0  0  0
 80159  1  0  0  0
 80160  1  0  0  0
 81 83  1  0  0  0
 81 87  1  0  0  0
 81161  1  0  0  0
 82 92  1  0  0  0
 82162  1  0  0  0
 83 89  1  0  0  0
 83163  1  0  0  0
 84164  1  0  0  0
 84165  1  0  0  0
 84166  1  0  0  0
 85167  1  0  0  0
 85168  1  0  0  0
 85169  1  0  0  0
 86170  1  0  0  0
 86171  1  0  0  0
 86172  1  0  0  0
 87173  1  0  0  0
 87174  1  0  0  0
 87175  1  0  0  0
 88176  1  0  0  0
 88177  1  0  0  0
 88178  1  0  0  0
 88 91  1  0  0  0
 89 91  1  0  0  0
 89179  1  0  0  0
 89180  1  0  0  0
 90 91  1  0  0  0
 90181  1  0  0  0
 90182  1  0  0  0
 91183  1  0  0  0
M  ISO  4   1 100  68 101  90 101  92 100
M  END
> <chiral flag>
0

> <version>
0

> <s_m_source_file>
/data/baiqing/PycharmProjects/Reinvent-master-3.2/result/LINK_invent/BTK/process_docking_weight1_custom_sum_contain_oxygen_bond_distance_aromatic_linkinvent_7_9_3/rearranged_h_0161.sdf

> <i_m_source_file_index>
39

> <r_mmod_Potential_Energy-OPLS-2005>
452.011199951172

> <r_mmod_Stretch_Energy-OPLS-2005>
70.0288619995117

> <r_mmod_Bend_Energy-OPLS-2005>
210.224899291992

> <r_mmod_Torsional_Energy-OPLS-2005>
423.250823974609

> <r_mmod_Improper_Torsional_Energy-OPLS-2005>
18.2314929962158

> <r_mmod_Van_der_Waal_Energy-OPLS-2005>
208.316177368164

> <r_mmod_Electrostatic_Energy-OPLS-2005>
-323.792785644531

> <r_mmod_Solvation_Energy-OPLS-2005>
-189.841766357422

> <b_mmod_Minimization_Converged-OPLS-2005>
0

> <r_mmod_RMS_Derivative-OPLS-2005>
10.4606733322144

$$$$
39
                    3D
 Structure written by MMmdl.
182192  0  0  1  0            999 V2000
  -30.7587  -14.3712   20.6447 C   0  0  0  0  0  0
  -30.4121  -12.2771   19.3992 C   0  0  0  0  0  0
  -29.4838  -12.5240   18.1946 C   0  0  0  0  0  0
  -28.0069  -12.3878   18.6090 C   0  0  0  0  0  0
  -27.6670  -13.2047   19.8839 C   0  0  2  0  0  0
  -28.7063  -12.9446   20.9984 C   0  0  0  0  0  0
  -25.2603  -13.8160   20.5682 C   0  0  0  0  0  0
  -24.1841  -13.0439   20.9162 C   0  0  0  0  0  0
  -24.6394  -11.6907   20.8726 C   0  0  0  0  0  0
  -23.9063  -10.4293   21.0397 C   0  0  0  0  0  0
  -24.3615   -9.4206   21.9175 C   0  0  0  0  0  0
  -23.6290   -8.2243   22.0752 C   0  0  0  0  0  0
  -22.4272   -8.0280   21.3543 C   0  0  0  0  0  0
  -21.9906   -9.0252   20.4644 C   0  0  0  0  0  0
  -22.7234  -10.2132   20.3048 C   0  0  0  0  0  0
  -21.6855   -6.0731   22.5277 C   0  0  0  0  0  0
  -21.4015   -6.5637   23.8209 C   0  0  0  0  0  0
  -21.3658   -5.6791   24.9174 C   0  0  0  0  0  0
  -21.6045   -4.3054   24.7227 C   0  0  0  0  0  0
  -21.8818   -3.8143   23.4348 C   0  0  0  0  0  0
  -21.9192   -4.6959   22.3402 C   0  0  0  0  0  0
  -22.7864  -13.5236   21.1832 C   0  0  0  0  0  0
  -22.1660   -4.2146   21.0979 F   0  0  0  0  0  0
  -21.5629   -3.4538   25.7740 F   0  0  0  0  0  0
  -30.0492  -13.2291   20.4586 N   0  0  0  0  0  0
  -26.3054  -12.9335   20.3406 N   0  0  0  0  0  0
  -25.9323  -11.6495   20.5770 N   0  0  0  0  0  0
  -22.0512  -12.8225   22.0393 N   0  0  0  0  0  0
  -25.4336  -15.1880   20.4095 N   0  0  0  0  0  0
  -31.8030  -14.6268   20.0382 O   0  0  0  0  0  0
  -21.6638   -6.8875   21.4239 O   0  0  0  0  0  0
  -22.3551  -14.5547   20.6689 O   0  0  0  0  0  0
  -24.6108  -31.8714   23.2131 C   0  0  0  0  0  0
  -25.9024  -32.4847   23.8408 C   0  0  1  0  0  0
  -27.2443  -27.4734   20.0992 C   0  0  0  0  0  0
  -25.5901  -33.8644   24.2353 N   0  0  0  0  0  0
  -23.3962  -30.4923   21.5530 C   0  0  2  0  0  0
  -24.8464  -28.9579   20.1224 C   0  0  0  0  0  0
  -22.7382  -29.4652   22.5018 C   0  0  0  0  0  0
  -18.0265  -28.1348   22.8494 C   0  0  0  0  0  0
  -24.1489  -36.7319   23.2638 C   0  0  0  0  0  0
  -25.9190  -30.8473   21.3607 C   0  0  0  0  0  0
  -26.0007  -29.4782   20.7228 C   0  0  0  0  0  0
  -27.2019  -28.7407   20.7200 C   0  0  0  0  0  0
  -26.0815  -26.9622   19.4889 C   0  0  0  0  0  0
  -24.8774  -27.6929   19.5079 C   0  0  0  0  0  0
  -23.6050  -29.8205   20.1685 C   0  0  0  0  0  0
  -25.4107  -36.3128   24.0338 C   0  0  1  0  0  0
  -20.5852  -28.3638   23.1332 C   0  0  2  0  0  0
  -20.6758  -26.9384   22.5416 C   0  0  0  0  0  0
  -19.5742  -26.6380   21.5198 C   0  0  0  0  0  0
  -18.1917  -26.7901   22.1607 C   0  0  0  0  0  0
  -19.1515  -28.8810   23.2910 C   0  0  0  0  0  0
  -18.9447  -30.1423   23.8915 C   0  0  0  0  0  0
  -17.6453  -30.6577   24.0555 C   0  0  0  0  0  0
  -25.9034  -34.9492   23.5138 C   0  0  0  0  0  0
  -16.5344  -29.9080   23.6313 C   0  0  0  0  0  0
  -16.7253  -28.6484   23.0352 C   0  0  0  0  0  0
  -26.4477  -31.6603   25.0710 C   0  0  0  0  0  0
  -25.3762  -31.3684   26.1474 C   0  0  0  0  0  0
  -27.0304  -30.3068   24.6016 C   0  0  0  0  0  0
  -27.6055  -32.4316   25.7474 C   0  0  0  0  0  0
  -27.5578  -37.1821   24.8468 C   0  0  0  0  0  0
  -21.4114  -29.3018   22.3758 N   0  0  0  0  0  0
  -26.4300  -37.3803   23.9405 N   0  0  0  0  0  0
  -24.6598  -31.0839   22.1018 N   0  0  0  0  0  0
  -23.4176  -28.8191   23.3035 O   0  0  0  0  0  0
  -28.4000  -26.7400   20.0067 O   0  0  0  0  0  0
  -26.5588  -34.8938   22.4696 O   0  0  0  0  0  0
  -23.5311  -32.1437   23.7568 O   0  0  0  0  0  0
  -30.3089  -21.9023   23.8794 C   0  0  0  0  0  0
  -30.9053  -23.1855   23.8278 C   0  0  0  0  0  0
  -31.0834  -20.7431   24.1678 C   0  0  0  0  0  0
  -32.2948  -23.3350   24.0965 C   0  0  0  0  0  0
  -32.4820  -20.8919   24.3904 C   0  0  0  0  0  0
  -33.0771  -22.1809   24.3713 C   0  0  0  0  0  0
  -28.8007  -21.8818   23.6294 C   0  0  0  0  0  0
  -29.9673  -24.3557   23.4794 C   0  0  0  0  0  0
  -29.9680  -17.6725   20.9102 C   0  0  0  0  0  0
  -28.4181  -22.7191   22.3929 C   0  0  0  0  0  0
  -30.0195  -18.9379   21.7883 C   0  0  0  0  0  0
  -30.5903  -17.0973   23.1586 C   0  0  0  0  0  0
  -30.7237  -16.6073   21.7175 C   0  0  1  0  0  0
  -32.9817  -24.7032   24.1260 C   0  0  0  0  0  0
  -33.3831  -19.6827   24.6702 C   0  0  0  0  0  0
  -34.5814  -22.3064   24.6424 C   0  0  0  0  0  0
  -30.4462  -19.3462   24.2420 C   0  0  0  0  0  0
  -28.2436  -25.1262   21.8228 C   0  0  0  0  0  0
  -29.0022  -26.3385   21.2349 C   0  0  0  0  0  0
  -30.2307  -15.2444   21.5111 N   0  0  0  0  0  0
  -29.1310  -24.0253   22.2944 N   0  3  1  0  0  0
  -30.7437  -18.5568   23.0230 N   0  3  2  0  0  0
  -31.4573  -12.3641   19.0966 H   0  0  0  0  0  0
  -30.2976  -11.2555   19.7659 H   0  0  0  0  0  0
  -29.7122  -11.8230   17.3912 H   0  0  0  0  0  0
  -29.6622  -13.5215   17.7899 H   0  0  0  0  0  0
  -27.8033  -11.3301   18.7800 H   0  0  0  0  0  0
  -27.3578  -12.6918   17.7868 H   0  0  0  0  0  0
  -27.7264  -14.2595   19.6155 H   0  0  0  0  0  0
  -28.6641  -11.9010   21.3151 H   0  0  0  0  0  0
  -28.4642  -13.5233   21.8901 H   0  0  0  0  0  0
  -25.2763   -9.5679   22.4750 H   0  0  0  0  0  0
  -23.9998   -7.4634   22.7470 H   0  0  0  0  0  0
  -21.0840   -8.8768   19.8951 H   0  0  0  0  0  0
  -22.3691  -10.9668   19.6157 H   0  0  0  0  0  0
  -21.2010   -7.6147   23.9712 H   0  0  0  0  0  0
  -21.1482   -6.0524   25.9077 H   0  0  0  0  0  0
  -22.0600   -2.7606   23.2850 H   0  0  0  0  0  0
  -22.4130  -11.9878   22.4763 H   0  0  0  0  0  0
  -21.1128  -13.1240   22.2604 H   0  0  0  0  0  0
  -24.6689  -15.8461   20.5122 H   0  0  0  0  0  0
  -26.2926  -15.6236   20.0976 H   0  0  0  0  0  0
  -26.7100  -32.5579   23.1187 H   0  0  0  0  0  0
  -25.0122  -33.9817   25.0544 H   0  0  0  0  0  0
  -22.6826  -31.3064   21.4140 H   0  0  0  0  0  0
  -23.3752  -35.9654   23.3323 H   0  0  0  0  0  0
  -24.3592  -36.8913   22.2052 H   0  0  0  0  0  0
  -23.7239  -37.6524   23.6641 H   0  0  0  0  0  0
  -26.0165  -31.6052   20.5825 H   0  0  0  0  0  0
  -26.8124  -30.9141   21.9692 H   0  0  0  0  0  0
  -28.0944  -29.1567   21.1664 H   0  0  0  0  0  0
  -26.1115  -25.9995   18.9998 H   0  0  0  0  0  0
  -23.9926  -27.2847   19.0394 H   0  0  0  0  0  0
  -23.7084  -30.5929   19.4058 H   0  0  0  0  0  0
  -22.7310  -29.2355   19.8768 H   0  0  0  0  0  0
  -25.1287  -36.2004   25.0827 H   0  0  0  0  0  0
  -20.9920  -28.3209   24.1460 H   0  0  0  0  0  0
  -20.5661  -26.2245   23.3599 H   0  0  0  0  0  0
  -21.6633  -26.7450   22.1209 H   0  0  0  0  0  0
  -19.6921  -25.6294   21.1222 H   0  0  0  0  0  0
  -19.6687  -27.3197   20.6730 H   0  0  0  0  0  0
  -17.4181  -26.6662   21.4006 H   0  0  0  0  0  0
  -18.0315  -26.0029   22.8986 H   0  0  0  0  0  0
  -19.7940  -30.7221   24.2294 H   0  0  0  0  0  0
  -17.5023  -31.6260   24.5159 H   0  0  0  0  0  0
  -15.5348  -30.2993   23.7631 H   0  0  0  0  0  0
  -15.8644  -28.0816   22.7059 H   0  0  0  0  0  0
  -24.5933  -30.7028   25.7822 H   0  0  0  0  0  0
  -24.8954  -32.2822   26.4959 H   0  0  0  0  0  0
  -25.8141  -30.8834   27.0209 H   0  0  0  0  0  0
  -26.2809  -29.6825   24.1135 H   0  0  0  0  0  0
  -27.4181  -29.7312   25.4433 H   0  0  0  0  0  0
  -27.8601  -30.4425   23.9078 H   0  0  0  0  0  0
  -27.2663  -33.3592   26.2096 H   0  0  0  0  0  0
  -28.3843  -32.6906   25.0289 H   0  0  0  0  0  0
  -28.0735  -31.8401   26.5358 H   0  0  0  0  0  0
  -28.2615  -38.0106   24.7513 H   0  0  0  0  0  0
  -28.1059  -36.2639   24.6300 H   0  0  0  0  0  0
  -27.2296  -37.1475   25.8875 H   0  0  0  0  0  0
  -20.9259  -29.8743   21.6995 H   0  0  0  0  0  0
  -26.0203  -38.2884   24.1401 H   0  0  0  0  0  0
  -28.3113  -22.2875   24.5165 H   0  0  0  0  0  0
  -28.3741  -20.8927   23.4961 H   0  0  0  0  0  0
  -30.4979  -25.2714   23.2499 H   0  0  0  0  0  0
  -29.3356  -24.5787   24.3401 H   0  0  0  0  0  0
  -30.4201  -17.8328   19.9301 H   0  0  0  0  0  0
  -28.9294  -17.3801   20.7472 H   0  0  0  0  0  0
  -27.3352  -22.8561   22.3886 H   0  0  0  0  0  0
  -28.6503  -22.1591   21.4868 H   0  0  0  0  0  0
  -29.0026  -19.2555   22.0159 H   0  0  0  0  0  0
  -30.5230  -19.7669   21.2888 H   0  0  0  0  0  0
  -31.3483  -16.6672   23.8150 H   0  0  0  0  0  0
  -29.6067  -16.8603   23.5681 H   0  0  0  0  0  0
  -31.7843  -16.6667   21.4597 H   0  0  0  0  0  0
  -32.3630  -25.5679   23.9164 H   0  0  0  0  0  0
  -33.8021  -24.7280   23.4082 H   0  0  0  0  0  0
  -33.3936  -24.8841   25.1194 H   0  0  0  0  0  0
  -32.9521  -18.7138   24.4372 H   0  0  0  0  0  0
  -33.6637  -19.6606   25.7237 H   0  0  0  0  0  0
  -34.2986  -19.7369   24.0795 H   0  0  0  0  0  0
  -34.9114  -23.2990   24.9374 H   0  0  0  0  0  0
  -35.1441  -22.0332   23.7493 H   0  0  0  0  0  0
  -34.8985  -21.6535   25.4550 H   0  0  0  0  0  0
  -29.3784  -19.3594   24.4434 H   0  0  0  0  0  0
  -30.8528  -18.8344   25.1154 H   0  0  0  0  0  0
  -27.6087  -24.7170   21.0349 H   0  0  0  0  0  0
  -27.5685  -25.4423   22.6195 H   0  0  0  0  0  0
  -30.0302  -26.0689   20.9896 H   0  0  0  0  0  0
  -29.0652  -27.1522   21.9590 H   0  0  0  0  0  0
  -29.3895  -14.9580   21.9899 H   0  0  0  0  0  0
  -29.8033  -23.8737   21.5555 H   0  0  0  0  0  0
  -31.7209  -18.7116   22.8277 H   0  0  0  0  0  0
  1 25  1  0  0  0
  1 30  2  0  0  0
  1 90  1  0  0  0
  2  3  1  0  0  0
  2 25  1  0  0  0
  2 93  1  0  0  0
  2 94  1  0  0  0
  3  4  1  0  0  0
  3 95  1  0  0  0
  3 96  1  0  0  0
  4  5  1  0  0  0
  4 97  1  0  0  0
  4 98  1  0  0  0
  5  6  1  0  0  0
  5 26  1  0  0  0
  5 99  1  0  0  0
  6 25  1  0  0  0
  6100  1  0  0  0
  6101  1  0  0  0
  7  8  2  0  0  0
  7 26  1  0  0  0
  7 29  1  0  0  0
  8  9  1  0  0  0
  8 22  1  0  0  0
  9 10  1  0  0  0
  9 27  2  0  0  0
 10 11  2  0  0  0
 10 15  1  0  0  0
 11 12  1  0  0  0
 11102  1  0  0  0
 12 13  2  0  0  0
 12103  1  0  0  0
 13 14  1  0  0  0
 13 31  1  0  0  0
 14 15  2  0  0  0
 14104  1  0  0  0
 15105  1  0  0  0
 16 17  2  0  0  0
 16 21  1  0  0  0
 16 31  1  0  0  0
 17 18  1  0  0  0
 17106  1  0  0  0
 18 19  2  0  0  0
 18107  1  0  0  0
 19 20  1  0  0  0
 19 24  1  0  0  0
 20 21  2  0  0  0
 20108  1  0  0  0
 21 23  1  0  0  0
 22 28  1  0  0  0
 22 32  2  0  0  0
 26 27  1  0  0  0
 28109  1  0  0  0
 28110  1  0  0  0
 29111  1  0  0  0
 29112  1  0  0  0
 33 34  1  0  0  0
 33 66  1  0  0  0
 33 70  2  0  0  0
 34 36  1  0  0  0
 34 59  1  0  0  0
 34113  1  0  0  0
 35 44  2  0  0  0
 35 45  1  0  0  0
 35 68  1  0  0  0
 36 56  1  0  0  0
 36114  1  0  0  0
 37 39  1  0  0  0
 37 47  1  0  0  0
 37 66  1  0  0  0
 37115  1  0  0  0
 38 43  2  0  0  0
 38 46  1  0  0  0
 38 47  1  0  0  0
 39 64  1  0  0  0
 39 67  2  0  0  0
 40 52  1  0  0  0
 40 53  2  0  0  0
 40 58  1  0  0  0
 41116  1  0  0  0
 41117  1  0  0  0
 41118  1  0  0  0
 41 48  1  0  0  0
 42 43  1  0  0  0
 42 66  1  0  0  0
 42119  1  0  0  0
 42120  1  0  0  0
 43 44  1  0  0  0
 44121  1  0  0  0
 45 46  2  0  0  0
 45122  1  0  0  0
 46123  1  0  0  0
 47124  1  0  0  0
 47125  1  0  0  0
 48 56  1  0  0  0
 48 65  1  0  0  0
 48126  1  0  0  0
 49 50  1  0  0  0
 49 53  1  0  0  0
 49 64  1  0  0  0
 49127  1  0  0  0
 50 51  1  0  0  0
 50128  1  0  0  0
 50129  1  0  0  0
 51 52  1  0  0  0
 51130  1  0  0  0
 51131  1  0  0  0
 52132  1  0  0  0
 52133  1  0  0  0
 53 54  1  0  0  0
 54 55  2  0  0  0
 54134  1  0  0  0
 55 57  1  0  0  0
 55135  1  0  0  0
 56 69  2  0  0  0
 57 58  2  0  0  0
 57136  1  0  0  0
 58137  1  0  0  0
 59 60  1  0  0  0
 59 61  1  0  0  0
 59 62  1  0  0  0
 60138  1  0  0  0
 60139  1  0  0  0
 60140  1  0  0  0
 61141  1  0  0  0
 61142  1  0  0  0
 61143  1  0  0  0
 62144  1  0  0  0
 62145  1  0  0  0
 62146  1  0  0  0
 63 65  1  0  0  0
 63147  1  0  0  0
 63148  1  0  0  0
 63149  1  0  0  0
 64150  1  0  0  0
 65151  1  0  0  0
 68 89  1  0  0  0
 71 72  1  0  0  0
 71 73  2  0  0  0
 71 77  1  0  0  0
 72 74  2  0  0  0
 72 78  1  0  0  0
 73 75  1  0  0  0
 73 87  1  0  0  0
 74 76  1  0  0  0
 74 84  1  0  0  0
 75 76  2  0  0  0
 75 85  1  0  0  0
 76 86  1  0  0  0
 77 80  1  0  0  0
 77152  1  0  0  0
 77153  1  0  0  0
 78 91  1  0  0  0
 78154  1  0  0  0
 78155  1  0  0  0
 79 81  1  0  0  0
 79 83  1  0  0  0
 79156  1  0  0  0
 79157  1  0  0  0
 80 91  1  0  0  0
 80158  1  0  0  0
 80159  1  0  0  0
 81 92  1  0  0  0
 81160  1  0  0  0
 81161  1  0  0  0
 82 83  1  0  0  0
 82 92  1  0  0  0
 82162  1  0  0  0
 82163  1  0  0  0
 83 90  1  0  0  0
 83164  1  0  0  0
 84165  1  0  0  0
 84166  1  0  0  0
 84167  1  0  0  0
 85168  1  0  0  0
 85169  1  0  0  0
 85170  1  0  0  0
 86171  1  0  0  0
 86172  1  0  0  0
 86173  1  0  0  0
 87174  1  0  0  0
 87175  1  0  0  0
 87 92  1  0  0  0
 88 89  1  0  0  0
 88176  1  0  0  0
 88177  1  0  0  0
 88 91  1  0  0  0
 89178  1  0  0  0
 89179  1  0  0  0
 90180  1  0  0  0
 91181  1  0  0  0
 92182  1  0  0  0
M  CHG  2  91   1  92   1
M  ISO  4   1 100  68 101  89 101  90 100
M  END
> <chiral flag>
0

> <version>
0

> <s_m_source_file>
/data/baiqing/PycharmProjects/Reinvent-master-3.2/result/LINK_invent/BTK/process_docking_weight1_custom_sum_contain_oxygen_bond_distance_aromatic_linkinvent_7_9_3/rearranged_h_0161.sdf

> <i_m_source_file_index>
40

> <r_mmod_Potential_Energy-OPLS-2005>
-219.615646362305

> <r_mmod_Stretch_Energy-OPLS-2005>
42.1225357055664

> <r_mmod_Bend_Energy-OPLS-2005>
142.174911499023

> <r_mmod_Torsional_Energy-OPLS-2005>
291.922912597656

> <r_mmod_Improper_Torsional_Energy-OPLS-2005>
2.12368321418762

> <r_mmod_Van_der_Waal_Energy-OPLS-2005>
181.892379760742

> <r_mmod_Electrostatic_Energy-OPLS-2005>
-16.3012027740479

> <r_mmod_Solvation_Energy-OPLS-2005>
-869.336853027344

> <b_mmod_Minimization_Converged-OPLS-2005>
0

> <r_mmod_RMS_Derivative-OPLS-2005>
1.50428128242493

$$$$
40
                    3D
 Structure written by MMmdl.
167176  0  0  1  0            999 V2000
  -30.6388  -14.8727   20.4339 C   0  0  0  0  0  0
  -30.4132  -12.5506   19.4820 C   0  0  0  0  0  0
  -29.4972  -12.5054   18.2425 C   0  0  0  0  0  0
  -28.0368  -12.2812   18.6716 C   0  0  0  0  0  0
  -27.6163  -13.2222   19.8281 C   0  0  2  0  0  0
  -28.6649  -13.2987   20.9604 C   0  0  0  0  0  0
  -25.2440  -13.8145   20.5737 C   0  0  0  0  0  0
  -24.1737  -13.0408   20.9249 C   0  0  0  0  0  0
  -24.6336  -11.6883   20.8791 C   0  0  0  0  0  0
  -23.9029  -10.4270   21.0436 C   0  0  0  0  0  0
  -24.3599   -9.4190   21.9203 C   0  0  0  0  0  0
  -23.6285   -8.2218   22.0756 C   0  0  0  0  0  0
  -22.4273   -8.0262   21.3541 C   0  0  0  0  0  0
  -21.9902   -9.0236   20.4643 C   0  0  0  0  0  0
  -22.7213  -10.2121   20.3069 C   0  0  0  0  0  0
  -21.6848   -6.0725   22.5282 C   0  0  0  0  0  0
  -21.4002   -6.5631   23.8214 C   0  0  0  0  0  0
  -21.3661   -5.6788   24.9181 C   0  0  0  0  0  0
  -21.6047   -4.3052   24.7235 C   0  0  0  0  0  0
  -21.8823   -3.8142   23.4356 C   0  0  0  0  0  0
  -21.9190   -4.6954   22.3409 C   0  0  0  0  0  0
  -22.7771  -13.5209   21.1898 C   0  0  0  0  0  0
  -22.1658   -4.2138   21.0987 F   0  0  0  0  0  0
  -21.5644   -3.4537   25.7751 F   0  0  0  0  0  0
  -29.9429  -13.6724   20.3438 N   0  0  0  0  0  0
  -26.2817  -12.9313   20.3265 N   0  0  0  0  0  0
  -25.9258  -11.6476   20.5793 N   0  0  0  0  0  0
  -22.0409  -12.8205   22.0458 N   0  0  0  0  0  0
  -25.4166  -15.1861   20.4153 N   0  0  0  0  0  0
  -31.8522  -14.8210   20.2092 O   0  0  0  0  0  0
  -21.6632   -6.8863   21.4240 O   0  0  0  0  0  0
  -22.3474  -14.5524   20.6752 O   0  0  0  0  0  0
  -24.6387  -31.8494   23.1954 C   0  0  0  0  0  0
  -25.9198  -32.4721   23.8318 C   0  0  1  0  0  0
  -27.2078  -27.1965   20.1528 C   0  0  0  0  0  0
  -25.5970  -33.8525   24.2239 N   0  0  0  0  0  0
  -23.4372  -30.4731   21.5385 C   0  0  2  0  0  0
  -24.8828  -28.9064   20.1128 C   0  0  0  0  0  0
  -22.7528  -29.4600   22.4898 C   0  0  0  0  0  0
  -18.0293  -28.1404   22.8497 C   0  0  0  0  0  0
  -24.1477  -36.7257   23.2648 C   0  0  0  0  0  0
  -25.9881  -30.7438   21.3819 C   0  0  0  0  0  0
  -26.0583  -29.3601   20.7260 C   0  0  0  0  0  0
  -27.2274  -28.5210   20.7275 C   0  0  0  0  0  0
  -26.0115  -26.8268   19.5034 C   0  0  0  0  0  0
  -24.8689  -27.6517   19.4845 C   0  0  0  0  0  0
  -23.6579  -29.8038   20.1567 C   0  0  0  0  0  0
  -25.4111  -36.3049   24.0331 C   0  0  1  0  0  0
  -20.5902  -28.3733   23.1248 C   0  0  2  0  0  0
  -20.6787  -26.9444   22.5408 C   0  0  0  0  0  0
  -19.5751  -26.6394   21.5225 C   0  0  0  0  0  0
  -18.1932  -26.7953   22.1633 C   0  0  0  0  0  0
  -19.1550  -28.8883   23.2868 C   0  0  0  0  0  0
  -18.9466  -30.1481   23.8895 C   0  0  0  0  0  0
  -17.6465  -30.6606   24.0561 C   0  0  0  0  0  0
  -25.9066  -34.9419   23.5080 C   0  0  0  0  0  0
  -16.5357  -29.9099   23.6345 C   0  0  0  0  0  0
  -16.7278  -28.6508   23.0385 C   0  0  0  0  0  0
  -26.4532  -31.6585   25.0740 C   0  0  0  0  0  0
  -25.3738  -31.3754   26.1445 C   0  0  0  0  0  0
  -27.0413  -30.3001   24.6295 C   0  0  0  0  0  0
  -27.6057  -32.4365   25.7519 C   0  0  0  0  0  0
  -27.5572  -37.1785   24.8468 C   0  0  0  0  0  0
  -21.4229  -29.3076   22.3632 N   0  0  0  0  0  0
  -26.4274  -37.3765   23.9422 N   0  0  0  0  0  0
  -24.7074  -31.0423   22.0942 N   0  0  0  0  0  0
  -23.4190  -28.8144   23.3032 O   0  0  0  0  0  0
  -28.2732  -26.2490   20.1749 O   0  0  0  0  0  0
  -26.5625  -34.8902   22.4649 O   0  0  0  0  0  0
  -23.5531  -32.1327   23.7238 O   0  0  0  0  0  0
  -29.6749  -21.0684   18.6672 C   0  0  0  0  0  0
  -29.2034  -20.9015   19.9817 C   0  0  0  0  0  0
  -29.6356  -22.3076   17.9870 C   0  0  0  0  0  0
  -29.1043  -23.4832   18.5933 C   0  0  0  0  0  0
  -28.6440  -23.4607   19.9386 C   0  0  0  0  0  0
  -28.7058  -22.1415   20.6059 C   0  0  0  0  0  0
  -28.5791  -18.2269   19.7966 C   0  0  0  0  0  0
  -30.7068  -18.7571   20.7453 C   0  0  0  0  0  0
  -28.7060  -16.7006   20.2998 C   0  0  0  0  0  0
  -30.8086  -17.2736   21.3324 C   0  0  0  0  0  0
  -29.2800  -19.3915   20.6020 C   0  0  0  0  0  0
  -30.1787  -22.3351   16.5653 C   0  0  0  0  0  0
  -29.0112  -24.7779   17.7917 C   0  0  0  0  0  0
  -29.2920  -22.0345   22.8563 C   0  0  0  0  0  0
  -28.0031  -24.8018   20.6099 C   0  0  0  0  0  0
  -30.0499  -16.1499   20.6771 N   0  0  0  0  0  0
  -28.2472  -22.0689   21.8938 O   0  0  0  0  0  0
  -31.4500  -12.6692   19.1639 H   0  0  0  0  0  0
  -30.3790  -11.6053   20.0269 H   0  0  0  0  0  0
  -29.8152  -11.7141   17.5631 H   0  0  0  0  0  0
  -29.5809  -13.4421   17.6877 H   0  0  0  0  0  0
  -27.9407  -11.2412   18.9869 H   0  0  0  0  0  0
  -27.3667  -12.4018   17.8190 H   0  0  0  0  0  0
  -27.5506  -14.1945   19.3561 H   0  0  0  0  0  0
  -28.7464  -12.3483   21.4897 H   0  0  0  0  0  0
  -28.3708  -14.0446   21.7013 H   0  0  0  0  0  0
  -25.2736   -9.5668   22.4793 H   0  0  0  0  0  0
  -23.9993   -7.4604   22.7474 H   0  0  0  0  0  0
  -21.0836   -8.8749   19.8946 H   0  0  0  0  0  0
  -22.3668  -10.9672   19.6192 H   0  0  0  0  0  0
  -21.1983   -7.6139   23.9716 H   0  0  0  0  0  0
  -21.1481   -6.0518   25.9082 H   0  0  0  0  0  0
  -22.0603   -2.7606   23.2865 H   0  0  0  0  0  0
  -22.4012  -11.9848   22.4819 H   0  0  0  0  0  0
  -21.1037  -13.1247   22.2679 H   0  0  0  0  0  0
  -24.6569  -15.8458   20.5421 H   0  0  0  0  0  0
  -26.2747  -15.6244   20.1099 H   0  0  0  0  0  0
  -26.7270  -32.5339   23.1065 H   0  0  0  0  0  0
  -25.0158  -33.9659   25.0412 H   0  0  0  0  0  0
  -22.7380  -31.2993   21.3907 H   0  0  0  0  0  0
  -23.3757  -35.9573   23.3286 H   0  0  0  0  0  0
  -24.3566  -36.8906   22.2067 H   0  0  0  0  0  0
  -23.7202  -37.6438   23.6688 H   0  0  0  0  0  0
  -26.1369  -31.5005   20.6096 H   0  0  0  0  0  0
  -26.8623  -30.7918   22.0200 H   0  0  0  0  0  0
  -28.1271  -28.8674   21.2182 H   0  0  0  0  0  0
  -25.9432  -25.8640   19.0175 H   0  0  0  0  0  0
  -23.9728  -27.3007   18.9929 H   0  0  0  0  0  0
  -23.7879  -30.5783   19.3995 H   0  0  0  0  0  0
  -22.7727  -29.2425   19.8500 H   0  0  0  0  0  0
  -25.1303  -36.1886   25.0827 H   0  0  0  0  0  0
  -20.9989  -28.3330   24.1368 H   0  0  0  0  0  0
  -20.5710  -26.2355   23.3633 H   0  0  0  0  0  0
  -21.6650  -26.7484   22.1180 H   0  0  0  0  0  0
  -19.6905  -25.6297   21.1275 H   0  0  0  0  0  0
  -19.6676  -27.3186   20.6740 H   0  0  0  0  0  0
  -17.4212  -26.6731   21.4021 H   0  0  0  0  0  0
  -18.0302  -26.0084   22.9010 H   0  0  0  0  0  0
  -19.7938  -30.7299   24.2264 H   0  0  0  0  0  0
  -17.5014  -31.6282   24.5165 H   0  0  0  0  0  0
  -15.5361  -30.2997   23.7664 H   0  0  0  0  0  0
  -15.8677  -28.0799   22.7145 H   0  0  0  0  0  0
  -24.5907  -30.7117   25.7769 H   0  0  0  0  0  0
  -24.8943  -32.2923   26.4875 H   0  0  0  0  0  0
  -25.8038  -30.8921   27.0228 H   0  0  0  0  0  0
  -26.3031  -29.6712   24.1295 H   0  0  0  0  0  0
  -27.4044  -29.7314   25.4874 H   0  0  0  0  0  0
  -27.8925  -30.4281   23.9599 H   0  0  0  0  0  0
  -27.2640  -33.3679   26.2053 H   0  0  0  0  0  0
  -28.3872  -32.6920   25.0351 H   0  0  0  0  0  0
  -28.0710  -31.8527   26.5468 H   0  0  0  0  0  0
  -28.2584  -38.0092   24.7539 H   0  0  0  0  0  0
  -28.1075  -36.2623   24.6263 H   0  0  0  0  0  0
  -27.2291  -37.1390   25.8873 H   0  0  0  0  0  0
  -20.9430  -29.8759   21.6790 H   0  0  0  0  0  0
  -26.0136  -38.2837   24.1444 H   0  0  0  0  0  0
  -30.0797  -20.2065   18.1555 H   0  0  0  0  0  0
  -27.5200  -18.4687   19.7045 H   0  0  0  0  0  0
  -28.9560  -18.2506   18.7736 H   0  0  0  0  0  0
  -31.1991  -18.7647   19.7721 H   0  0  0  0  0  0
  -31.3086  -19.4153   21.3731 H   0  0  0  0  0  0
  -28.3059  -16.0960   19.4946 H   0  0  0  0  0  0
  -28.0480  -16.5570   21.1585 H   0  0  0  0  0  0
  -30.4704  -17.3029   22.3691 H   0  0  0  0  0  0
  -31.8671  -17.0179   21.3972 H   0  0  0  0  0  0
  -28.8232  -19.4298   21.5910 H   0  0  0  0  0  0
  -30.6557  -21.3924   16.2941 H   0  0  0  0  0  0
  -30.9282  -23.1196   16.4532 H   0  0  0  0  0  0
  -29.3757  -22.5121   15.8494 H   0  0  0  0  0  0
  -29.1780  -24.6552   16.7246 H   0  0  0  0  0  0
  -29.7413  -25.5004   18.1571 H   0  0  0  0  0  0
  -28.0158  -25.2116   17.8829 H   0  0  0  0  0  0
  -28.8749  -21.8393   23.8441 H   0  0  0  0  0  0
  -29.8167  -22.9901   22.8911 H   0  0  0  0  0  0
  -30.0239  -21.2541   22.6479 H   0  0  0  0  0  0
  -28.3194  -24.7734   21.6529 H   0  0  0  0  0  0
  -26.9293  -24.6260   20.6576 H   0  0  0  0  0  0
  1 25  1  0  0  0
  1 30  2  0  0  0
  1 86  1  0  0  0
  2  3  1  0  0  0
  2 25  1  0  0  0
  2 88  1  0  0  0
  2 89  1  0  0  0
  3  4  1  0  0  0
  3 90  1  0  0  0
  3 91  1  0  0  0
  4  5  1  0  0  0
  4 92  1  0  0  0
  4 93  1  0  0  0
  5  6  1  0  0  0
  5 26  1  0  0  0
  5 94  1  0  0  0
  6 25  1  0  0  0
  6 95  1  0  0  0
  6 96  1  0  0  0
  7  8  2  0  0  0
  7 26  1  0  0  0
  7 29  1  0  0  0
  8  9  1  0  0  0
  8 22  1  0  0  0
  9 10  1  0  0  0
  9 27  2  0  0  0
 10 11  2  0  0  0
 10 15  1  0  0  0
 11 12  1  0  0  0
 11 97  1  0  0  0
 12 13  2  0  0  0
 12 98  1  0  0  0
 13 14  1  0  0  0
 13 31  1  0  0  0
 14 15  2  0  0  0
 14 99  1  0  0  0
 15100  1  0  0  0
 16 17  2  0  0  0
 16 21  1  0  0  0
 16 31  1  0  0  0
 17 18  1  0  0  0
 17101  1  0  0  0
 18 19  2  0  0  0
 18102  1  0  0  0
 19 20  1  0  0  0
 19 24  1  0  0  0
 20 21  2  0  0  0
 20103  1  0  0  0
 21 23  1  0  0  0
 22 28  1  0  0  0
 22 32  2  0  0  0
 26 27  1  0  0  0
 28104  1  0  0  0
 28105  1  0  0  0
 29106  1  0  0  0
 29107  1  0  0  0
 33 34  1  0  0  0
 33 66  1  0  0  0
 33 70  2  0  0  0
 34 36  1  0  0  0
 34 59  1  0  0  0
 34108  1  0  0  0
 35 44  2  0  0  0
 35 45  1  0  0  0
 35 68  1  0  0  0
 36 56  1  0  0  0
 36109  1  0  0  0
 37 39  1  0  0  0
 37 47  1  0  0  0
 37 66  1  0  0  0
 37110  1  0  0  0
 38 43  2  0  0  0
 38 46  1  0  0  0
 38 47  1  0  0  0
 39 64  1  0  0  0
 39 67  2  0  0  0
 40 52  1  0  0  0
 40 53  2  0  0  0
 40 58  1  0  0  0
 41111  1  0  0  0
 41112  1  0  0  0
 41113  1  0  0  0
 41 48  1  0  0  0
 42 43  1  0  0  0
 42 66  1  0  0  0
 42114  1  0  0  0
 42115  1  0  0  0
 43 44  1  0  0  0
 44116  1  0  0  0
 45 46  2  0  0  0
 45117  1  0  0  0
 46118  1  0  0  0
 47119  1  0  0  0
 47120  1  0  0  0
 48 56  1  0  0  0
 48 65  1  0  0  0
 48121  1  0  0  0
 49 50  1  0  0  0
 49 53  1  0  0  0
 49 64  1  0  0  0
 49122  1  0  0  0
 50 51  1  0  0  0
 50123  1  0  0  0
 50124  1  0  0  0
 51 52  1  0  0  0
 51125  1  0  0  0
 51126  1  0  0  0
 52127  1  0  0  0
 52128  1  0  0  0
 53 54  1  0  0  0
 54 55  2  0  0  0
 54129  1  0  0  0
 55 57  1  0  0  0
 55130  1  0  0  0
 56 69  2  0  0  0
 57 58  2  0  0  0
 57131  1  0  0  0
 58132  1  0  0  0
 59 60  1  0  0  0
 59 61  1  0  0  0
 59 62  1  0  0  0
 60133  1  0  0  0
 60134  1  0  0  0
 60135  1  0  0  0
 61136  1  0  0  0
 61137  1  0  0  0
 61138  1  0  0  0
 62139  1  0  0  0
 62140  1  0  0  0
 62141  1  0  0  0
 63 65  1  0  0  0
 63142  1  0  0  0
 63143  1  0  0  0
 63144  1  0  0  0
 64145  1  0  0  0
 65146  1  0  0  0
 68 85  1  0  0  0
 71 72  2  0  0  0
 71 73  1  0  0  0
 71147  1  0  0  0
 72 76  1  0  0  0
 72 81  1  0  0  0
 73 74  2  0  0  0
 73 82  1  0  0  0
 74 75  1  0  0  0
 74 83  1  0  0  0
 75 76  2  0  0  0
 75 85  1  0  0  0
 76 87  1  0  0  0
 77 79  1  0  0  0
 77 81  1  0  0  0
 77148  1  0  0  0
 77149  1  0  0  0
 78 80  1  0  0  0
 78 81  1  0  0  0
 78150  1  0  0  0
 78151  1  0  0  0
 79 86  1  0  0  0
 79152  1  0  0  0
 79153  1  0  0  0
 80 86  1  0  0  0
 80154  1  0  0  0
 80155  1  0  0  0
 81156  1  0  0  0
 82157  1  0  0  0
 82158  1  0  0  0
 82159  1  0  0  0
 83160  1  0  0  0
 83161  1  0  0  0
 83162  1  0  0  0
 84 87  1  0  0  0
 84163  1  0  0  0
 84164  1  0  0  0
 84165  1  0  0  0
 85166  1  0  0  0
 85167  1  0  0  0
M  ISO  4   1 100  68 101  85 101  86 100
M  END
> <chiral flag>
0

> <version>
0

> <s_m_source_file>
/data/baiqing/PycharmProjects/Reinvent-master-3.2/result/LINK_invent/BTK/process_docking_weight1_custom_sum_contain_oxygen_bond_distance_aromatic_linkinvent_7_9_3/rearranged_h_0161.sdf

> <i_m_source_file_index>
41

> <r_mmod_Potential_Energy-OPLS-2005>
594.079345703125

> <r_mmod_Stretch_Energy-OPLS-2005>
182.552337646484

> <r_mmod_Bend_Energy-OPLS-2005>
233.184585571289

> <r_mmod_Torsional_Energy-OPLS-2005>
364.954681396484

> <r_mmod_Improper_Torsional_Energy-OPLS-2005>
2.00001358985901

> <r_mmod_Van_der_Waal_Energy-OPLS-2005>
142.277618408203

> <r_mmod_Electrostatic_Energy-OPLS-2005>
-278.87744140625

> <r_mmod_Solvation_Energy-OPLS-2005>
-199.434585571289

> <b_mmod_Minimization_Converged-OPLS-2005>
0

> <r_mmod_RMS_Derivative-OPLS-2005>
1.83700346946716

$$$$
41
                    3D
 Structure written by MMmdl.
174183  0  0  1  0            999 V2000
  -30.6176  -14.7524   20.4453 C   0  0  0  0  0  0
  -30.4353  -12.4581   19.4617 C   0  0  0  0  0  0
  -29.5050  -12.4963   18.2296 C   0  0  0  0  0  0
  -28.0338  -12.3212   18.6544 C   0  0  0  0  0  0
  -27.6422  -13.2304   19.8489 C   0  0  2  0  0  0
  -28.6938  -13.1728   20.9780 C   0  0  0  0  0  0
  -25.2517  -13.8188   20.5715 C   0  0  0  0  0  0
  -24.1813  -13.0441   20.9219 C   0  0  0  0  0  0
  -24.6401  -11.6915   20.8765 C   0  0  0  0  0  0
  -23.9079  -10.4295   21.0420 C   0  0  0  0  0  0
  -24.3623   -9.4204   21.9197 C   0  0  0  0  0  0
  -23.6297   -8.2239   22.0758 C   0  0  0  0  0  0
  -22.4277   -8.0282   21.3543 C   0  0  0  0  0  0
  -21.9921   -9.0258   20.4643 C   0  0  0  0  0  0
  -22.7252  -10.2136   20.3062 C   0  0  0  0  0  0
  -21.6851   -6.0736   22.5277 C   0  0  0  0  0  0
  -21.4008   -6.5642   23.8212 C   0  0  0  0  0  0
  -21.3659   -5.6795   24.9174 C   0  0  0  0  0  0
  -21.6050   -4.3057   24.7228 C   0  0  0  0  0  0
  -21.8818   -3.8149   23.4346 C   0  0  0  0  0  0
  -21.9191   -4.6964   22.3401 C   0  0  0  0  0  0
  -22.7828  -13.5218   21.1882 C   0  0  0  0  0  0
  -22.1662   -4.2153   21.0976 F   0  0  0  0  0  0
  -21.5635   -3.4540   25.7740 F   0  0  0  0  0  0
  -29.9899  -13.5275   20.3838 N   0  0  0  0  0  0
  -26.2951  -12.9403   20.3304 N   0  0  0  0  0  0
  -25.9332  -11.6547   20.5778 N   0  0  0  0  0  0
  -22.0479  -12.8195   22.0425 N   0  0  0  0  0  0
  -25.4215  -15.1916   20.4117 N   0  0  0  0  0  0
  -31.8134  -14.8463   20.1620 O   0  0  0  0  0  0
  -21.6634   -6.8881   21.4240 O   0  0  0  0  0  0
  -22.3514  -14.5533   20.6736 O   0  0  0  0  0  0
  -24.6303  -31.8539   23.1952 C   0  0  0  0  0  0
  -25.9124  -32.4757   23.8310 C   0  0  1  0  0  0
  -27.2226  -27.2582   20.1378 C   0  0  0  0  0  0
  -25.5917  -33.8555   24.2246 N   0  0  0  0  0  0
  -23.4290  -30.4727   21.5396 C   0  0  2  0  0  0
  -24.8787  -28.9145   20.1148 C   0  0  0  0  0  0
  -22.7502  -29.4577   22.4915 C   0  0  0  0  0  0
  -18.0279  -28.1379   22.8452 C   0  0  0  0  0  0
  -24.1495  -36.7289   23.2642 C   0  0  0  0  0  0
  -25.9724  -30.7694   21.3715 C   0  0  0  0  0  0
  -26.0500  -29.3877   20.7198 C   0  0  0  0  0  0
  -27.2296  -28.5745   20.7127 C   0  0  0  0  0  0
  -26.0262  -26.8429   19.5205 C   0  0  0  0  0  0
  -24.8716  -27.6508   19.5027 C   0  0  0  0  0  0
  -23.6508  -29.8049   20.1568 C   0  0  0  0  0  0
  -25.4119  -36.3075   24.0328 C   0  0  1  0  0  0
  -20.5877  -28.3697   23.1249 C   0  0  2  0  0  0
  -20.6783  -26.9418   22.5399 C   0  0  0  0  0  0
  -19.5772  -26.6381   21.5193 C   0  0  0  0  0  0
  -18.1938  -26.7916   22.1591 C   0  0  0  0  0  0
  -19.1529  -28.8853   23.2841 C   0  0  0  0  0  0
  -18.9468  -30.1442   23.8879 C   0  0  0  0  0  0
  -17.6480  -30.6587   24.0550 C   0  0  0  0  0  0
  -25.9047  -34.9440   23.5094 C   0  0  0  0  0  0
  -16.5363  -29.9083   23.6331 C   0  0  0  0  0  0
  -16.7269  -28.6496   23.0341 C   0  0  0  0  0  0
  -26.4506  -31.6573   25.0686 C   0  0  0  0  0  0
  -25.3731  -31.3707   26.1406 C   0  0  0  0  0  0
  -27.0375  -30.3004   24.6142 C   0  0  0  0  0  0
  -27.6056  -32.4318   25.7464 C   0  0  0  0  0  0
  -27.5583  -37.1790   24.8461 C   0  0  0  0  0  0
  -21.4205  -29.3033   22.3652 N   0  0  0  0  0  0
  -26.4295  -37.3770   23.9408 N   0  0  0  0  0  0
  -24.6965  -31.0482   22.0940 N   0  0  0  0  0  0
  -23.4191  -28.8102   23.3013 O   0  0  0  0  0  0
  -28.3247  -26.3768   20.1118 O   0  0  0  0  0  0
  -26.5626  -34.8910   22.4670 O   0  0  0  0  0  0
  -23.5447  -32.1359   23.7241 O   0  0  0  0  0  0
  -30.4188  -22.2888   22.6841 C   0  0  0  0  0  0
  -31.4055  -21.8522   21.7540 C   0  0  0  0  0  0
  -29.0909  -22.4852   22.2227 C   0  0  0  0  0  0
  -30.9831  -21.2762   20.5227 C   0  0  0  0  0  0
  -28.8327  -22.2428   20.8547 C   0  0  0  0  0  0
  -29.5930  -21.1078   20.3197 C   0  0  0  0  0  0
  -29.7601  -17.9886   22.0917 C   0  0  0  0  0  0
  -28.8326  -19.1947   21.7816 C   0  0  0  0  0  0
  -29.6660  -18.4744   19.7371 C   0  0  0  0  0  0
  -30.2217  -17.3705   20.7562 C   0  0  2  0  0  0
  -30.7840  -22.6017   24.1309 C   0  0  0  0  0  0
  -32.8870  -21.9077   22.1067 C   0  0  0  0  0  0
  -28.0033  -23.0373   23.1325 C   0  0  0  0  0  0
  -31.9839  -20.7132   19.5251 C   0  0  0  0  0  0
  -27.4191  -23.3033   18.9803 C   0  0  0  0  0  0
  -28.2150  -25.0144   20.7430 C   0  0  0  0  0  0
  -28.5299  -23.5829   20.0017 C   0  0  1  0  0  0
  -29.1736  -19.7082   20.4556 N   0  0  0  0  0  0
  -29.8395  -15.8875   20.6263 N   0  0  0  0  0  0
  -31.4741  -12.5830   19.1519 H   0  0  0  0  0  0
  -30.3846  -11.4859   19.9543 H   0  0  0  0  0  0
  -29.7826  -11.7129   17.5227 H   0  0  0  0  0  0
  -29.6260  -13.4422   17.7004 H   0  0  0  0  0  0
  -27.8977  -11.2748   18.9313 H   0  0  0  0  0  0
  -27.3694  -12.4996   17.8084 H   0  0  0  0  0  0
  -27.6333  -14.2488   19.4612 H   0  0  0  0  0  0
  -28.7349  -12.1760   21.4191 H   0  0  0  0  0  0
  -28.4336  -13.8557   21.7880 H   0  0  0  0  0  0
  -25.2768   -9.5677   22.4776 H   0  0  0  0  0  0
  -24.0006   -7.4627   22.7473 H   0  0  0  0  0  0
  -21.0860   -8.8776   19.8940 H   0  0  0  0  0  0
  -22.3720  -10.9675   19.6173 H   0  0  0  0  0  0
  -21.1992   -7.6150   23.9716 H   0  0  0  0  0  0
  -21.1489   -6.0524   25.9079 H   0  0  0  0  0  0
  -22.0599   -2.7612   23.2843 H   0  0  0  0  0  0
  -22.4098  -11.9838   22.4782 H   0  0  0  0  0  0
  -21.1099  -13.1213   22.2648 H   0  0  0  0  0  0
  -24.6534  -15.8447   20.5182 H   0  0  0  0  0  0
  -26.2647  -15.6302   20.0662 H   0  0  0  0  0  0
  -26.7188  -32.5434   23.1048 H   0  0  0  0  0  0
  -25.0048  -33.9697   25.0379 H   0  0  0  0  0  0
  -22.7258  -31.2943   21.3922 H   0  0  0  0  0  0
  -23.3754  -35.9622   23.3297 H   0  0  0  0  0  0
  -24.3568  -36.8934   22.2057 H   0  0  0  0  0  0
  -23.7240  -37.6480   23.6673 H   0  0  0  0  0  0
  -26.0957  -31.5299   20.5983 H   0  0  0  0  0  0
  -26.8527  -30.8290   22.0001 H   0  0  0  0  0  0
  -28.1355  -28.9367   21.1793 H   0  0  0  0  0  0
  -25.9788  -25.8723   19.0501 H   0  0  0  0  0  0
  -23.9750  -27.2838   19.0221 H   0  0  0  0  0  0
  -23.7772  -30.5807   19.4005 H   0  0  0  0  0  0
  -22.7688  -29.2375   19.8518 H   0  0  0  0  0  0
  -25.1298  -36.1937   25.0816 H   0  0  0  0  0  0
  -20.9942  -28.3301   24.1373 H   0  0  0  0  0  0
  -20.5695  -26.2310   23.3603 H   0  0  0  0  0  0
  -21.6659  -26.7462   22.1194 H   0  0  0  0  0  0
  -19.6949  -25.6287   21.1229 H   0  0  0  0  0  0
  -19.6721  -27.3191   20.6722 H   0  0  0  0  0  0
  -17.4213  -26.6640   21.3992 H   0  0  0  0  0  0
  -18.0335  -26.0076   22.9002 H   0  0  0  0  0  0
  -19.7964  -30.7218   24.2278 H   0  0  0  0  0  0
  -17.5053  -31.6273   24.5149 H   0  0  0  0  0  0
  -15.5358  -30.2983   23.7681 H   0  0  0  0  0  0
  -15.8660  -28.0819   22.7067 H   0  0  0  0  0  0
  -24.5915  -30.7051   25.7710 H   0  0  0  0  0  0
  -24.8897  -32.2871   26.4798 H   0  0  0  0  0  0
  -25.8040  -30.8895   27.0194 H   0  0  0  0  0  0
  -26.2964  -29.6710   24.1196 H   0  0  0  0  0  0
  -27.4128  -29.7288   25.4635 H   0  0  0  0  0  0
  -27.8797  -30.4295   23.9341 H   0  0  0  0  0  0
  -27.2676  -33.3645   26.1985 H   0  0  0  0  0  0
  -28.3887  -32.6836   25.0301 H   0  0  0  0  0  0
  -28.0690  -31.8472   26.5419 H   0  0  0  0  0  0
  -28.2584  -38.0107   24.7519 H   0  0  0  0  0  0
  -28.1108  -36.2628   24.6292 H   0  0  0  0  0  0
  -27.2290  -37.1441   25.8863 H   0  0  0  0  0  0
  -20.9400  -29.8804   21.6893 H   0  0  0  0  0  0
  -26.0188  -38.2841   24.1431 H   0  0  0  0  0  0
  -29.2668  -17.2672   22.7442 H   0  0  0  0  0  0
  -30.6365  -18.3466   22.6343 H   0  0  0  0  0  0
  -28.9123  -19.9419   22.5695 H   0  0  0  0  0  0
  -27.7915  -18.8682   21.7632 H   0  0  0  0  0  0
  -28.8200  -18.0584   19.1889 H   0  0  0  0  0  0
  -30.4139  -18.7038   18.9811 H   0  0  0  0  0  0
  -31.3132  -17.4235   20.7335 H   0  0  0  0  0  0
  -31.0656  -23.6489   24.2376 H   0  0  0  0  0  0
  -31.6085  -21.9798   24.4791 H   0  0  0  0  0  0
  -29.9594  -22.4015   24.8131 H   0  0  0  0  0  0
  -33.0933  -22.6310   22.8935 H   0  0  0  0  0  0
  -33.4929  -22.2175   21.2561 H   0  0  0  0  0  0
  -33.2329  -20.9287   22.4381 H   0  0  0  0  0  0
  -28.2735  -24.0206   23.5151 H   0  0  0  0  0  0
  -27.8419  -22.3716   23.9795 H   0  0  0  0  0  0
  -27.0504  -23.1182   22.6083 H   0  0  0  0  0  0
  -31.5051  -20.5254   18.5639 H   0  0  0  0  0  0
  -32.4188  -19.7849   19.8931 H   0  0  0  0  0  0
  -32.7844  -21.4240   19.3262 H   0  0  0  0  0  0
  -27.6407  -22.4197   18.3840 H   0  0  0  0  0  0
  -27.3048  -24.1410   18.2913 H   0  0  0  0  0  0
  -26.4607  -23.1415   19.4754 H   0  0  0  0  0  0
  -28.9277  -25.1043   21.5623 H   0  0  0  0  0  0
  -27.2395  -24.9419   21.2241 H   0  0  0  0  0  0
  -29.4473  -23.7455   19.4354 H   0  0  0  0  0  0
  -28.8601  -15.6915   20.7601 H   0  0  0  0  0  0
  1 25  1  0  0  0
  1 30  2  0  0  0
  1 89  1  0  0  0
  2  3  1  0  0  0
  2 25  1  0  0  0
  2 90  1  0  0  0
  2 91  1  0  0  0
  3  4  1  0  0  0
  3 92  1  0  0  0
  3 93  1  0  0  0
  4  5  1  0  0  0
  4 94  1  0  0  0
  4 95  1  0  0  0
  5  6  1  0  0  0
  5 26  1  0  0  0
  5 96  1  0  0  0
  6 25  1  0  0  0
  6 97  1  0  0  0
  6 98  1  0  0  0
  7  8  2  0  0  0
  7 26  1  0  0  0
  7 29  1  0  0  0
  8  9  1  0  0  0
  8 22  1  0  0  0
  9 10  1  0  0  0
  9 27  2  0  0  0
 10 11  2  0  0  0
 10 15  1  0  0  0
 11 12  1  0  0  0
 11 99  1  0  0  0
 12 13  2  0  0  0
 12100  1  0  0  0
 13 14  1  0  0  0
 13 31  1  0  0  0
 14 15  2  0  0  0
 14101  1  0  0  0
 15102  1  0  0  0
 16 17  2  0  0  0
 16 21  1  0  0  0
 16 31  1  0  0  0
 17 18  1  0  0  0
 17103  1  0  0  0
 18 19  2  0  0  0
 18104  1  0  0  0
 19 20  1  0  0  0
 19 24  1  0  0  0
 20 21  2  0  0  0
 20105  1  0  0  0
 21 23  1  0  0  0
 22 28  1  0  0  0
 22 32  2  0  0  0
 26 27  1  0  0  0
 28106  1  0  0  0
 28107  1  0  0  0
 29108  1  0  0  0
 29109  1  0  0  0
 33 34  1  0  0  0
 33 66  1  0  0  0
 33 70  2  0  0  0
 34 36  1  0  0  0
 34 59  1  0  0  0
 34110  1  0  0  0
 35 44  2  0  0  0
 35 45  1  0  0  0
 35 68  1  0  0  0
 36 56  1  0  0  0
 36111  1  0  0  0
 37 39  1  0  0  0
 37 47  1  0  0  0
 37 66  1  0  0  0
 37112  1  0  0  0
 38 43  2  0  0  0
 38 46  1  0  0  0
 38 47  1  0  0  0
 39 64  1  0  0  0
 39 67  2  0  0  0
 40 52  1  0  0  0
 40 53  2  0  0  0
 40 58  1  0  0  0
 41113  1  0  0  0
 41114  1  0  0  0
 41115  1  0  0  0
 41 48  1  0  0  0
 42 43  1  0  0  0
 42 66  1  0  0  0
 42116  1  0  0  0
 42117  1  0  0  0
 43 44  1  0  0  0
 44118  1  0  0  0
 45 46  2  0  0  0
 45119  1  0  0  0
 46120  1  0  0  0
 47121  1  0  0  0
 47122  1  0  0  0
 48 56  1  0  0  0
 48 65  1  0  0  0
 48123  1  0  0  0
 49 50  1  0  0  0
 49 53  1  0  0  0
 49 64  1  0  0  0
 49124  1  0  0  0
 50 51  1  0  0  0
 50125  1  0  0  0
 50126  1  0  0  0
 51 52  1  0  0  0
 51127  1  0  0  0
 51128  1  0  0  0
 52129  1  0  0  0
 52130  1  0  0  0
 53 54  1  0  0  0
 54 55  2  0  0  0
 54131  1  0  0  0
 55 57  1  0  0  0
 55132  1  0  0  0
 56 69  2  0  0  0
 57 58  2  0  0  0
 57133  1  0  0  0
 58134  1  0  0  0
 59 60  1  0  0  0
 59 61  1  0  0  0
 59 62  1  0  0  0
 60135  1  0  0  0
 60136  1  0  0  0
 60137  1  0  0  0
 61138  1  0  0  0
 61139  1  0  0  0
 61140  1  0  0  0
 62141  1  0  0  0
 62142  1  0  0  0
 62143  1  0  0  0
 63 65  1  0  0  0
 63144  1  0  0  0
 63145  1  0  0  0
 63146  1  0  0  0
 64147  1  0  0  0
 65148  1  0  0  0
 68 86  1  0  0  0
 71 72  2  0  0  0
 71 73  1  0  0  0
 71 81  1  0  0  0
 72 74  1  0  0  0
 72 82  1  0  0  0
 73 75  2  0  0  0
 73 83  1  0  0  0
 74 76  2  0  0  0
 74 84  1  0  0  0
 75 76  1  0  0  0
 75 87  1  0  0  0
 76 88  1  0  0  0
 77 78  1  0  0  0
 77 80  1  0  0  0
 77149  1  0  0  0
 77150  1  0  0  0
 78 88  1  0  0  0
 78151  1  0  0  0
 78152  1  0  0  0
 79 80  1  0  0  0
 79 88  1  0  0  0
 79153  1  0  0  0
 79154  1  0  0  0
 80 89  1  0  0  0
 80155  1  0  0  0
 81156  1  0  0  0
 81157  1  0  0  0
 81158  1  0  0  0
 82159  1  0  0  0
 82160  1  0  0  0
 82161  1  0  0  0
 83162  1  0  0  0
 83163  1  0  0  0
 83164  1  0  0  0
 84165  1  0  0  0
 84166  1  0  0  0
 84167  1  0  0  0
 85168  1  0  0  0
 85169  1  0  0  0
 85170  1  0  0  0
 85 87  1  0  0  0
 86 87  1  0  0  0
 86171  1  0  0  0
 86172  1  0  0  0
 87173  1  0  0  0
 89174  1  0  0  0
M  ISO  4   1 100  68 101  86 101  89 100
M  END
> <chiral flag>
0

> <version>
0

> <s_m_source_file>
/data/baiqing/PycharmProjects/Reinvent-master-3.2/result/LINK_invent/BTK/process_docking_weight1_custom_sum_contain_oxygen_bond_distance_aromatic_linkinvent_7_9_3/rearranged_h_0161.sdf

> <i_m_source_file_index>
42

> <r_mmod_Potential_Energy-OPLS-2005>
502.305297851562

> <r_mmod_Stretch_Energy-OPLS-2005>
138.878967285156

> <r_mmod_Bend_Energy-OPLS-2005>
232.128326416016

> <r_mmod_Torsional_Energy-OPLS-2005>
544.568786621094

> <r_mmod_Improper_Torsional_Energy-OPLS-2005>
35.3458023071289

> <r_mmod_Van_der_Waal_Energy-OPLS-2005>
142.004028320312

> <r_mmod_Electrostatic_Energy-OPLS-2005>
-456.923980712891

> <r_mmod_Solvation_Energy-OPLS-2005>
-219.851608276367

> <b_mmod_Minimization_Converged-OPLS-2005>
0

> <r_mmod_RMS_Derivative-OPLS-2005>
2.30011081695557

$$$$
42
                    3D
 Structure written by MMmdl.
169178  0  0  1  0            999 V2000
  -30.7246  -14.5868   20.3706 C   0  0  0  0  0  0
  -30.4207  -12.3140   19.4857 C   0  0  0  0  0  0
  -29.5034  -12.3072   18.2453 C   0  0  0  0  0  0
  -28.0069  -12.3006   18.6364 C   0  0  0  0  0  0
  -27.6347  -13.2085   19.8491 C   0  0  2  0  0  0
  -28.6968  -13.1525   20.9666 C   0  0  0  0  0  0
  -25.2515  -13.8114   20.5782 C   0  0  0  0  0  0
  -24.1772  -13.0423   20.9252 C   0  0  0  0  0  0
  -24.6303  -11.6873   20.8800 C   0  0  0  0  0  0
  -23.8984  -10.4269   21.0413 C   0  0  0  0  0  0
  -24.3563   -9.4190   21.9182 C   0  0  0  0  0  0
  -23.6268   -8.2213   22.0729 C   0  0  0  0  0  0
  -22.4255   -8.0249   21.3510 C   0  0  0  0  0  0
  -21.9878   -9.0212   20.4612 C   0  0  0  0  0  0
  -22.7171  -10.2111   20.3041 C   0  0  0  0  0  0
  -21.6849   -6.0738   22.5265 C   0  0  0  0  0  0
  -21.4002   -6.5636   23.8201 C   0  0  0  0  0  0
  -21.3667   -5.6792   24.9170 C   0  0  0  0  0  0
  -21.6041   -4.3051   24.7219 C   0  0  0  0  0  0
  -21.8818   -3.8143   23.4340 C   0  0  0  0  0  0
  -21.9193   -4.6966   22.3397 C   0  0  0  0  0  0
  -22.7800  -13.5223   21.1886 C   0  0  0  0  0  0
  -22.1670   -4.2153   21.0975 F   0  0  0  0  0  0
  -21.5639   -3.4529   25.7730 F   0  0  0  0  0  0
  -30.0013  -13.4266   20.3464 N   0  0  0  0  0  0
  -26.2910  -12.9272   20.3384 N   0  0  0  0  0  0
  -25.9234  -11.6448   20.5871 N   0  0  0  0  0  0
  -22.0438  -12.8213   22.0434 N   0  0  0  0  0  0
  -25.4268  -15.1849   20.4218 N   0  0  0  0  0  0
  -31.9551  -14.5541   20.3548 O   0  0  0  0  0  0
  -21.6621   -6.8862   21.4217 O   0  0  0  0  0  0
  -22.3511  -14.5550   20.6736 O   0  0  0  0  0  0
  -24.6187  -31.8656   23.2057 C   0  0  0  0  0  0
  -25.9046  -32.4830   23.8387 C   0  0  1  0  0  0
  -27.2329  -27.4152   20.1137 C   0  0  0  0  0  0
  -25.5879  -33.8617   24.2304 N   0  0  0  0  0  0
  -23.4104  -30.4863   21.5464 C   0  0  2  0  0  0
  -24.8604  -28.9570   20.1073 C   0  0  0  0  0  0
  -22.7484  -29.4578   22.4946 C   0  0  0  0  0  0
  -18.0284  -28.1411   22.8501 C   0  0  0  0  0  0
  -24.1472  -36.7332   23.2656 C   0  0  0  0  0  0
  -25.9445  -30.8317   21.3584 C   0  0  0  0  0  0
  -26.0241  -29.4657   20.7035 C   0  0  0  0  0  0
  -27.2182  -28.7056   20.6978 C   0  0  0  0  0  0
  -26.0568  -26.9277   19.5080 C   0  0  0  0  0  0
  -24.8731  -27.6893   19.5028 C   0  0  0  0  0  0
  -23.6231  -29.8255   20.1570 C   0  0  0  0  0  0
  -25.4096  -36.3135   24.0347 C   0  0  1  0  0  0
  -20.5895  -28.3639   23.1347 C   0  0  2  0  0  0
  -20.6764  -26.9361   22.5442 C   0  0  0  0  0  0
  -19.5726  -26.6389   21.5258 C   0  0  0  0  0  0
  -18.1908  -26.7954   22.1649 C   0  0  0  0  0  0
  -19.1541  -28.8849   23.2912 C   0  0  0  0  0  0
  -18.9460  -30.1470   23.8886 C   0  0  0  0  0  0
  -17.6444  -30.6583   24.0573 C   0  0  0  0  0  0
  -25.9038  -34.9489   23.5132 C   0  0  0  0  0  0
  -16.5342  -29.9076   23.6348 C   0  0  0  0  0  0
  -16.7268  -28.6533   23.0319 C   0  0  0  0  0  0
  -26.4448  -31.6642   25.0746 C   0  0  0  0  0  0
  -25.3706  -31.3737   26.1500 C   0  0  0  0  0  0
  -27.0300  -30.3111   24.6125 C   0  0  0  0  0  0
  -27.6020  -32.4400   25.7485 C   0  0  0  0  0  0
  -27.5572  -37.1799   24.8478 C   0  0  0  0  0  0
  -21.4200  -29.2981   22.3744 N   0  0  0  0  0  0
  -26.4277  -37.3812   23.9433 N   0  0  0  0  0  0
  -24.6763  -31.0749   22.0948 N   0  0  0  0  0  0
  -23.4280  -28.8098   23.2948 O   0  0  0  0  0  0
  -28.3513  -26.6067   20.1600 O   0  0  0  0  0  0
  -26.5613  -34.8942   22.4714 O   0  0  0  0  0  0
  -23.5368  -32.1390   23.7435 O   0  0  0  0  0  0
  -32.2168  -18.7843   19.4785 C   0  0  0  0  0  0
  -31.6668  -17.5074   19.3123 C   0  0  0  0  0  0
  -31.6401  -19.6970   20.3762 C   0  0  0  0  0  0
  -30.4611  -19.3476   21.0987 C   0  0  0  0  0  0
  -30.0151  -17.9742   21.0599 C   0  0  0  0  0  0
  -30.6428  -17.0430   20.1808 C   0  0  0  0  0  0
  -32.1097  -16.6620   18.1221 C   0  0  0  0  0  0
  -30.9770  -15.7539   17.5769 C   0  0  0  0  0  0
  -29.7217  -15.7321   18.4837 C   0  0  0  0  0  0
  -32.3010  -21.0694   20.4698 C   0  0  0  0  0  0
  -28.8232  -17.4741   21.8735 C   0  0  0  0  0  0
  -29.7138  -20.4759   21.8566 C   0  0  0  0  0  0
  -28.8808  -24.1555   20.6388 C   0  0  0  0  0  0
  -29.2196  -22.9563   21.6227 C   0  0  0  0  0  0
  -28.2409  -25.5273   21.1196 C   0  0  0  0  0  0
  -30.1046  -15.7280   19.9061 N   0  0  0  0  0  0
  -29.3220  -21.6153   20.9636 N   0  3  0  0  0  0
  -31.4659  -12.3908   19.1815 H   0  0  0  0  0  0
  -30.3449  -11.3793   20.0416 H   0  0  0  0  0  0
  -29.7191  -11.4137   17.6596 H   0  0  0  0  0  0
  -29.7380  -13.1239   17.5716 H   0  0  0  0  0  0
  -27.7547  -11.2664   18.8707 H   0  0  0  0  0  0
  -27.3941  -12.5609   17.7709 H   0  0  0  0  0  0
  -27.5977  -14.2314   19.4918 H   0  0  0  0  0  0
  -28.7005  -12.1673   21.4350 H   0  0  0  0  0  0
  -28.4736  -13.8756   21.7535 H   0  0  0  0  0  0
  -25.2708   -9.5702   22.4764 H   0  0  0  0  0  0
  -24.0006   -7.4594   22.7410 H   0  0  0  0  0  0
  -21.0840   -8.8688   19.8894 H   0  0  0  0  0  0
  -22.3598  -10.9653   19.6163 H   0  0  0  0  0  0
  -21.1971   -7.6137   23.9711 H   0  0  0  0  0  0
  -21.1504   -6.0516   25.9074 H   0  0  0  0  0  0
  -22.0593   -2.7607   23.2825 H   0  0  0  0  0  0
  -22.4094  -11.9916   22.4863 H   0  0  0  0  0  0
  -21.1003  -13.1161   22.2527 H   0  0  0  0  0  0
  -24.6672  -15.8465   20.5313 H   0  0  0  0  0  0
  -26.2922  -15.6180   20.1272 H   0  0  0  0  0  0
  -26.7122  -32.5482   23.1147 H   0  0  0  0  0  0
  -24.9944  -33.9782   25.0403 H   0  0  0  0  0  0
  -22.7033  -31.3054   21.4096 H   0  0  0  0  0  0
  -23.3721  -35.9673   23.3351 H   0  0  0  0  0  0
  -24.3574  -36.8926   22.2068 H   0  0  0  0  0  0
  -23.7220  -37.6534   23.6658 H   0  0  0  0  0  0
  -26.0680  -31.6013   20.5944 H   0  0  0  0  0  0
  -26.8307  -30.8838   21.9791 H   0  0  0  0  0  0
  -28.1145  -29.0901   21.1666 H   0  0  0  0  0  0
  -26.0529  -25.9457   19.0550 H   0  0  0  0  0  0
  -23.9755  -27.2916   19.0460 H   0  0  0  0  0  0
  -23.7299  -30.6102   19.4078 H   0  0  0  0  0  0
  -22.7466  -29.2476   19.8507 H   0  0  0  0  0  0
  -25.1256  -36.2012   25.0832 H   0  0  0  0  0  0
  -20.9994  -28.3163   24.1461 H   0  0  0  0  0  0
  -20.5766  -26.2164   23.3589 H   0  0  0  0  0  0
  -21.6599  -26.7407   22.1154 H   0  0  0  0  0  0
  -19.6857  -25.6319   21.1236 H   0  0  0  0  0  0
  -19.6708  -27.3243   20.6841 H   0  0  0  0  0  0
  -17.4190  -26.6771   21.4030 H   0  0  0  0  0  0
  -18.0208  -26.0115   22.9061 H   0  0  0  0  0  0
  -19.7924  -30.7341   24.2212 H   0  0  0  0  0  0
  -17.4976  -31.6256   24.5175 H   0  0  0  0  0  0
  -15.5330  -30.2961   23.7683 H   0  0  0  0  0  0
  -15.8688  -28.0886   22.6947 H   0  0  0  0  0  0
  -24.5893  -30.7071   25.7832 H   0  0  0  0  0  0
  -24.8868  -32.2867   26.4975 H   0  0  0  0  0  0
  -25.8046  -30.8884   27.0259 H   0  0  0  0  0  0
  -26.2822  -29.6853   24.1245 H   0  0  0  0  0  0
  -27.4181  -29.7377   25.4549 H   0  0  0  0  0  0
  -27.8600  -30.4473   23.9195 H   0  0  0  0  0  0
  -27.2641  -33.3733   26.2007 H   0  0  0  0  0  0
  -28.3791  -32.6970   25.0275 H   0  0  0  0  0  0
  -28.0730  -31.8603   26.5432 H   0  0  0  0  0  0
  -28.2576  -38.0107   24.7525 H   0  0  0  0  0  0
  -28.1060  -36.2629   24.6270 H   0  0  0  0  0  0
  -27.2310  -37.1450   25.8888 H   0  0  0  0  0  0
  -20.9382  -29.8741   21.7003 H   0  0  0  0  0  0
  -26.0176  -38.2890   24.1454 H   0  0  0  0  0  0
  -33.0475  -19.0938   18.8551 H   0  0  0  0  0  0
  -32.9619  -16.0547   18.4244 H   0  0  0  0  0  0
  -32.4730  -17.3115   17.3237 H   0  0  0  0  0  0
  -31.3764  -14.7448   17.4623 H   0  0  0  0  0  0
  -30.6864  -16.0615   16.5711 H   0  0  0  0  0  0
  -29.0356  -14.9504   18.2005 H   0  0  0  0  0  0
  -29.1506  -16.6427   18.2866 H   0  0  0  0  0  0
  -31.8304  -21.7822   19.7911 H   0  0  0  0  0  0
  -33.3483  -21.0073   20.1756 H   0  0  0  0  0  0
  -32.3006  -21.4789   21.4815 H   0  0  0  0  0  0
  -28.6091  -18.0742   22.7552 H   0  0  0  0  0  0
  -29.0059  -16.4623   22.2396 H   0  0  0  0  0  0
  -27.9268  -17.4367   21.2512 H   0  0  0  0  0  0
  -30.3716  -20.8205   22.6574 H   0  0  0  0  0  0
  -28.8135  -20.1346   22.3611 H   0  0  0  0  0  0
  -29.7578  -24.6344   21.0759 H   0  0  0  0  0  0
  -27.8630  -23.7932   20.7877 H   0  0  0  0  0  0
  -28.4966  -22.9046   22.4422 H   0  0  0  0  0  0
  -30.1756  -23.1072   22.1335 H   0  0  0  0  0  0
  -28.7022  -25.8876   22.0476 H   0  0  0  0  0  0
  -27.1908  -25.4183   21.4243 H   0  0  0  0  0  0
  -28.4475  -21.3881   20.5203 H   0  0  0  0  0  0
  -30.0204  -21.6642   20.2375 H   0  0  0  0  0  0
  1 25  1  0  0  0
  1 30  2  0  0  0
  1 86  1  0  0  0
  2  3  1  0  0  0
  2 25  1  0  0  0
  2 88  1  0  0  0
  2 89  1  0  0  0
  3  4  1  0  0  0
  3 90  1  0  0  0
  3 91  1  0  0  0
  4  5  1  0  0  0
  4 92  1  0  0  0
  4 93  1  0  0  0
  5  6  1  0  0  0
  5 26  1  0  0  0
  5 94  1  0  0  0
  6 25  1  0  0  0
  6 95  1  0  0  0
  6 96  1  0  0  0
  7  8  2  0  0  0
  7 26  1  0  0  0
  7 29  1  0  0  0
  8  9  1  0  0  0
  8 22  1  0  0  0
  9 10  1  0  0  0
  9 27  2  0  0  0
 10 11  2  0  0  0
 10 15  1  0  0  0
 11 12  1  0  0  0
 11 97  1  0  0  0
 12 13  2  0  0  0
 12 98  1  0  0  0
 13 14  1  0  0  0
 13 31  1  0  0  0
 14 15  2  0  0  0
 14 99  1  0  0  0
 15100  1  0  0  0
 16 17  2  0  0  0
 16 21  1  0  0  0
 16 31  1  0  0  0
 17 18  1  0  0  0
 17101  1  0  0  0
 18 19  2  0  0  0
 18102  1  0  0  0
 19 20  1  0  0  0
 19 24  1  0  0  0
 20 21  2  0  0  0
 20103  1  0  0  0
 21 23  1  0  0  0
 22 28  1  0  0  0
 22 32  2  0  0  0
 26 27  1  0  0  0
 28104  1  0  0  0
 28105  1  0  0  0
 29106  1  0  0  0
 29107  1  0  0  0
 33 34  1  0  0  0
 33 66  1  0  0  0
 33 70  2  0  0  0
 34 36  1  0  0  0
 34 59  1  0  0  0
 34108  1  0  0  0
 35 44  2  0  0  0
 35 45  1  0  0  0
 35 68  1  0  0  0
 36 56  1  0  0  0
 36109  1  0  0  0
 37 39  1  0  0  0
 37 47  1  0  0  0
 37 66  1  0  0  0
 37110  1  0  0  0
 38 43  2  0  0  0
 38 46  1  0  0  0
 38 47  1  0  0  0
 39 64  1  0  0  0
 39 67  2  0  0  0
 40 52  1  0  0  0
 40 53  2  0  0  0
 40 58  1  0  0  0
 41111  1  0  0  0
 41112  1  0  0  0
 41113  1  0  0  0
 41 48  1  0  0  0
 42 43  1  0  0  0
 42 66  1  0  0  0
 42114  1  0  0  0
 42115  1  0  0  0
 43 44  1  0  0  0
 44116  1  0  0  0
 45 46  2  0  0  0
 45117  1  0  0  0
 46118  1  0  0  0
 47119  1  0  0  0
 47120  1  0  0  0
 48 56  1  0  0  0
 48 65  1  0  0  0
 48121  1  0  0  0
 49 50  1  0  0  0
 49 53  1  0  0  0
 49 64  1  0  0  0
 49122  1  0  0  0
 50 51  1  0  0  0
 50123  1  0  0  0
 50124  1  0  0  0
 51 52  1  0  0  0
 51125  1  0  0  0
 51126  1  0  0  0
 52127  1  0  0  0
 52128  1  0  0  0
 53 54  1  0  0  0
 54 55  2  0  0  0
 54129  1  0  0  0
 55 57  1  0  0  0
 55130  1  0  0  0
 56 69  2  0  0  0
 57 58  2  0  0  0
 57131  1  0  0  0
 58132  1  0  0  0
 59 60  1  0  0  0
 59 61  1  0  0  0
 59 62  1  0  0  0
 60133  1  0  0  0
 60134  1  0  0  0
 60135  1  0  0  0
 61136  1  0  0  0
 61137  1  0  0  0
 61138  1  0  0  0
 62139  1  0  0  0
 62140  1  0  0  0
 62141  1  0  0  0
 63 65  1  0  0  0
 63142  1  0  0  0
 63143  1  0  0  0
 63144  1  0  0  0
 64145  1  0  0  0
 65146  1  0  0  0
 68 85  1  0  0  0
 71 72  2  0  0  0
 71 73  1  0  0  0
 71147  1  0  0  0
 72 76  1  0  0  0
 72 77  1  0  0  0
 73 74  2  0  0  0
 73 80  1  0  0  0
 74 75  1  0  0  0
 74 82  1  0  0  0
 75 76  2  0  0  0
 75 81  1  0  0  0
 76 86  1  0  0  0
 77 78  1  0  0  0
 77148  1  0  0  0
 77149  1  0  0  0
 78 79  1  0  0  0
 78150  1  0  0  0
 78151  1  0  0  0
 79 86  1  0  0  0
 79152  1  0  0  0
 79153  1  0  0  0
 80154  1  0  0  0
 80155  1  0  0  0
 80156  1  0  0  0
 81157  1  0  0  0
 81158  1  0  0  0
 81159  1  0  0  0
 82 87  1  0  0  0
 82160  1  0  0  0
 82161  1  0  0  0
 83 84  1  0  0  0
 83 85  1  0  0  0
 83162  1  0  0  0
 83163  1  0  0  0
 84 87  1  0  0  0
 84164  1  0  0  0
 84165  1  0  0  0
 85166  1  0  0  0
 85167  1  0  0  0
 87168  1  0  0  0
 87169  1  0  0  0
M  CHG  1  87   1
M  ISO  4   1 100  68 101  85 101  86 100
M  END
> <chiral flag>
0

> <version>
0

> <s_m_source_file>
/data/baiqing/PycharmProjects/Reinvent-master-3.2/result/LINK_invent/BTK/process_docking_weight1_custom_sum_contain_oxygen_bond_distance_aromatic_linkinvent_7_9_3/rearranged_h_0161.sdf

> <i_m_source_file_index>
43

> <r_mmod_Potential_Energy-OPLS-2005>
395.097991943359

> <r_mmod_Stretch_Energy-OPLS-2005>
63.4938545227051

> <r_mmod_Bend_Energy-OPLS-2005>
358.925567626953

> <r_mmod_Torsional_Energy-OPLS-2005>
389.386688232422

> <r_mmod_Improper_Torsional_Energy-OPLS-2005>
22.7012519836426

> <r_mmod_Van_der_Waal_Energy-OPLS-2005>
191.097717285156

> <r_mmod_Electrostatic_Energy-OPLS-2005>
-237.675399780273

> <r_mmod_Solvation_Energy-OPLS-2005>
-450.904815673828

> <b_mmod_Minimization_Converged-OPLS-2005>
0

> <r_mmod_RMS_Derivative-OPLS-2005>
4.79672956466675

$$$$
43
                    3D
 Structure written by MMmdl.
163171  0  0  1  0            999 V2000
  -30.6870  -14.6070   20.4803 C   0  0  0  0  0  0
  -30.4166  -12.3707   19.4527 C   0  0  0  0  0  0
  -29.4925  -12.4803   18.2209 C   0  0  0  0  0  0
  -28.0170  -12.3348   18.6376 C   0  0  0  0  0  0
  -27.6463  -13.2222   19.8564 C   0  0  2  0  0  0
  -28.6958  -13.1133   20.9861 C   0  0  0  0  0  0
  -25.2531  -13.8199   20.5706 C   0  0  0  0  0  0
  -24.1806  -13.0456   20.9212 C   0  0  0  0  0  0
  -24.6382  -11.6931   20.8763 C   0  0  0  0  0  0
  -23.9056  -10.4298   21.0411 C   0  0  0  0  0  0
  -24.3608   -9.4217   21.9194 C   0  0  0  0  0  0
  -23.6290   -8.2249   22.0754 C   0  0  0  0  0  0
  -22.4274   -8.0278   21.3537 C   0  0  0  0  0  0
  -21.9911   -9.0253   20.4639 C   0  0  0  0  0  0
  -22.7234  -10.2140   20.3056 C   0  0  0  0  0  0
  -21.6855   -6.0737   22.5277 C   0  0  0  0  0  0
  -21.4008   -6.5637   23.8212 C   0  0  0  0  0  0
  -21.3663   -5.6792   24.9174 C   0  0  0  0  0  0
  -21.6046   -4.3054   24.7226 C   0  0  0  0  0  0
  -21.8822   -3.8144   23.4345 C   0  0  0  0  0  0
  -21.9192   -4.6961   22.3398 C   0  0  0  0  0  0
  -22.7829  -13.5239   21.1892 C   0  0  0  0  0  0
  -22.1660   -4.2147   21.0977 F   0  0  0  0  0  0
  -21.5636   -3.4538   25.7739 F   0  0  0  0  0  0
  -30.0090  -13.4213   20.4052 N   0  0  0  0  0  0
  -26.2955  -12.9389   20.3323 N   0  0  0  0  0  0
  -25.9309  -11.6538   20.5789 N   0  0  0  0  0  0
  -22.0478  -12.8196   22.0425 N   0  0  0  0  0  0
  -25.4257  -15.1919   20.4111 N   0  0  0  0  0  0
  -31.8677  -14.6939   20.1411 O   0  0  0  0  0  0
  -21.6642   -6.8880   21.4237 O   0  0  0  0  0  0
  -22.3513  -14.5560   20.6771 O   0  0  0  0  0  0
  -24.6282  -31.8615   23.2098 C   0  0  0  0  0  0
  -25.9134  -32.4784   23.8391 C   0  0  1  0  0  0
  -27.2070  -27.3141   20.0802 C   0  0  0  0  0  0
  -25.5965  -33.8588   24.2304 N   0  0  0  0  0  0
  -23.4196  -30.4943   21.5523 C   0  0  2  0  0  0
  -24.8612  -28.9662   20.1073 C   0  0  0  0  0  0
  -22.7480  -29.4648   22.4937 C   0  0  0  0  0  0
  -18.0292  -28.1395   22.8504 C   0  0  0  0  0  0
  -24.1480  -36.7271   23.2643 C   0  0  0  0  0  0
  -25.9677  -30.7842   21.3897 C   0  0  0  0  0  0
  -26.0342  -29.4153   20.7260 C   0  0  0  0  0  0
  -27.2067  -28.5957   20.7198 C   0  0  0  0  0  0
  -26.0149  -26.9632   19.3927 C   0  0  0  0  0  0
  -24.8533  -27.7418   19.4363 C   0  0  0  0  0  0
  -23.6326  -29.8465   20.1627 C   0  0  0  0  0  0
  -25.4102  -36.3071   24.0328 C   0  0  1  0  0  0
  -20.5900  -28.3691   23.1279 C   0  0  2  0  0  0
  -20.6785  -26.9414   22.5409 C   0  0  0  0  0  0
  -19.5744  -26.6388   21.5232 C   0  0  0  0  0  0
  -18.1923  -26.7947   22.1635 C   0  0  0  0  0  0
  -19.1556  -28.8862   23.2891 C   0  0  0  0  0  0
  -18.9482  -30.1479   23.8886 C   0  0  0  0  0  0
  -17.6476  -30.6593   24.0590 C   0  0  0  0  0  0
  -25.9050  -34.9446   23.5098 C   0  0  0  0  0  0
  -16.5362  -29.9093   23.6353 C   0  0  0  0  0  0
  -16.7283  -28.6518   23.0356 C   0  0  0  0  0  0
  -26.4507  -31.6599   25.0760 C   0  0  0  0  0  0
  -25.3738  -31.3744   26.1487 C   0  0  0  0  0  0
  -27.0372  -30.3025   24.6230 C   0  0  0  0  0  0
  -27.6042  -32.4350   25.7548 C   0  0  0  0  0  0
  -27.5552  -37.1799   24.8472 C   0  0  0  0  0  0
  -21.4202  -29.3054   22.3680 N   0  0  0  0  0  0
  -26.4266  -37.3773   23.9417 N   0  0  0  0  0  0
  -24.6899  -31.0624   22.1061 N   0  0  0  0  0  0
  -23.4218  -28.8157   23.2979 O   0  0  0  0  0  0
  -28.2901  -26.4068   20.1512 O   0  0  0  0  0  0
  -26.5598  -34.8914   22.4652 O   0  0  0  0  0  0
  -23.5439  -32.1428   23.7409 O   0  0  0  0  0  0
  -27.9411  -22.7116   20.7130 C   0  0  0  0  0  0
  -30.4824  -21.9741   19.9402 C   0  0  0  0  0  0
  -28.7384  -23.7192   20.1061 C   0  0  0  0  0  0
  -28.3598  -21.3608   20.9019 C   0  0  0  0  0  0
  -30.0499  -23.3214   19.7394 C   0  0  0  0  0  0
  -29.6615  -20.9424   20.4788 C   0  0  0  0  0  0
  -30.9902  -24.3085   19.0722 C   0  0  0  0  0  0
  -26.5127  -19.4147   23.7390 C   0  0  0  0  0  0
  -27.3430  -20.4444   21.5679 C   0  0  0  0  0  0
  -28.0315  -25.0412   19.6290 C   0  0  0  0  0  0
  -27.5705  -20.3073   23.0799 C   0  0  0  0  0  0
  -30.5226  -17.1378   20.5101 C   0  0  0  0  0  0
  -29.5600  -18.3812   20.7020 C   0  0  0  0  0  0
  -29.9749  -15.7489   20.7075 N   0  0  0  0  0  0
  -30.2531  -19.6605   20.5460 O   0  0  0  0  0  0
  -31.4604  -12.4618   19.1479 H   0  0  0  0  0  0
  -30.3253  -11.3868   19.9158 H   0  0  0  0  0  0
  -29.7479  -11.7125   17.4888 H   0  0  0  0  0  0
  -29.6416  -13.4400   17.7244 H   0  0  0  0  0  0
  -27.8468  -11.2849   18.8786 H   0  0  0  0  0  0
  -27.3615  -12.5589   17.7948 H   0  0  0  0  0  0
  -27.6565  -14.2507   19.4957 H   0  0  0  0  0  0
  -28.7009  -12.1087   21.4115 H   0  0  0  0  0  0
  -28.4561  -13.7906   21.8065 H   0  0  0  0  0  0
  -25.2750   -9.5701   22.4771 H   0  0  0  0  0  0
  -24.0005   -7.4636   22.7465 H   0  0  0  0  0  0
  -21.0855   -8.8765   19.8928 H   0  0  0  0  0  0
  -22.3695  -10.9677   19.6159 H   0  0  0  0  0  0
  -21.1990   -7.6147   23.9714 H   0  0  0  0  0  0
  -21.1485   -6.0521   25.9080 H   0  0  0  0  0  0
  -22.0597   -2.7606   23.2846 H   0  0  0  0  0  0
  -22.4090  -11.9814   22.4733 H   0  0  0  0  0  0
  -21.1106  -13.1213   22.2685 H   0  0  0  0  0  0
  -24.6640  -15.8507   20.5319 H   0  0  0  0  0  0
  -26.2739  -15.6271   20.0727 H   0  0  0  0  0  0
  -26.7201  -32.5438   23.1129 H   0  0  0  0  0  0
  -25.0184  -33.9756   25.0497 H   0  0  0  0  0  0
  -22.7140  -31.3170   21.4171 H   0  0  0  0  0  0
  -23.3742  -35.9609   23.3319 H   0  0  0  0  0  0
  -24.3583  -36.8876   22.2063 H   0  0  0  0  0  0
  -23.7235  -37.6474   23.6654 H   0  0  0  0  0  0
  -26.1068  -31.5486   20.6240 H   0  0  0  0  0  0
  -26.8485  -30.8261   22.0177 H   0  0  0  0  0  0
  -28.0971  -28.9283   21.2333 H   0  0  0  0  0  0
  -25.9128  -26.0713   18.7945 H   0  0  0  0  0  0
  -23.9622  -27.4054   18.9238 H   0  0  0  0  0  0
  -23.7574  -30.6324   19.4172 H   0  0  0  0  0  0
  -22.7516  -29.2835   19.8499 H   0  0  0  0  0  0
  -25.1279  -36.1915   25.0819 H   0  0  0  0  0  0
  -21.0014  -28.3264   24.1389 H   0  0  0  0  0  0
  -20.5730  -26.2293   23.3609 H   0  0  0  0  0  0
  -21.6640  -26.7459   22.1163 H   0  0  0  0  0  0
  -19.6906  -25.6309   21.1235 H   0  0  0  0  0  0
  -19.6676  -27.3233   20.6793 H   0  0  0  0  0  0
  -17.4204  -26.6748   21.4022 H   0  0  0  0  0  0
  -18.0285  -26.0078   22.9010 H   0  0  0  0  0  0
  -19.7963  -30.7328   24.2199 H   0  0  0  0  0  0
  -17.5030  -31.6272   24.5208 H   0  0  0  0  0  0
  -15.5365  -30.2995   23.7690 H   0  0  0  0  0  0
  -15.8685  -28.0858   22.7034 H   0  0  0  0  0  0
  -24.5961  -30.7016   25.7851 H   0  0  0  0  0  0
  -24.8878  -32.2921   26.4820 H   0  0  0  0  0  0
  -25.8087  -30.9029   27.0314 H   0  0  0  0  0  0
  -26.2973  -29.6772   24.1219 H   0  0  0  0  0  0
  -27.4054  -29.7268   25.4733 H   0  0  0  0  0  0
  -27.8841  -30.4321   23.9482 H   0  0  0  0  0  0
  -27.2629  -33.3683   26.2033 H   0  0  0  0  0  0
  -28.3909  -32.6858   25.0419 H   0  0  0  0  0  0
  -28.0630  -31.8530   26.5552 H   0  0  0  0  0  0
  -28.2564  -38.0096   24.7502 H   0  0  0  0  0  0
  -28.1038  -36.2624   24.6299 H   0  0  0  0  0  0
  -27.2269  -37.1441   25.8874 H   0  0  0  0  0  0
  -20.9364  -29.8813   21.6936 H   0  0  0  0  0  0
  -26.0126  -38.2829   24.1457 H   0  0  0  0  0  0
  -26.9295  -22.9680   20.9961 H   0  0  0  0  0  0
  -31.4840  -21.7061   19.6312 H   0  0  0  0  0  0
  -32.0189  -23.9458   19.0729 H   0  0  0  0  0  0
  -30.9796  -25.2643   19.5956 H   0  0  0  0  0  0
  -30.6936  -24.4792   18.0376 H   0  0  0  0  0  0
  -26.6178  -19.4144   24.8234 H   0  0  0  0  0  0
  -26.6009  -18.3852   23.3927 H   0  0  0  0  0  0
  -25.5042  -19.7581   23.5060 H   0  0  0  0  0  0
  -27.2872  -19.4805   21.0746 H   0  0  0  0  0  0
  -26.3487  -20.8646   21.4149 H   0  0  0  0  0  0
  -27.0027  -24.7825   19.8604 H   0  0  0  0  0  0
  -28.0986  -25.0770   18.5404 H   0  0  0  0  0  0
  -28.5670  -19.9127   23.2841 H   0  0  0  0  0  0
  -27.5391  -21.2968   23.5390 H   0  0  0  0  0  0
  -31.3758  -17.2572   21.1788 H   0  0  0  0  0  0
  -30.9333  -17.1950   19.4996 H   0  0  0  0  0  0
  -29.1262  -18.3243   21.6992 H   0  0  0  0  0  0
  -28.7548  -18.3134   19.9688 H   0  0  0  0  0  0
  -28.9931  -15.6515   20.9169 H   0  0  0  0  0  0
  1 25  1  0  0  0
  1 30  2  0  0  0
  1 84  1  0  0  0
  2  3  1  0  0  0
  2 25  1  0  0  0
  2 86  1  0  0  0
  2 87  1  0  0  0
  3  4  1  0  0  0
  3 88  1  0  0  0
  3 89  1  0  0  0
  4  5  1  0  0  0
  4 90  1  0  0  0
  4 91  1  0  0  0
  5  6  1  0  0  0
  5 26  1  0  0  0
  5 92  1  0  0  0
  6 25  1  0  0  0
  6 93  1  0  0  0
  6 94  1  0  0  0
  7  8  2  0  0  0
  7 26  1  0  0  0
  7 29  1  0  0  0
  8  9  1  0  0  0
  8 22  1  0  0  0
  9 10  1  0  0  0
  9 27  2  0  0  0
 10 11  2  0  0  0
 10 15  1  0  0  0
 11 12  1  0  0  0
 11 95  1  0  0  0
 12 13  2  0  0  0
 12 96  1  0  0  0
 13 14  1  0  0  0
 13 31  1  0  0  0
 14 15  2  0  0  0
 14 97  1  0  0  0
 15 98  1  0  0  0
 16 17  2  0  0  0
 16 21  1  0  0  0
 16 31  1  0  0  0
 17 18  1  0  0  0
 17 99  1  0  0  0
 18 19  2  0  0  0
 18100  1  0  0  0
 19 20  1  0  0  0
 19 24  1  0  0  0
 20 21  2  0  0  0
 20101  1  0  0  0
 21 23  1  0  0  0
 22 28  1  0  0  0
 22 32  2  0  0  0
 26 27  1  0  0  0
 28102  1  0  0  0
 28103  1  0  0  0
 29104  1  0  0  0
 29105  1  0  0  0
 33 34  1  0  0  0
 33 66  1  0  0  0
 33 70  2  0  0  0
 34 36  1  0  0  0
 34 59  1  0  0  0
 34106  1  0  0  0
 35 44  2  0  0  0
 35 45  1  0  0  0
 35 68  1  0  0  0
 36 56  1  0  0  0
 36107  1  0  0  0
 37 39  1  0  0  0
 37 47  1  0  0  0
 37 66  1  0  0  0
 37108  1  0  0  0
 38 43  2  0  0  0
 38 46  1  0  0  0
 38 47  1  0  0  0
 39 64  1  0  0  0
 39 67  2  0  0  0
 40 52  1  0  0  0
 40 53  2  0  0  0
 40 58  1  0  0  0
 41109  1  0  0  0
 41110  1  0  0  0
 41111  1  0  0  0
 41 48  1  0  0  0
 42 43  1  0  0  0
 42 66  1  0  0  0
 42112  1  0  0  0
 42113  1  0  0  0
 43 44  1  0  0  0
 44114  1  0  0  0
 45 46  2  0  0  0
 45115  1  0  0  0
 46116  1  0  0  0
 47117  1  0  0  0
 47118  1  0  0  0
 48 56  1  0  0  0
 48 65  1  0  0  0
 48119  1  0  0  0
 49 50  1  0  0  0
 49 53  1  0  0  0
 49 64  1  0  0  0
 49120  1  0  0  0
 50 51  1  0  0  0
 50121  1  0  0  0
 50122  1  0  0  0
 51 52  1  0  0  0
 51123  1  0  0  0
 51124  1  0  0  0
 52125  1  0  0  0
 52126  1  0  0  0
 53 54  1  0  0  0
 54 55  2  0  0  0
 54127  1  0  0  0
 55 57  1  0  0  0
 55128  1  0  0  0
 56 69  2  0  0  0
 57 58  2  0  0  0
 57129  1  0  0  0
 58130  1  0  0  0
 59 60  1  0  0  0
 59 61  1  0  0  0
 59 62  1  0  0  0
 60131  1  0  0  0
 60132  1  0  0  0
 60133  1  0  0  0
 61134  1  0  0  0
 61135  1  0  0  0
 61136  1  0  0  0
 62137  1  0  0  0
 62138  1  0  0  0
 62139  1  0  0  0
 63 65  1  0  0  0
 63140  1  0  0  0
 63141  1  0  0  0
 63142  1  0  0  0
 64143  1  0  0  0
 65144  1  0  0  0
 68 80  1  0  0  0
 71 73  2  0  0  0
 71 74  1  0  0  0
 71145  1  0  0  0
 72 75  2  0  0  0
 72 76  1  0  0  0
 72146  1  0  0  0
 73 75  1  0  0  0
 73 80  1  0  0  0
 74 76  2  0  0  0
 74 79  1  0  0  0
 75 77  1  0  0  0
 76 85  1  0  0  0
 77147  1  0  0  0
 77148  1  0  0  0
 77149  1  0  0  0
 78 81  1  0  0  0
 78150  1  0  0  0
 78151  1  0  0  0
 78152  1  0  0  0
 79 81  1  0  0  0
 79153  1  0  0  0
 79154  1  0  0  0
 80155  1  0  0  0
 80156  1  0  0  0
 81157  1  0  0  0
 81158  1  0  0  0
 82 83  1  0  0  0
 82 84  1  0  0  0
 82159  1  0  0  0
 82160  1  0  0  0
 83 85  1  0  0  0
 83161  1  0  0  0
 83162  1  0  0  0
 84163  1  0  0  0
M  ISO  4   1 100  68 101  80 101  84 100
M  END
> <chiral flag>
0

> <version>
0

> <s_m_source_file>
/data/baiqing/PycharmProjects/Reinvent-master-3.2/result/LINK_invent/BTK/process_docking_weight1_custom_sum_contain_oxygen_bond_distance_aromatic_linkinvent_7_9_3/rearranged_h_0161.sdf

> <i_m_source_file_index>
44

> <r_mmod_Potential_Energy-OPLS-2005>
90.2510452270508

> <r_mmod_Stretch_Energy-OPLS-2005>
78.269889831543

> <r_mmod_Bend_Energy-OPLS-2005>
174.777755737305

> <r_mmod_Torsional_Energy-OPLS-2005>
218.852508544922

> <r_mmod_Improper_Torsional_Energy-OPLS-2005>
7.37307977676392

> <r_mmod_Van_der_Waal_Energy-OPLS-2005>
162.677124023438

> <r_mmod_Electrostatic_Energy-OPLS-2005>
-396.476013183594

> <r_mmod_Solvation_Energy-OPLS-2005>
-210.068145751953

> <b_mmod_Minimization_Converged-OPLS-2005>
0

> <r_mmod_RMS_Derivative-OPLS-2005>
2.22267651557922

$$$$
44
                    3D
 Structure written by MMmdl.
176186  0  0  1  0            999 V2000
  -30.7118  -14.4549   20.6040 C   0  0  0  0  0  0
  -30.4277  -12.3121   19.4109 C   0  0  0  0  0  0
  -29.4910  -12.5052   18.1996 C   0  0  0  0  0  0
  -28.0103  -12.3744   18.6088 C   0  0  0  0  0  0
  -27.6635  -13.2017   19.8737 C   0  0  2  0  0  0
  -28.7037  -12.9574   20.9862 C   0  0  0  0  0  0
  -25.2625  -13.8160   20.5698 C   0  0  0  0  0  0
  -24.1848  -13.0453   20.9156 C   0  0  0  0  0  0
  -24.6375  -11.6915   20.8711 C   0  0  0  0  0  0
  -23.9039  -10.4306   21.0394 C   0  0  0  0  0  0
  -24.3601   -9.4223   21.9160 C   0  0  0  0  0  0
  -23.6284   -8.2259   22.0745 C   0  0  0  0  0  0
  -22.4255   -8.0295   21.3549 C   0  0  0  0  0  0
  -21.9886   -9.0263   20.4645 C   0  0  0  0  0  0
  -22.7208  -10.2144   20.3045 C   0  0  0  0  0  0
  -21.6859   -6.0742   22.5280 C   0  0  0  0  0  0
  -21.4023   -6.5646   23.8216 C   0  0  0  0  0  0
  -21.3653   -5.6790   24.9169 C   0  0  0  0  0  0
  -21.6039   -4.3057   24.7222 C   0  0  0  0  0  0
  -21.8823   -3.8150   23.4338 C   0  0  0  0  0  0
  -21.9193   -4.6973   22.3402 C   0  0  0  0  0  0
  -22.7874  -13.5268   21.1823 C   0  0  0  0  0  0
  -22.1661   -4.2157   21.0978 F   0  0  0  0  0  0
  -21.5614   -3.4536   25.7731 F   0  0  0  0  0  0
  -30.0345  -13.2829   20.4449 N   0  0  0  0  0  0
  -26.3038  -12.9304   20.3361 N   0  0  0  0  0  0
  -25.9306  -11.6476   20.5757 N   0  0  0  0  0  0
  -22.0525  -12.8277   22.0387 N   0  0  0  0  0  0
  -25.4425  -15.1876   20.4204 N   0  0  0  0  0  0
  -31.8280  -14.6457   20.1075 O   0  0  0  0  0  0
  -21.6631   -6.8892   21.4247 O   0  0  0  0  0  0
  -22.3558  -14.5579   20.6678 O   0  0  0  0  0  0
  -24.6118  -31.8683   23.2110 C   0  0  0  0  0  0
  -25.9021  -32.4829   23.8408 C   0  0  1  0  0  0
  -27.2528  -27.4550   20.0981 C   0  0  0  0  0  0
  -25.5899  -33.8626   24.2349 N   0  0  0  0  0  0
  -23.4020  -30.4858   21.5515 C   0  0  2  0  0  0
  -24.8568  -28.9520   20.1199 C   0  0  0  0  0  0
  -22.7402  -29.4647   22.5023 C   0  0  0  0  0  0
  -18.0268  -28.1351   22.8470 C   0  0  0  0  0  0
  -24.1492  -36.7308   23.2635 C   0  0  0  0  0  0
  -25.9271  -30.8383   21.3654 C   0  0  0  0  0  0
  -26.0112  -29.4706   20.7210 C   0  0  0  0  0  0
  -27.2128  -28.7262   20.7189 C   0  0  0  0  0  0
  -26.0875  -26.9555   19.4848 C   0  0  0  0  0  0
  -24.8881  -27.6915   19.4991 C   0  0  0  0  0  0
  -23.6124  -29.8083   20.1696 C   0  0  0  0  0  0
  -25.4113  -36.3122   24.0344 C   0  0  1  0  0  0
  -20.5853  -28.3650   23.1311 C   0  0  2  0  0  0
  -20.6766  -26.9393   22.5404 C   0  0  0  0  0  0
  -19.5759  -26.6369   21.5189 C   0  0  0  0  0  0
  -18.1932  -26.7899   22.1594 C   0  0  0  0  0  0
  -19.1509  -28.8820   23.2879 C   0  0  0  0  0  0
  -18.9431  -30.1429   23.8885 C   0  0  0  0  0  0
  -17.6433  -30.6568   24.0531 C   0  0  0  0  0  0
  -25.9028  -34.9479   23.5137 C   0  0  0  0  0  0
  -16.5329  -29.9050   23.6324 C   0  0  0  0  0  0
  -16.7256  -28.6462   23.0357 C   0  0  0  0  0  0
  -26.4462  -31.6585   25.0720 C   0  0  0  0  0  0
  -25.3737  -31.3679   26.1470 C   0  0  0  0  0  0
  -27.0295  -30.3035   24.6075 C   0  0  0  0  0  0
  -27.6064  -32.4295   25.7462 C   0  0  0  0  0  0
  -27.5591  -37.1802   24.8459 C   0  0  0  0  0  0
  -21.4131  -29.3011   22.3737 N   0  0  0  0  0  0
  -26.4294  -37.3802   23.9408 N   0  0  0  0  0  0
  -24.6640  -31.0789   22.1012 N   0  0  0  0  0  0
  -23.4170  -28.8194   23.3078 O   0  0  0  0  0  0
  -28.3828  -26.6688   20.0243 O   0  0  0  0  0  0
  -26.5578  -34.8917   22.4695 O   0  0  0  0  0  0
  -23.5315  -32.1430   23.7513 O   0  0  0  0  0  0
  -29.9611  -21.3865   21.4933 C   0  0  0  0  0  0
  -29.0380  -22.0638   20.6747 C   0  0  0  0  0  0
  -29.0958  -19.1967   20.8040 C   0  0  0  0  0  0
  -30.0171  -19.9815   21.5555 C   0  0  0  0  0  0
  -28.2101  -21.2985   19.8103 C   0  0  0  0  0  0
  -28.2638  -19.8697   19.8525 C   0  0  0  0  0  0
  -30.2359  -24.3084   20.2355 C   0  0  0  0  0  0
  -28.6356  -24.0865   22.1933 C   0  0  0  0  0  0
  -30.4454  -25.7370   20.8018 C   0  0  0  0  0  0
  -28.3641  -25.6079   22.2602 C   0  0  0  0  0  0
  -28.9126  -17.1238   22.4552 C   0  0  0  0  0  0
  -29.7706  -15.8484   22.4350 C   0  0  0  0  0  0
  -29.9693  -16.7755   20.2848 C   0  0  0  0  0  0
  -28.9658  -23.6035   20.7675 C   0  0  2  0  0  0
  -28.9577  -17.6652   21.0161 C   0  0  2  0  0  0
  -29.1441  -26.4531   21.2155 C   0  0  2  0  0  0
  -31.1022  -19.3976   22.4492 C   0  0  0  0  0  0
  -27.2593  -22.0389   18.8659 C   0  0  0  0  0  0
  -27.4252  -19.0540   18.8644 C   0  0  0  0  0  0
  -29.9685  -15.5068   21.0222 N   0  0  0  0  0  0
  -31.4664  -12.4296   19.0961 H   0  0  0  0  0  0
  -30.3517  -11.2969   19.8032 H   0  0  0  0  0  0
  -29.7289  -11.7780   17.4224 H   0  0  0  0  0  0
  -29.6600  -13.4871   17.7564 H   0  0  0  0  0  0
  -27.8022  -11.3184   18.7876 H   0  0  0  0  0  0
  -27.3660  -12.6725   17.7813 H   0  0  0  0  0  0
  -27.7146  -14.2530   19.5912 H   0  0  0  0  0  0
  -28.6835  -11.9132   21.3028 H   0  0  0  0  0  0
  -28.4440  -13.5277   21.8719 H   0  0  0  0  0  0
  -25.2761   -9.5709   22.4702 H   0  0  0  0  0  0
  -24.0004   -7.4664   22.7465 H   0  0  0  0  0  0
  -21.0814   -8.8791   19.8954 H   0  0  0  0  0  0
  -22.3676  -10.9679   19.6149 H   0  0  0  0  0  0
  -21.2031   -7.6151   23.9730 H   0  0  0  0  0  0
  -21.1459   -6.0507   25.9075 H   0  0  0  0  0  0
  -22.0603   -2.7615   23.2831 H   0  0  0  0  0  0
  -22.4152  -11.9923   22.4745 H   0  0  0  0  0  0
  -21.1167  -13.1340   22.2658 H   0  0  0  0  0  0
  -24.6957  -15.8574   20.5725 H   0  0  0  0  0  0
  -26.3190  -15.6200   20.1601 H   0  0  0  0  0  0
  -26.7099  -32.5559   23.1180 H   0  0  0  0  0  0
  -25.0102  -33.9797   25.0531 H   0  0  0  0  0  0
  -22.6897  -31.3006   21.4064 H   0  0  0  0  0  0
  -23.3769  -35.9629   23.3287 H   0  0  0  0  0  0
  -24.3591  -36.8927   22.2053 H   0  0  0  0  0  0
  -23.7217  -37.6500   23.6642 H   0  0  0  0  0  0
  -26.0348  -31.6034   20.5963 H   0  0  0  0  0  0
  -26.8155  -30.8976   21.9821 H   0  0  0  0  0  0
  -28.1007  -29.1401   21.1744 H   0  0  0  0  0  0
  -26.1134  -25.9896   19.0009 H   0  0  0  0  0  0
  -24.0045  -27.2870   19.0254 H   0  0  0  0  0  0
  -23.7037  -30.5728   19.3970 H   0  0  0  0  0  0
  -22.7439  -29.2091   19.8897 H   0  0  0  0  0  0
  -25.1288  -36.1995   25.0844 H   0  0  0  0  0  0
  -20.9922  -28.3205   24.1444 H   0  0  0  0  0  0
  -20.5663  -26.2253   23.3579 H   0  0  0  0  0  0
  -21.6635  -26.7451   22.1195 H   0  0  0  0  0  0
  -19.6922  -25.6282   21.1221 H   0  0  0  0  0  0
  -19.6697  -27.3172   20.6717 H   0  0  0  0  0  0
  -17.4208  -26.6648   21.3996 H   0  0  0  0  0  0
  -18.0332  -26.0029   22.8980 H   0  0  0  0  0  0
  -19.7912  -30.7234   24.2259 H   0  0  0  0  0  0
  -17.4993  -31.6256   24.5109 H   0  0  0  0  0  0
  -15.5329  -30.2940   23.7651 H   0  0  0  0  0  0
  -15.8656  -28.0763   22.7105 H   0  0  0  0  0  0
  -24.5897  -30.7052   25.7776 H   0  0  0  0  0  0
  -24.8937  -32.2832   26.4954 H   0  0  0  0  0  0
  -25.8085  -30.8796   27.0203 H   0  0  0  0  0  0
  -26.2830  -29.6791   24.1149 H   0  0  0  0  0  0
  -27.4095  -29.7271   25.4519 H   0  0  0  0  0  0
  -27.8651  -30.4355   23.9199 H   0  0  0  0  0  0
  -27.2722  -33.3603   26.2054 H   0  0  0  0  0  0
  -28.3851  -32.6837   25.0260 H   0  0  0  0  0  0
  -28.0753  -31.8402   26.5351 H   0  0  0  0  0  0
  -28.2597  -38.0111   24.7553 H   0  0  0  0  0  0
  -28.1103  -36.2649   24.6239 H   0  0  0  0  0  0
  -27.2307  -37.1393   25.8858 H   0  0  0  0  0  0
  -20.9323  -29.8693   21.6905 H   0  0  0  0  0  0
  -26.0198  -38.2886   24.1424 H   0  0  0  0  0  0
  -30.6361  -21.9613   22.1125 H   0  0  0  0  0  0
  -31.1239  -23.7239   20.4760 H   0  0  0  0  0  0
  -30.1908  -24.3351   19.1457 H   0  0  0  0  0  0
  -27.7662  -23.5540   22.5789 H   0  0  0  0  0  0
  -29.4611  -23.8387   22.8614 H   0  0  0  0  0  0
  -30.9968  -26.3415   20.0814 H   0  0  0  0  0  0
  -31.0859  -25.6707   21.6823 H   0  0  0  0  0  0
  -28.6303  -25.9492   23.2621 H   0  0  0  0  0  0
  -27.2929  -25.7934   22.1746 H   0  0  0  0  0  0
  -29.2600  -17.8154   23.2173 H   0  0  0  0  0  0
  -27.8820  -16.8891   22.7285 H   0  0  0  0  0  0
  -29.3115  -15.0589   23.0272 H   0  0  0  0  0  0
  -30.7461  -16.0429   22.8858 H   0  0  0  0  0  0
  -30.9687  -17.2098   20.3057 H   0  0  0  0  0  0
  -29.6985  -16.6308   19.2375 H   0  0  0  0  0  0
  -28.1485  -23.9749   20.1556 H   0  0  0  0  0  0
  -27.9807  -17.3663   20.6405 H   0  0  0  0  0  0
  -29.4124  -27.4152   21.6531 H   0  0  0  0  0  0
  -32.0091  -19.9993   22.3796 H   0  0  0  0  0  0
  -31.3810  -18.3817   22.1783 H   0  0  0  0  0  0
  -30.7867  -19.4108   23.4928 H   0  0  0  0  0  0
  -26.5703  -22.6577   19.4404 H   0  0  0  0  0  0
  -26.6284  -21.4164   18.2391 H   0  0  0  0  0  0
  -27.8280  -22.6899   18.2006 H   0  0  0  0  0  0
  -27.8656  -18.0838   18.6433 H   0  0  0  0  0  0
  -27.3654  -19.5200   17.8830 H   0  0  0  0  0  0
  -26.4158  -18.9006   19.2483 H   0  0  0  0  0  0
  1 25  1  0  0  0
  1 30  2  0  0  0
  1 90  1  0  0  0
  2  3  1  0  0  0
  2 25  1  0  0  0
  2 91  1  0  0  0
  2 92  1  0  0  0
  3  4  1  0  0  0
  3 93  1  0  0  0
  3 94  1  0  0  0
  4  5  1  0  0  0
  4 95  1  0  0  0
  4 96  1  0  0  0
  5  6  1  0  0  0
  5 26  1  0  0  0
  5 97  1  0  0  0
  6 25  1  0  0  0
  6 98  1  0  0  0
  6 99  1  0  0  0
  7  8  2  0  0  0
  7 26  1  0  0  0
  7 29  1  0  0  0
  8  9  1  0  0  0
  8 22  1  0  0  0
  9 10  1  0  0  0
  9 27  2  0  0  0
 10 11  2  0  0  0
 10 15  1  0  0  0
 11 12  1  0  0  0
 11100  1  0  0  0
 12 13  2  0  0  0
 12101  1  0  0  0
 13 14  1  0  0  0
 13 31  1  0  0  0
 14 15  2  0  0  0
 14102  1  0  0  0
 15103  1  0  0  0
 16 17  2  0  0  0
 16 21  1  0  0  0
 16 31  1  0  0  0
 17 18  1  0  0  0
 17104  1  0  0  0
 18 19  2  0  0  0
 18105  1  0  0  0
 19 20  1  0  0  0
 19 24  1  0  0  0
 20 21  2  0  0  0
 20106  1  0  0  0
 21 23  1  0  0  0
 22 28  1  0  0  0
 22 32  2  0  0  0
 26 27  1  0  0  0
 28107  1  0  0  0
 28108  1  0  0  0
 29109  1  0  0  0
 29110  1  0  0  0
 33 34  1  0  0  0
 33 66  1  0  0  0
 33 70  2  0  0  0
 34 36  1  0  0  0
 34 59  1  0  0  0
 34111  1  0  0  0
 35 44  2  0  0  0
 35 45  1  0  0  0
 35 68  1  0  0  0
 36 56  1  0  0  0
 36112  1  0  0  0
 37 39  1  0  0  0
 37 47  1  0  0  0
 37 66  1  0  0  0
 37113  1  0  0  0
 38 43  2  0  0  0
 38 46  1  0  0  0
 38 47  1  0  0  0
 39 64  1  0  0  0
 39 67  2  0  0  0
 40 52  1  0  0  0
 40 53  2  0  0  0
 40 58  1  0  0  0
 41114  1  0  0  0
 41115  1  0  0  0
 41116  1  0  0  0
 41 48  1  0  0  0
 42 43  1  0  0  0
 42 66  1  0  0  0
 42117  1  0  0  0
 42118  1  0  0  0
 43 44  1  0  0  0
 44119  1  0  0  0
 45 46  2  0  0  0
 45120  1  0  0  0
 46121  1  0  0  0
 47122  1  0  0  0
 47123  1  0  0  0
 48 56  1  0  0  0
 48 65  1  0  0  0
 48124  1  0  0  0
 49 50  1  0  0  0
 49 53  1  0  0  0
 49 64  1  0  0  0
 49125  1  0  0  0
 50 51  1  0  0  0
 50126  1  0  0  0
 50127  1  0  0  0
 51 52  1  0  0  0
 51128  1  0  0  0
 51129  1  0  0  0
 52130  1  0  0  0
 52131  1  0  0  0
 53 54  1  0  0  0
 54 55  2  0  0  0
 54132  1  0  0  0
 55 57  1  0  0  0
 55133  1  0  0  0
 56 69  2  0  0  0
 57 58  2  0  0  0
 57134  1  0  0  0
 58135  1  0  0  0
 59 60  1  0  0  0
 59 61  1  0  0  0
 59 62  1  0  0  0
 60136  1  0  0  0
 60137  1  0  0  0
 60138  1  0  0  0
 61139  1  0  0  0
 61140  1  0  0  0
 61141  1  0  0  0
 62142  1  0  0  0
 62143  1  0  0  0
 62144  1  0  0  0
 63 65  1  0  0  0
 63145  1  0  0  0
 63146  1  0  0  0
 63147  1  0  0  0
 64148  1  0  0  0
 65149  1  0  0  0
 68 86  1  0  0  0
 71 72  2  0  0  0
 71 74  1  0  0  0
 71150  1  0  0  0
 72 75  1  0  0  0
 72 84  1  0  0  0
 73 74  2  0  0  0
 73 76  1  0  0  0
 73 85  1  0  0  0
 74 87  1  0  0  0
 75 76  2  0  0  0
 75 88  1  0  0  0
 76 89  1  0  0  0
 77 79  1  0  0  0
 77 84  1  0  0  0
 77151  1  0  0  0
 77152  1  0  0  0
 78 80  1  0  0  0
 78 84  1  0  0  0
 78153  1  0  0  0
 78154  1  0  0  0
 79 86  1  0  0  0
 79155  1  0  0  0
 79156  1  0  0  0
 80 86  1  0  0  0
 80157  1  0  0  0
 80158  1  0  0  0
 81 82  1  0  0  0
 81 85  1  0  0  0
 81159  1  0  0  0
 81160  1  0  0  0
 82 90  1  0  0  0
 82161  1  0  0  0
 82162  1  0  0  0
 83 85  1  0  0  0
 83 90  1  0  0  0
 83163  1  0  0  0
 83164  1  0  0  0
 84165  1  0  0  0
 85166  1  0  0  0
 86167  1  0  0  0
 87168  1  0  0  0
 87169  1  0  0  0
 87170  1  0  0  0
 88171  1  0  0  0
 88172  1  0  0  0
 88173  1  0  0  0
 89174  1  0  0  0
 89175  1  0  0  0
 89176  1  0  0  0
M  ISO  4   1 100  68 101  86 101  90 100
M  END
> <chiral flag>
0

> <version>
0

> <s_m_source_file>
/data/baiqing/PycharmProjects/Reinvent-master-3.2/result/LINK_invent/BTK/process_docking_weight1_custom_sum_contain_oxygen_bond_distance_aromatic_linkinvent_7_9_3/rearranged_h_0161.sdf

> <i_m_source_file_index>
45

> <r_mmod_Potential_Energy-OPLS-2005>
236.696365356445

> <r_mmod_Stretch_Energy-OPLS-2005>
45.6829223632812

> <r_mmod_Bend_Energy-OPLS-2005>
140.054870605469

> <r_mmod_Torsional_Energy-OPLS-2005>
400.974090576172

> <r_mmod_Improper_Torsional_Energy-OPLS-2005>
11.8042697906494

> <r_mmod_Van_der_Waal_Energy-OPLS-2005>
167.288543701172

> <r_mmod_Electrostatic_Energy-OPLS-2005>
-352.376129150391

> <r_mmod_Solvation_Energy-OPLS-2005>
-186.554412841797

> <b_mmod_Minimization_Converged-OPLS-2005>
0

> <r_mmod_RMS_Derivative-OPLS-2005>
2.28375601768494

$$$$
45
                    3D
 Structure written by MMmdl.
187198  0  0  1  0            999 V2000
  -30.7563  -14.3982   20.5967 C   0  0  0  0  0  0
  -30.4036  -12.2713   19.4164 C   0  0  0  0  0  0
  -29.4857  -12.5063   18.2016 C   0  0  0  0  0  0
  -28.0073  -12.3766   18.6132 C   0  0  0  0  0  0
  -27.6617  -13.2093   19.8773 C   0  0  2  0  0  0
  -28.7017  -12.9825   20.9984 C   0  0  0  0  0  0
  -25.2585  -13.8174   20.5688 C   0  0  0  0  0  0
  -24.1835  -13.0445   20.9171 C   0  0  0  0  0  0
  -24.6393  -11.6911   20.8734 C   0  0  0  0  0  0
  -23.9061  -10.4297   21.0406 C   0  0  0  0  0  0
  -24.3615   -9.4213   21.9185 C   0  0  0  0  0  0
  -23.6291   -8.2248   22.0755 C   0  0  0  0  0  0
  -22.4275   -8.0282   21.3545 C   0  0  0  0  0  0
  -21.9910   -9.0256   20.4644 C   0  0  0  0  0  0
  -22.7238  -10.2134   20.3054 C   0  0  0  0  0  0
  -21.6855   -6.0734   22.5280 C   0  0  0  0  0  0
  -21.4016   -6.5640   23.8210 C   0  0  0  0  0  0
  -21.3660   -5.6791   24.9174 C   0  0  0  0  0  0
  -21.6045   -4.3054   24.7225 C   0  0  0  0  0  0
  -21.8820   -3.8146   23.4348 C   0  0  0  0  0  0
  -21.9194   -4.6963   22.3402 C   0  0  0  0  0  0
  -22.7860  -13.5239   21.1840 C   0  0  0  0  0  0
  -22.1663   -4.2146   21.0981 F   0  0  0  0  0  0
  -21.5625   -3.4538   25.7741 F   0  0  0  0  0  0
  -30.0385  -13.2559   20.4458 N   0  0  0  0  0  0
  -26.3024  -12.9350   20.3385 N   0  0  0  0  0  0
  -25.9320  -11.6503   20.5773 N   0  0  0  0  0  0
  -22.0496  -12.8225   22.0388 N   0  0  0  0  0  0
  -25.4315  -15.1892   20.4104 N   0  0  0  0  0  0
  -31.8702  -14.5427   20.0943 O   0  0  0  0  0  0
  -21.6642   -6.8879   21.4242 O   0  0  0  0  0  0
  -22.3547  -14.5553   20.6700 O   0  0  0  0  0  0
  -24.6108  -31.8705   23.2124 C   0  0  0  0  0  0
  -25.9018  -32.4841   23.8409 C   0  0  1  0  0  0
  -27.2347  -27.4732   20.0919 C   0  0  0  0  0  0
  -25.5892  -33.8639   24.2345 N   0  0  0  0  0  0
  -23.3976  -30.4926   21.5521 C   0  0  2  0  0  0
  -24.8455  -28.9635   20.1132 C   0  0  0  0  0  0
  -22.7390  -29.4667   22.5012 C   0  0  0  0  0  0
  -18.0266  -28.1375   22.8493 C   0  0  0  0  0  0
  -24.1485  -36.7318   23.2634 C   0  0  0  0  0  0
  -25.9206  -30.8485   21.3585 C   0  0  0  0  0  0
  -26.0016  -29.4844   20.7091 C   0  0  0  0  0  0
  -27.2018  -28.7444   20.6987 C   0  0  0  0  0  0
  -26.0728  -26.9623   19.4810 C   0  0  0  0  0  0
  -24.8736  -27.6997   19.4958 C   0  0  0  0  0  0
  -23.6035  -29.8225   20.1665 C   0  0  0  0  0  0
  -25.4107  -36.3126   24.0338 C   0  0  1  0  0  0
  -20.5852  -28.3660   23.1330 C   0  0  2  0  0  0
  -20.6764  -26.9407   22.5415 C   0  0  0  0  0  0
  -19.5746  -26.6391   21.5210 C   0  0  0  0  0  0
  -18.1919  -26.7926   22.1616 C   0  0  0  0  0  0
  -19.1512  -28.8835   23.2907 C   0  0  0  0  0  0
  -18.9443  -30.1440   23.8922 C   0  0  0  0  0  0
  -17.6447  -30.6588   24.0566 C   0  0  0  0  0  0
  -25.9031  -34.9488   23.5137 C   0  0  0  0  0  0
  -16.5340  -29.9090   23.6327 C   0  0  0  0  0  0
  -16.7254  -28.6502   23.0357 C   0  0  0  0  0  0
  -26.4465  -31.6608   25.0719 C   0  0  0  0  0  0
  -25.3743  -31.3673   26.1470 C   0  0  0  0  0  0
  -27.0298  -30.3069   24.6048 C   0  0  0  0  0  0
  -27.6046  -32.4323   25.7481 C   0  0  0  0  0  0
  -27.5582  -37.1811   24.8463 C   0  0  0  0  0  0
  -21.4125  -29.3028   22.3743 N   0  0  0  0  0  0
  -26.4296  -37.3808   23.9409 N   0  0  0  0  0  0
  -24.6612  -31.0833   22.1007 N   0  0  0  0  0  0
  -23.4173  -28.8219   23.3054 O   0  0  0  0  0  0
  -28.3885  -26.7353   20.1003 O   0  0  0  0  0  0
  -26.5586  -34.8928   22.4695 O   0  0  0  0  0  0
  -23.5312  -32.1442   23.7539 O   0  0  0  0  0  0
  -30.0614  -22.6492   19.2206 C   0  0  0  0  0  0
  -28.9578  -21.8118   18.8828 C   0  0  0  0  0  0
  -31.8175  -20.9137   19.7074 C   0  0  0  0  0  0
  -32.8264  -20.7082   20.6919 C   0  0  0  0  0  0
  -29.8422  -23.9167   19.8297 C   0  0  0  0  0  0
  -27.6477  -22.2181   19.2738 C   0  0  0  0  0  0
  -27.4585  -23.3829   20.0676 C   0  0  0  0  0  0
  -28.5447  -24.2776   20.2834 C   0  0  0  0  0  0
  -31.1717  -19.7197   19.5643 C   0  0  0  0  0  0
  -32.8122  -19.4019   21.0931 C   0  0  0  0  0  0
  -31.4934  -22.1759   18.9533 C   0  0  0  0  0  0
  -29.9924  -19.3623   18.7113 C   0  0  0  0  0  0
  -34.7287  -22.4877   20.2895 C   0  0  0  0  0  0
  -35.2546  -21.5372   21.3367 C   0  0  0  0  0  0
  -33.7661  -21.7736   21.2109 C   0  0  0  0  0  0
  -29.1571  -20.5033   18.0667 C   0  0  2  0  0  0
  -31.0207  -24.8837   20.0026 C   0  0  0  0  0  0
  -26.4239  -21.4083   18.8310 C   0  0  0  0  0  0
  -26.0751  -23.6411   20.6752 C   0  0  0  0  0  0
  -33.6616  -18.6708   22.0890 C   0  0  0  0  0  0
  -29.4875  -20.7629   16.5830 C   0  0  0  0  0  0
  -28.3531  -25.6234   21.0001 C   0  0  0  0  0  0
  -31.5734  -17.3288   20.3238 C   0  0  0  0  0  0
  -30.5804  -16.8071   21.3967 C   0  0  0  0  0  0
  -31.8264  -18.7680   20.3455 N   0  0  0  0  0  0
  -30.1312  -15.4088   21.2238 N   0  0  0  0  0  0
  -31.4515  -12.3357   19.1174 H   0  0  0  0  0  0
  -30.2703  -11.2599   19.8043 H   0  0  0  0  0  0
  -29.7152  -11.7923   17.4093 H   0  0  0  0  0  0
  -29.6685  -13.4980   17.7845 H   0  0  0  0  0  0
  -27.8073  -11.3209   18.7990 H   0  0  0  0  0  0
  -27.3599  -12.6676   17.7853 H   0  0  0  0  0  0
  -27.7107  -14.2594   19.5879 H   0  0  0  0  0  0
  -28.6603  -11.9503   21.3498 H   0  0  0  0  0  0
  -28.4716  -13.5950   21.8710 H   0  0  0  0  0  0
  -25.2759   -9.5689   22.4759 H   0  0  0  0  0  0
  -23.9999   -7.4642   22.7480 H   0  0  0  0  0  0
  -21.0841   -8.8777   19.8950 H   0  0  0  0  0  0
  -22.3701  -10.9674   19.6162 H   0  0  0  0  0  0
  -21.2010   -7.6146   23.9716 H   0  0  0  0  0  0
  -21.1479   -6.0521   25.9077 H   0  0  0  0  0  0
  -22.0597   -2.7607   23.2852 H   0  0  0  0  0  0
  -22.4106  -11.9871   22.4754 H   0  0  0  0  0  0
  -21.1115  -13.1254   22.2597 H   0  0  0  0  0  0
  -24.6668  -15.8472   20.5156 H   0  0  0  0  0  0
  -26.2899  -15.6269   20.0997 H   0  0  0  0  0  0
  -26.7095  -32.5575   23.1186 H   0  0  0  0  0  0
  -25.0076  -33.9816   25.0513 H   0  0  0  0  0  0
  -22.6852  -31.3081   21.4135 H   0  0  0  0  0  0
  -23.3758  -35.9642   23.3305 H   0  0  0  0  0  0
  -24.3575  -36.8926   22.2046 H   0  0  0  0  0  0
  -23.7223  -37.6518   23.6643 H   0  0  0  0  0  0
  -26.0205  -31.6145   20.5880 H   0  0  0  0  0  0
  -26.8132  -30.9086   21.9697 H   0  0  0  0  0  0
  -28.0965  -29.1381   21.1607 H   0  0  0  0  0  0
  -26.1044  -26.0022   18.9882 H   0  0  0  0  0  0
  -23.9869  -27.2978   19.0248 H   0  0  0  0  0  0
  -23.7023  -30.5955   19.4036 H   0  0  0  0  0  0
  -22.7306  -29.2336   19.8777 H   0  0  0  0  0  0
  -25.1283  -36.1996   25.0831 H   0  0  0  0  0  0
  -20.9932  -28.3222   24.1454 H   0  0  0  0  0  0
  -20.5687  -26.2266   23.3593 H   0  0  0  0  0  0
  -21.6636  -26.7474   22.1197 H   0  0  0  0  0  0
  -19.6918  -25.6304   21.1230 H   0  0  0  0  0  0
  -19.6690  -27.3210   20.6748 H   0  0  0  0  0  0
  -17.4195  -26.6679   21.4011 H   0  0  0  0  0  0
  -18.0319  -26.0058   22.9002 H   0  0  0  0  0  0
  -19.7920  -30.7242   24.2312 H   0  0  0  0  0  0
  -17.5006  -31.6274   24.5157 H   0  0  0  0  0  0
  -15.5342  -30.3004   23.7640 H   0  0  0  0  0  0
  -15.8649  -28.0826   22.7079 H   0  0  0  0  0  0
  -24.5927  -30.7018   25.7786 H   0  0  0  0  0  0
  -24.8923  -32.2809   26.4958 H   0  0  0  0  0  0
  -25.8109  -30.8808   27.0201 H   0  0  0  0  0  0
  -26.2825  -29.6830   24.1131 H   0  0  0  0  0  0
  -27.4130  -29.7295   25.4471 H   0  0  0  0  0  0
  -27.8626  -30.4422   23.9143 H   0  0  0  0  0  0
  -27.2683  -33.3625   26.2075 H   0  0  0  0  0  0
  -28.3848  -32.6883   25.0299 H   0  0  0  0  0  0
  -28.0724  -31.8436   26.5384 H   0  0  0  0  0  0
  -28.2598  -38.0113   24.7541 H   0  0  0  0  0  0
  -28.1083  -36.2647   24.6268 H   0  0  0  0  0  0
  -27.2295  -37.1434   25.8863 H   0  0  0  0  0  0
  -20.9288  -29.8728   21.6945 H   0  0  0  0  0  0
  -26.0191  -38.2887   24.1425 H   0  0  0  0  0  0
  -32.2484  -22.9043   19.2250 H   0  0  0  0  0  0
  -31.6627  -22.0214   17.8930 H   0  0  0  0  0  0
  -29.3076  -18.8053   19.3526 H   0  0  0  0  0  0
  -30.2918  -18.6518   17.9399 H   0  0  0  0  0  0
  -34.7793  -22.1620   19.2523 H   0  0  0  0  0  0
  -34.8800  -23.5531   20.4520 H   0  0  0  0  0  0
  -35.7576  -21.9654   22.2016 H   0  0  0  0  0  0
  -35.6556  -20.5876   20.9878 H   0  0  0  0  0  0
  -33.2821  -22.3660   21.9851 H   0  0  0  0  0  0
  -28.2030  -19.9958   17.9764 H   0  0  0  0  0  0
  -31.6928  -24.5356   20.7877 H   0  0  0  0  0  0
  -30.7472  -25.9085   20.2389 H   0  0  0  0  0  0
  -31.5831  -24.9644   19.0722 H   0  0  0  0  0  0
  -26.4738  -21.1873   17.7648 H   0  0  0  0  0  0
  -25.4765  -21.9321   18.9401 H   0  0  0  0  0  0
  -26.3574  -20.4717   19.3850 H   0  0  0  0  0  0
  -25.6077  -22.7037   20.9749 H   0  0  0  0  0  0
  -25.4135  -24.1300   19.9622 H   0  0  0  0  0  0
  -26.0819  -24.2157   21.5957 H   0  0  0  0  0  0
  -34.1530  -19.3623   22.7729 H   0  0  0  0  0  0
  -34.4370  -18.0892   21.5902 H   0  0  0  0  0  0
  -33.0678  -17.9915   22.6996 H   0  0  0  0  0  0
  -30.4693  -21.1943   16.4145 H   0  0  0  0  0  0
  -28.7551  -21.4375   16.1397 H   0  0  0  0  0  0
  -29.4530  -19.8355   16.0109 H   0  0  0  0  0  0
  -29.1592  -25.7485   21.7232 H   0  0  0  0  0  0
  -27.4775  -25.6634   21.6409 H   0  0  0  0  0  0
  -31.2269  -17.0560   19.3275 H   0  0  0  0  0  0
  -32.5417  -16.8423   20.4379 H   0  0  0  0  0  0
  -29.6887  -17.4342   21.3907 H   0  0  0  0  0  0
  -31.0156  -16.9114   22.3899 H   0  0  0  0  0  0
  -29.2158  -15.1898   21.5887 H   0  0  0  0  0  0
  1 25  1  0  0  0
  1 30  2  0  0  0
  1 96  1  0  0  0
  2  3  1  0  0  0
  2 25  1  0  0  0
  2 97  1  0  0  0
  2 98  1  0  0  0
  3  4  1  0  0  0
  3 99  1  0  0  0
  3100  1  0  0  0
  4  5  1  0  0  0
  4101  1  0  0  0
  4102  1  0  0  0
  5  6  1  0  0  0
  5 26  1  0  0  0
  5103  1  0  0  0
  6 25  1  0  0  0
  6104  1  0  0  0
  6105  1  0  0  0
  7  8  2  0  0  0
  7 26  1  0  0  0
  7 29  1  0  0  0
  8  9  1  0  0  0
  8 22  1  0  0  0
  9 10  1  0  0  0
  9 27  2  0  0  0
 10 11  2  0  0  0
 10 15  1  0  0  0
 11 12  1  0  0  0
 11106  1  0  0  0
 12 13  2  0  0  0
 12107  1  0  0  0
 13 14  1  0  0  0
 13 31  1  0  0  0
 14 15  2  0  0  0
 14108  1  0  0  0
 15109  1  0  0  0
 16 17  2  0  0  0
 16 21  1  0  0  0
 16 31  1  0  0  0
 17 18  1  0  0  0
 17110  1  0  0  0
 18 19  2  0  0  0
 18111  1  0  0  0
 19 20  1  0  0  0
 19 24  1  0  0  0
 20 21  2  0  0  0
 20112  1  0  0  0
 21 23  1  0  0  0
 22 28  1  0  0  0
 22 32  2  0  0  0
 26 27  1  0  0  0
 28113  1  0  0  0
 28114  1  0  0  0
 29115  1  0  0  0
 29116  1  0  0  0
 33 34  1  0  0  0
 33 66  1  0  0  0
 33 70  2  0  0  0
 34 36  1  0  0  0
 34 59  1  0  0  0
 34117  1  0  0  0
 35 44  2  0  0  0
 35 45  1  0  0  0
 35 68  1  0  0  0
 36 56  1  0  0  0
 36118  1  0  0  0
 37 39  1  0  0  0
 37 47  1  0  0  0
 37 66  1  0  0  0
 37119  1  0  0  0
 38 43  2  0  0  0
 38 46  1  0  0  0
 38 47  1  0  0  0
 39 64  1  0  0  0
 39 67  2  0  0  0
 40 52  1  0  0  0
 40 53  2  0  0  0
 40 58  1  0  0  0
 41120  1  0  0  0
 41121  1  0  0  0
 41122  1  0  0  0
 41 48  1  0  0  0
 42 43  1  0  0  0
 42 66  1  0  0  0
 42123  1  0  0  0
 42124  1  0  0  0
 43 44  1  0  0  0
 44125  1  0  0  0
 45 46  2  0  0  0
 45126  1  0  0  0
 46127  1  0  0  0
 47128  1  0  0  0
 47129  1  0  0  0
 48 56  1  0  0  0
 48 65  1  0  0  0
 48130  1  0  0  0
 49 50  1  0  0  0
 49 53  1  0  0  0
 49 64  1  0  0  0
 49131  1  0  0  0
 50 51  1  0  0  0
 50132  1  0  0  0
 50133  1  0  0  0
 51 52  1  0  0  0
 51134  1  0  0  0
 51135  1  0  0  0
 52136  1  0  0  0
 52137  1  0  0  0
 53 54  1  0  0  0
 54 55  2  0  0  0
 54138  1  0  0  0
 55 57  1  0  0  0
 55139  1  0  0  0
 56 69  2  0  0  0
 57 58  2  0  0  0
 57140  1  0  0  0
 58141  1  0  0  0
 59 60  1  0  0  0
 59 61  1  0  0  0
 59 62  1  0  0  0
 60142  1  0  0  0
 60143  1  0  0  0
 60144  1  0  0  0
 61145  1  0  0  0
 61146  1  0  0  0
 61147  1  0  0  0
 62148  1  0  0  0
 62149  1  0  0  0
 62150  1  0  0  0
 63 65  1  0  0  0
 63151  1  0  0  0
 63152  1  0  0  0
 63153  1  0  0  0
 64154  1  0  0  0
 65155  1  0  0  0
 68 92  1  0  0  0
 71 72  1  0  0  0
 71 75  2  0  0  0
 71 81  1  0  0  0
 72 76  2  0  0  0
 72 86  1  0  0  0
 73 74  1  0  0  0
 73 79  2  0  0  0
 73 81  1  0  0  0
 74 80  2  0  0  0
 74 85  1  0  0  0
 75 78  1  0  0  0
 75 87  1  0  0  0
 76 77  1  0  0  0
 76 88  1  0  0  0
 77 78  2  0  0  0
 77 89  1  0  0  0
 78 92  1  0  0  0
 79 82  1  0  0  0
 79 95  1  0  0  0
 80 90  1  0  0  0
 80 95  1  0  0  0
 81156  1  0  0  0
 81157  1  0  0  0
 82 86  1  0  0  0
 82158  1  0  0  0
 82159  1  0  0  0
 83 84  1  0  0  0
 83 85  1  0  0  0
 83160  1  0  0  0
 83161  1  0  0  0
 84 85  1  0  0  0
 84162  1  0  0  0
 84163  1  0  0  0
 85164  1  0  0  0
 86 91  1  0  0  0
 86165  1  0  0  0
 87166  1  0  0  0
 87167  1  0  0  0
 87168  1  0  0  0
 88169  1  0  0  0
 88170  1  0  0  0
 88171  1  0  0  0
 89172  1  0  0  0
 89173  1  0  0  0
 89174  1  0  0  0
 90175  1  0  0  0
 90176  1  0  0  0
 90177  1  0  0  0
 91178  1  0  0  0
 91179  1  0  0  0
 91180  1  0  0  0
 92181  1  0  0  0
 92182  1  0  0  0
 93 94  1  0  0  0
 93 95  1  0  0  0
 93183  1  0  0  0
 93184  1  0  0  0
 94 96  1  0  0  0
 94185  1  0  0  0
 94186  1  0  0  0
 96187  1  0  0  0
M  ISO  4   1 100  68 101  92 101  96 100
M  END
> <chiral flag>
0

> <version>
0

> <s_m_source_file>
/data/baiqing/PycharmProjects/Reinvent-master-3.2/result/LINK_invent/BTK/process_docking_weight1_custom_sum_contain_oxygen_bond_distance_aromatic_linkinvent_7_9_3/rearranged_h_0161.sdf

> <i_m_source_file_index>
46

> <r_mmod_Potential_Energy-OPLS-2005>
10.4177951812744

> <r_mmod_Stretch_Energy-OPLS-2005>
45.9601135253906

> <r_mmod_Bend_Energy-OPLS-2005>
126.32234954834

> <r_mmod_Torsional_Energy-OPLS-2005>
282.427276611328

> <r_mmod_Improper_Torsional_Energy-OPLS-2005>
2.93434000015259

> <r_mmod_Van_der_Waal_Energy-OPLS-2005>
185.410781860352

> <r_mmod_Electrostatic_Energy-OPLS-2005>
-427.053405761719

> <r_mmod_Solvation_Energy-OPLS-2005>
-215.875274658203

> <b_mmod_Minimization_Converged-OPLS-2005>
0

> <r_mmod_RMS_Derivative-OPLS-2005>
0.816612839698792

$$$$
46
                    3D
 Structure written by MMmdl.
185194  0  0  1  0            999 V2000
  -30.6998  -14.6778   20.4551 C   0  0  0  0  0  0
  -30.3821  -12.4345   19.4336 C   0  0  0  0  0  0
  -29.4482  -12.4853   18.2086 C   0  0  0  0  0  0
  -27.9965  -12.2868   18.6617 C   0  0  0  0  0  0
  -27.6155  -13.2245   19.8309 C   0  0  2  0  0  0
  -28.6614  -13.2155   20.9654 C   0  0  0  0  0  0
  -25.2356  -13.8143   20.5700 C   0  0  0  0  0  0
  -24.1719  -13.0381   20.9216 C   0  0  0  0  0  0
  -24.6350  -11.6853   20.8787 C   0  0  0  0  0  0
  -23.9033  -10.4272   21.0413 C   0  0  0  0  0  0
  -24.3590   -9.4198   21.9200 C   0  0  0  0  0  0
  -23.6316   -8.2223   22.0759 C   0  0  0  0  0  0
  -22.4293   -8.0245   21.3544 C   0  0  0  0  0  0
  -21.9894   -9.0197   20.4637 C   0  0  0  0  0  0
  -22.7192  -10.2103   20.3070 C   0  0  0  0  0  0
  -21.6853   -6.0687   22.5270 C   0  0  0  0  0  0
  -21.3992   -6.5619   23.8190 C   0  0  0  0  0  0
  -21.3654   -5.6796   24.9165 C   0  0  0  0  0  0
  -21.6036   -4.3053   24.7230 C   0  0  0  0  0  0
  -21.8843   -3.8120   23.4375 C   0  0  0  0  0  0
  -21.9203   -4.6918   22.3406 C   0  0  0  0  0  0
  -22.7733  -13.5105   21.1934 C   0  0  0  0  0  0
  -22.1674   -4.2104   21.0988 F   0  0  0  0  0  0
  -21.5674   -3.4551   25.7753 F   0  0  0  0  0  0
  -29.9557  -13.5292   20.3501 N   0  0  0  0  0  0
  -26.2802  -12.9381   20.3252 N   0  0  0  0  0  0
  -25.9270  -11.6534   20.5816 N   0  0  0  0  0  0
  -22.0481  -12.8036   22.0494 N   0  0  0  0  0  0
  -25.3968  -15.1881   20.4096 N   0  0  0  0  0  0
  -31.9047  -14.5742   20.2123 O   0  0  0  0  0  0
  -21.6679   -6.8826   21.4235 O   0  0  0  0  0  0
  -22.3383  -14.5420   20.6797 O   0  0  0  0  0  0
  -24.6314  -31.8540   23.2024 C   0  0  0  0  0  0
  -25.9148  -32.4719   23.8368 C   0  0  1  0  0  0
  -27.1988  -27.2774   20.1526 C   0  0  0  0  0  0
  -25.5997  -33.8516   24.2320 N   0  0  0  0  0  0
  -23.4218  -30.4807   21.5526 C   0  0  2  0  0  0
  -24.8608  -28.9353   20.1147 C   0  0  0  0  0  0
  -22.7535  -29.4503   22.4898 C   0  0  0  0  0  0
  -18.0278  -28.1325   22.8420 C   0  0  0  0  0  0
  -24.1493  -36.7237   23.2635 C   0  0  0  0  0  0
  -25.9644  -30.7821   21.3753 C   0  0  0  0  0  0
  -26.0349  -29.4111   20.7089 C   0  0  0  0  0  0
  -27.2059  -28.5923   20.7190 C   0  0  0  0  0  0
  -26.0038  -26.8508   19.5389 C   0  0  0  0  0  0
  -24.8470  -27.6573   19.5245 C   0  0  0  0  0  0
  -23.6363  -29.8307   20.1619 C   0  0  0  0  0  0
  -25.4120  -36.3041   24.0341 C   0  0  1  0  0  0
  -20.5904  -28.3487   23.1071 C   0  0  2  0  0  0
  -20.6808  -26.9209   22.5144 C   0  0  0  0  0  0
  -19.5442  -26.5670   21.5473 C   0  0  0  0  0  0
  -18.1735  -26.7748   22.1856 C   0  0  0  0  0  0
  -19.1601  -28.8705   23.2746 C   0  0  0  0  0  0
  -18.9637  -30.1357   23.8752 C   0  0  0  0  0  0
  -17.6649  -30.6491   24.0567 C   0  0  0  0  0  0
  -25.9082  -34.9408   23.5146 C   0  0  0  0  0  0
  -16.5467  -29.9054   23.6419 C   0  0  0  0  0  0
  -16.7308  -28.6499   23.0335 C   0  0  0  0  0  0
  -26.4499  -31.6531   25.0761 C   0  0  0  0  0  0
  -25.3690  -31.3717   26.1462 C   0  0  0  0  0  0
  -27.0421  -30.2988   24.6240 C   0  0  0  0  0  0
  -27.6100  -32.4220   25.7500 C   0  0  0  0  0  0
  -27.5571  -37.1793   24.8463 C   0  0  0  0  0  0
  -21.4246  -29.2989   22.3691 N   0  0  0  0  0  0
  -26.4292  -37.3755   23.9412 N   0  0  0  0  0  0
  -24.6934  -31.0531   22.1008 N   0  0  0  0  0  0
  -23.4256  -28.7978   23.2923 O   0  0  0  0  0  0
  -28.3136  -26.4288   20.2339 O   0  0  0  0  0  0
  -26.5562  -34.8889   22.4664 O   0  0  0  0  0  0
  -23.5472  -32.1300   23.7342 O   0  0  0  0  0  0
  -25.7834  -21.4868   19.4836 C   0  0  0  0  0  0
  -26.6069  -21.5352   18.3238 C   0  0  0  0  0  0
  -26.3287  -21.9185   20.7186 C   0  0  0  0  0  0
  -28.0180  -21.6286   18.5063 C   0  0  0  0  0  0
  -27.6717  -22.3791   20.7242 C   0  0  0  0  0  0
  -28.4970  -21.5983   19.8403 C   0  0  0  0  0  0
  -28.8714  -18.1037   21.2574 C   0  0  0  0  0  0
  -28.9498  -16.5176   21.1109 C   0  0  0  0  0  0
  -30.2306  -18.3299   19.2081 C   0  0  1  0  0  0
  -30.9826  -17.0896   19.8652 C   0  0  1  0  0  0
  -28.9924  -18.9748   19.9565 C   0  0  1  0  0  0
  -24.3456  -20.9797   19.4177 C   0  0  0  0  0  0
  -25.9958  -21.3125   16.9478 C   0  0  0  0  0  0
  -25.4856  -21.9362   21.9857 C   0  0  0  0  0  0
  -28.9863  -21.6693   17.3338 C   0  0  0  0  0  0
  -31.2628  -19.3663   18.7512 C   0  0  0  0  0  0
  -32.0875  -17.4848   20.8872 C   0  0  0  0  0  0
  -27.7036  -18.6860   19.1520 C   0  0  0  0  0  0
  -28.6611  -24.1371   22.3839 C   0  0  0  0  0  0
  -28.2646  -24.9638   19.9482 C   0  0  0  0  0  0
  -27.8429  -23.9247   21.0929 C   0  0  1  0  0  0
  -30.1393  -15.9672   20.3997 N   0  0  0  0  0  0
  -29.1450  -20.4306   20.3617 O   0  0  0  0  0  0
  -31.4163  -12.5155   19.0901 H   0  0  0  0  0  0
  -30.3102  -11.4617   19.9270 H   0  0  0  0  0  0
  -29.7254  -11.7246   17.4747 H   0  0  0  0  0  0
  -29.5397  -13.4436   17.7008 H   0  0  0  0  0  0
  -27.9033  -11.2495   18.9756 H   0  0  0  0  0  0
  -27.3066  -12.4086   17.8263 H   0  0  0  0  0  0
  -27.5923  -14.2273   19.4043 H   0  0  0  0  0  0
  -28.7007  -12.2495   21.4719 H   0  0  0  0  0  0
  -28.4012  -13.9418   21.7306 H   0  0  0  0  0  0
  -25.2727   -9.5706   22.4768 H   0  0  0  0  0  0
  -24.0013   -7.4624   22.7465 H   0  0  0  0  0  0
  -21.0824   -8.8676   19.8989 H   0  0  0  0  0  0
  -22.3586  -10.9629   19.6204 H   0  0  0  0  0  0
  -21.1957   -7.6139   23.9630 H   0  0  0  0  0  0
  -21.1462   -6.0576   25.9055 H   0  0  0  0  0  0
  -22.0629   -2.7596   23.2893 H   0  0  0  0  0  0
  -22.4226  -11.9669   22.4759 H   0  0  0  0  0  0
  -21.1143  -13.1023   22.2922 H   0  0  0  0  0  0
  -24.6116  -15.8212   20.5023 H   0  0  0  0  0  0
  -26.2290  -15.6334   20.0506 H   0  0  0  0  0  0
  -26.7269  -32.5361   23.1160 H   0  0  0  0  0  0
  -25.0311  -33.9636   25.0581 H   0  0  0  0  0  0
  -22.7154  -31.3058   21.4256 H   0  0  0  0  0  0
  -23.3760  -35.9562   23.3268 H   0  0  0  0  0  0
  -24.3623  -36.8806   22.2052 H   0  0  0  0  0  0
  -23.7213  -37.6447   23.6621 H   0  0  0  0  0  0
  -26.1006  -31.5584   20.6186 H   0  0  0  0  0  0
  -26.8383  -30.8182   22.0210 H   0  0  0  0  0  0
  -28.1047  -28.9526   21.1968 H   0  0  0  0  0  0
  -25.9231  -25.8771   19.0852 H   0  0  0  0  0  0
  -23.9489  -27.2784   19.0597 H   0  0  0  0  0  0
  -23.7915  -30.6216   19.4267 H   0  0  0  0  0  0
  -22.7469  -29.2852   19.8439 H   0  0  0  0  0  0
  -25.1300  -36.1947   25.0850 H   0  0  0  0  0  0
  -20.9978  -28.2960   24.1176 H   0  0  0  0  0  0
  -20.6360  -26.2034   23.3386 H   0  0  0  0  0  0
  -21.6472  -26.7447   22.0356 H   0  0  0  0  0  0
  -19.6283  -25.5181   21.2626 H   0  0  0  0  0  0
  -19.6293  -27.1475   20.6305 H   0  0  0  0  0  0
  -17.3951  -26.6332   21.4333 H   0  0  0  0  0  0
  -18.0045  -26.0144   22.9514 H   0  0  0  0  0  0
  -19.8206  -30.7096   24.1980 H   0  0  0  0  0  0
  -17.5291  -31.6133   24.5265 H   0  0  0  0  0  0
  -15.5480  -30.2953   23.7832 H   0  0  0  0  0  0
  -15.8697  -28.0834   22.7140 H   0  0  0  0  0  0
  -24.5898  -30.7016   25.7815 H   0  0  0  0  0  0
  -24.8855  -32.2918   26.4803 H   0  0  0  0  0  0
  -25.7943  -30.8997   27.0334 H   0  0  0  0  0  0
  -26.3123  -29.6683   24.1166 H   0  0  0  0  0  0
  -27.4107  -29.7252   25.4755 H   0  0  0  0  0  0
  -27.8944  -30.4281   23.9547 H   0  0  0  0  0  0
  -27.2803  -33.3578   26.2036 H   0  0  0  0  0  0
  -28.3953  -32.6654   25.0314 H   0  0  0  0  0  0
  -28.0750  -31.8363   26.5439 H   0  0  0  0  0  0
  -28.2601  -38.0075   24.7545 H   0  0  0  0  0  0
  -28.1080  -36.2625   24.6317 H   0  0  0  0  0  0
  -27.2316  -37.1453   25.8869 H   0  0  0  0  0  0
  -20.9366  -29.9139   21.7356 H   0  0  0  0  0  0
  -26.0166  -38.2845   24.1409 H   0  0  0  0  0  0
  -29.6332  -18.4240   21.9639 H   0  0  0  0  0  0
  -27.9505  -18.3613   21.7741 H   0  0  0  0  0  0
  -28.0572  -16.1754   20.5947 H   0  0  0  0  0  0
  -28.9145  -16.0937   22.1121 H   0  0  0  0  0  0
  -29.8246  -17.9101   18.2813 H   0  0  0  0  0  0
  -31.5081  -16.6568   19.0092 H   0  0  0  0  0  0
  -23.9203  -20.9809   18.4184 H   0  0  0  0  0  0
  -23.6770  -21.5665   20.0465 H   0  0  0  0  0  0
  -24.3200  -19.9483   19.7621 H   0  0  0  0  0  0
  -25.1373  -21.9652   16.8073 H   0  0  0  0  0  0
  -25.6609  -20.2775   16.8632 H   0  0  0  0  0  0
  -26.6784  -21.4761   16.1195 H   0  0  0  0  0  0
  -24.7073  -22.6966   21.9457 H   0  0  0  0  0  0
  -26.1005  -22.1004   22.8670 H   0  0  0  0  0  0
  -24.9966  -20.9694   22.1247 H   0  0  0  0  0  0
  -29.1142  -20.6827   16.8948 H   0  0  0  0  0  0
  -29.9506  -22.0608   17.6661 H   0  0  0  0  0  0
  -28.6310  -22.3376   16.5476 H   0  0  0  0  0  0
  -31.5625  -19.9951   19.5878 H   0  0  0  0  0  0
  -30.8964  -20.0007   17.9568 H   0  0  0  0  0  0
  -32.1639  -18.8944   18.3625 H   0  0  0  0  0  0
  -31.6974  -18.0002   21.7596 H   0  0  0  0  0  0
  -32.8515  -18.1192   20.4404 H   0  0  0  0  0  0
  -32.6290  -16.6241   21.2772 H   0  0  0  0  0  0
  -27.5841  -17.6267   18.9519 H   0  0  0  0  0  0
  -27.7155  -19.1460   18.1684 H   0  0  0  0  0  0
  -26.8049  -18.9989   19.6815 H   0  0  0  0  0  0
  -28.5677  -25.1736   22.7286 H   0  0  0  0  0  0
  -29.7224  -23.9209   22.2489 H   0  0  0  0  0  0
  -28.3081  -23.5147   23.2060 H   0  0  0  0  0  0
  -27.6988  -24.7533   19.0396 H   0  0  0  0  0  0
  -29.2873  -24.7053   19.6811 H   0  0  0  0  0  0
  -26.8373  -24.2542   21.3547 H   0  0  0  0  0  0
  1 25  1  0  0  0
  1 30  2  0  0  0
  1 92  1  0  0  0
  2  3  1  0  0  0
  2 25  1  0  0  0
  2 94  1  0  0  0
  2 95  1  0  0  0
  3  4  1  0  0  0
  3 96  1  0  0  0
  3 97  1  0  0  0
  4  5  1  0  0  0
  4 98  1  0  0  0
  4 99  1  0  0  0
  5  6  1  0  0  0
  5 26  1  0  0  0
  5100  1  0  0  0
  6 25  1  0  0  0
  6101  1  0  0  0
  6102  1  0  0  0
  7  8  2  0  0  0
  7 26  1  0  0  0
  7 29  1  0  0  0
  8  9  1  0  0  0
  8 22  1  0  0  0
  9 10  1  0  0  0
  9 27  2  0  0  0
 10 11  2  0  0  0
 10 15  1  0  0  0
 11 12  1  0  0  0
 11103  1  0  0  0
 12 13  2  0  0  0
 12104  1  0  0  0
 13 14  1  0  0  0
 13 31  1  0  0  0
 14 15  2  0  0  0
 14105  1  0  0  0
 15106  1  0  0  0
 16 17  2  0  0  0
 16 21  1  0  0  0
 16 31  1  0  0  0
 17 18  1  0  0  0
 17107  1  0  0  0
 18 19  2  0  0  0
 18108  1  0  0  0
 19 20  1  0  0  0
 19 24  1  0  0  0
 20 21  2  0  0  0
 20109  1  0  0  0
 21 23  1  0  0  0
 22 28  1  0  0  0
 22 32  2  0  0  0
 26 27  1  0  0  0
 28110  1  0  0  0
 28111  1  0  0  0
 29112  1  0  0  0
 29113  1  0  0  0
 33 34  1  0  0  0
 33 66  1  0  0  0
 33 70  2  0  0  0
 34 36  1  0  0  0
 34 59  1  0  0  0
 34114  1  0  0  0
 35 44  2  0  0  0
 35 45  1  0  0  0
 35 68  1  0  0  0
 36 56  1  0  0  0
 36115  1  0  0  0
 37 39  1  0  0  0
 37 47  1  0  0  0
 37 66  1  0  0  0
 37116  1  0  0  0
 38 43  2  0  0  0
 38 46  1  0  0  0
 38 47  1  0  0  0
 39 64  1  0  0  0
 39 67  2  0  0  0
 40 52  1  0  0  0
 40 53  2  0  0  0
 40 58  1  0  0  0
 41117  1  0  0  0
 41118  1  0  0  0
 41119  1  0  0  0
 41 48  1  0  0  0
 42 43  1  0  0  0
 42 66  1  0  0  0
 42120  1  0  0  0
 42121  1  0  0  0
 43 44  1  0  0  0
 44122  1  0  0  0
 45 46  2  0  0  0
 45123  1  0  0  0
 46124  1  0  0  0
 47125  1  0  0  0
 47126  1  0  0  0
 48 56  1  0  0  0
 48 65  1  0  0  0
 48127  1  0  0  0
 49 50  1  0  0  0
 49 53  1  0  0  0
 49 64  1  0  0  0
 49128  1  0  0  0
 50 51  1  0  0  0
 50129  1  0  0  0
 50130  1  0  0  0
 51 52  1  0  0  0
 51131  1  0  0  0
 51132  1  0  0  0
 52133  1  0  0  0
 52134  1  0  0  0
 53 54  1  0  0  0
 54 55  2  0  0  0
 54135  1  0  0  0
 55 57  1  0  0  0
 55136  1  0  0  0
 56 69  2  0  0  0
 57 58  2  0  0  0
 57137  1  0  0  0
 58138  1  0  0  0
 59 60  1  0  0  0
 59 61  1  0  0  0
 59 62  1  0  0  0
 60139  1  0  0  0
 60140  1  0  0  0
 60141  1  0  0  0
 61142  1  0  0  0
 61143  1  0  0  0
 61144  1  0  0  0
 62145  1  0  0  0
 62146  1  0  0  0
 62147  1  0  0  0
 63 65  1  0  0  0
 63148  1  0  0  0
 63149  1  0  0  0
 63150  1  0  0  0
 64151  1  0  0  0
 65152  1  0  0  0
 68 90  1  0  0  0
 71 72  2  0  0  0
 71 73  1  0  0  0
 71 82  1  0  0  0
 72 74  1  0  0  0
 72 83  1  0  0  0
 73 75  2  0  0  0
 73 84  1  0  0  0
 74 76  2  0  0  0
 74 85  1  0  0  0
 75 76  1  0  0  0
 75 91  1  0  0  0
 76 93  1  0  0  0
 77 78  1  0  0  0
 77 81  1  0  0  0
 77153  1  0  0  0
 77154  1  0  0  0
 78 92  1  0  0  0
 78155  1  0  0  0
 78156  1  0  0  0
 79 80  1  0  0  0
 79 81  1  0  0  0
 79 86  1  0  0  0
 79157  1  0  0  0
 80 87  1  0  0  0
 80 92  1  0  0  0
 80158  1  0  0  0
 81 88  1  0  0  0
 81 93  1  0  0  0
 82159  1  0  0  0
 82160  1  0  0  0
 82161  1  0  0  0
 83162  1  0  0  0
 83163  1  0  0  0
 83164  1  0  0  0
 84165  1  0  0  0
 84166  1  0  0  0
 84167  1  0  0  0
 85168  1  0  0  0
 85169  1  0  0  0
 85170  1  0  0  0
 86171  1  0  0  0
 86172  1  0  0  0
 86173  1  0  0  0
 87174  1  0  0  0
 87175  1  0  0  0
 87176  1  0  0  0
 88177  1  0  0  0
 88178  1  0  0  0
 88179  1  0  0  0
 89180  1  0  0  0
 89181  1  0  0  0
 89182  1  0  0  0
 89 91  1  0  0  0
 90 91  1  0  0  0
 90183  1  0  0  0
 90184  1  0  0  0
 91185  1  0  0  0
M  ISO  4   1 100  68 101  90 101  92 100
M  END
> <chiral flag>
0

> <version>
0

> <s_m_source_file>
/data/baiqing/PycharmProjects/Reinvent-master-3.2/result/LINK_invent/BTK/process_docking_weight1_custom_sum_contain_oxygen_bond_distance_aromatic_linkinvent_7_9_3/rearranged_h_0161.sdf

> <i_m_source_file_index>
47

> <r_mmod_Potential_Energy-OPLS-2005>
767.898620605469

> <r_mmod_Stretch_Energy-OPLS-2005>
130.325454711914

> <r_mmod_Bend_Energy-OPLS-2005>
257.569488525391

> <r_mmod_Torsional_Energy-OPLS-2005>
617.618835449219

> <r_mmod_Improper_Torsional_Energy-OPLS-2005>
34.5650367736816

> <r_mmod_Van_der_Waal_Energy-OPLS-2005>
176.739120483398

> <r_mmod_Electrostatic_Energy-OPLS-2005>
-348.783264160156

> <r_mmod_Solvation_Energy-OPLS-2005>
-182.496185302734

> <b_mmod_Minimization_Converged-OPLS-2005>
0

> <r_mmod_RMS_Derivative-OPLS-2005>
9.73215961456299

$$$$
47
                    3D
 Structure written by MMmdl.
163172  0  0  1  0            999 V2000
  -29.5900  -16.7178   20.4798 C   0  0  0  0  0  0
  -30.2048  -13.9469   19.6658 C   0  0  0  0  0  0
  -29.5474  -13.0545   18.5186 C   0  0  0  0  0  0
  -28.2481  -12.3948   18.9755 C   0  0  0  0  0  0
  -27.5380  -13.4178   19.8724 C   0  0  2  0  0  0
  -28.4022  -14.1107   20.9869 C   0  0  0  0  0  0
  -25.1886  -13.8374   20.5884 C   0  0  0  0  0  0
  -24.1452  -13.0367   20.9302 C   0  0  0  0  0  0
  -24.6378  -11.6957   20.8783 C   0  0  0  0  0  0
  -23.9146  -10.4281   21.0344 C   0  0  0  0  0  0
  -24.3650   -9.4217   21.9170 C   0  0  0  0  0  0
  -23.6338   -8.2230   22.0724 C   0  0  0  0  0  0
  -22.4308   -8.0280   21.3528 C   0  0  0  0  0  0
  -21.9972   -9.0224   20.4582 C   0  0  0  0  0  0
  -22.7292  -10.2122   20.3004 C   0  0  0  0  0  0
  -21.6908   -6.0733   22.5265 C   0  0  0  0  0  0
  -21.4042   -6.5631   23.8189 C   0  0  0  0  0  0
  -21.3676   -5.6792   24.9163 C   0  0  0  0  0  0
  -21.6023   -4.3046   24.7222 C   0  0  0  0  0  0
  -21.8811   -3.8137   23.4351 C   0  0  0  0  0  0
  -21.9180   -4.6950   22.3400 C   0  0  0  0  0  0
  -22.7487  -13.5047   21.1985 C   0  0  0  0  0  0
  -22.1643   -4.2139   21.0986 F   0  0  0  0  0  0
  -21.5629   -3.4530   25.7736 F   0  0  0  0  0  0
  -29.3226  -15.1446   20.3263 N   0  0  0  0  0  0
  -26.2438  -12.9892   20.3471 N   0  0  0  0  0  0
  -25.9361  -11.6851   20.5765 N   0  0  0  0  0  0
  -22.0245  -12.7968   22.0535 N   0  0  0  0  0  0
  -25.3354  -15.2154   20.4226 N   0  0  0  0  0  0
  -30.8612  -16.5566   20.3634 O   0  0  0  0  0  0
  -21.6648   -6.8901   21.4253 O   0  0  0  0  0  0
  -22.3090  -14.5331   20.6859 O   0  0  0  0  0  0
  -24.6280  -31.6506   23.0911 C   0  0  0  0  0  0
  -25.8934  -32.3546   23.7445 C   0  0  1  0  0  0
  -28.6207  -26.3762   19.5214 C   0  0  0  0  0  0
  -25.5484  -33.7642   24.1086 N   0  0  0  0  0  0
  -23.4687  -30.2154   21.4286 C   0  0  2  0  0  0
  -24.6166  -27.9375   20.3988 C   0  0  0  0  0  0
  -22.6652  -29.3523   22.4330 C   0  0  0  0  0  0
  -17.9918  -28.1424   22.8299 C   0  0  0  0  0  0
  -24.1488  -36.6837   23.2656 C   0  0  0  0  0  0
  -25.6649  -29.4853   22.0637 C   0  0  0  0  0  0
  -25.8235  -27.8660   21.0995 C   0  0  0  0  0  0
  -27.8604  -26.7845   20.6572 C   0  0  0  0  0  0
  -27.7350  -26.8754   20.3297 C   0  0  0  0  0  0
  -25.6924  -27.1078   20.7735 C   0  0  0  0  0  0
  -23.9674  -29.3764   20.1806 C   0  0  0  0  0  0
  -25.4192  -36.2460   24.0133 C   0  0  1  0  0  0
  -20.5333  -28.3708   23.1059 C   0  0  2  0  0  0
  -20.6324  -26.9302   22.5533 C   0  0  0  0  0  0
  -19.5490  -26.6225   21.5192 C   0  0  0  0  0  0
  -18.1599  -26.7945   22.1444 C   0  0  0  0  0  0
  -19.1134  -28.8887   23.2692 C   0  0  0  0  0  0
  -18.9220  -30.1468   23.8778 C   0  0  0  0  0  0
  -17.6270  -30.6635   24.0534 C   0  0  0  0  0  0
  -25.9155  -34.8835   23.4651 C   0  0  0  0  0  0
  -16.5129  -29.9145   23.6349 C   0  0  0  0  0  0
  -16.6942  -28.6555   23.0323 C   0  0  0  0  0  0
  -26.4643  -31.6725   25.0667 C   0  0  0  0  0  0
  -25.3718  -31.4111   26.1312 C   0  0  0  0  0  0
  -27.1721  -30.3438   24.7821 C   0  0  0  0  0  0
  -27.5766  -32.5385   25.7269 C   0  0  0  0  0  0
  -27.5542  -37.1504   24.8438 C   0  0  0  0  0  0
  -21.3446  -29.2725   22.2950 N   0  0  0  0  0  0
  -26.4238  -37.3346   23.9377 N   0  0  0  0  0  0
  -24.6704  -30.6346   22.1155 N   0  0  0  0  0  0
  -23.2332  -28.7447   23.3471 O   0  0  0  0  0  0
  -28.4706  -26.6888   18.1986 O   0  0  0  0  0  0
  -26.6174  -34.8586   22.4542 O   0  0  0  0  0  0
  -23.5454  -32.0894   23.5171 O   0  0  0  0  0  0
  -27.6134  -27.9261   22.5182 C   0  0  0  0  0  0
  -26.2566  -25.8426   18.9636 C   0  0  0  0  0  0
  -26.9814  -25.8186   22.4464 C   0  0  0  0  0  0
  -26.6577  -24.7253   20.7355 C   0  0  0  0  0  0
  -27.5859  -29.1051   20.5568 C   0  0  0  0  0  0
  -26.7061  -28.0207   18.7929 C   0  0  0  0  0  0
  -27.7320  -24.6631   23.1842 C   0  0  0  0  0  0
  -28.2448  -23.3834   22.2410 C   0  0  0  0  0  0
  -27.3153  -22.6525   21.1055 C   0  0  1  0  0  0
  -28.3625  -30.3965   20.4438 C   0  0  0  0  0  0
  -26.0555  -21.8099   23.3077 C   0  0  0  0  0  0
  -27.7380  -27.8924   17.7465 C   0  0  0  0  0  0
  -26.0086  -22.1577   21.8006 C   0  0  0  0  0  0
  -28.2802  -20.4679   20.4947 C   0  0  0  0  0  0
  -28.6924  -18.3195   20.5998 N   0  0  0  0  0  0
  -31.1121  -14.3804   19.2438 H   0  0  0  0  0  0
  -30.6010  -13.3023   20.4517 H   0  0  0  0  0  0
  -30.2645  -12.3075   18.1758 H   0  0  0  0  0  0
  -29.3237  -13.7060   17.6714 H   0  0  0  0  0  0
  -28.4766  -11.4966   19.5496 H   0  0  0  0  0  0
  -27.6304  -12.0835   18.1349 H   0  0  0  0  0  0
  -27.3089  -14.2203   19.1664 H   0  0  0  0  0  0
  -28.9065  -13.3659   21.6139 H   0  0  0  0  0  0
  -27.7595  -14.6396   21.6980 H   0  0  0  0  0  0
  -25.2784   -9.5682   22.4779 H   0  0  0  0  0  0
  -23.9997   -7.4637   22.7503 H   0  0  0  0  0  0
  -21.0878   -8.8775   19.8910 H   0  0  0  0  0  0
  -22.3753  -10.9658   19.6092 H   0  0  0  0  0  0
  -21.2076   -7.6147   23.9716 H   0  0  0  0  0  0
  -21.1509   -6.0520   25.9077 H   0  0  0  0  0  0
  -22.0584   -2.7602   23.2843 H   0  0  0  0  0  0
  -22.3900  -11.9653   22.4909 H   0  0  0  0  0  0
  -21.0857  -13.0902   22.2786 H   0  0  0  0  0  0
  -24.5672  -15.8717   20.5371 H   0  0  0  0  0  0
  -26.1892  -15.6576   20.1023 H   0  0  0  0  0  0
  -26.6681  -32.3600   22.9770 H   0  0  0  0  0  0
  -24.9168  -33.8684   24.8896 H   0  0  0  0  0  0
  -22.8667  -31.0777   21.1159 H   0  0  0  0  0  0
  -23.3844  -35.9072   23.3055 H   0  0  0  0  0  0
  -24.3517  -36.8848   22.2138 H   0  0  0  0  0  0
  -23.7166  -37.5841   23.7020 H   0  0  0  0  0  0
  -26.5511  -30.0570   22.3124 H   0  0  0  0  0  0
  -25.4651  -29.0521   23.0273 H   0  0  0  0  0  0
  -28.9105  -26.4576   21.5921 H   0  0  0  0  0  0
  -28.8522  -27.7965   19.6772 H   0  0  0  0  0  0
  -24.9965  -26.1472   20.8101 H   0  0  0  0  0  0
  -24.6756  -29.9526   19.5834 H   0  0  0  0  0  0
  -23.1136  -29.2217   19.5228 H   0  0  0  0  0  0
  -25.1465  -36.1026   25.0610 H   0  0  0  0  0  0
  -20.9348  -28.3694   24.1225 H   0  0  0  0  0  0
  -20.5088  -26.2399   23.3872 H   0  0  0  0  0  0
  -21.6230  -26.7202   22.1474 H   0  0  0  0  0  0
  -19.6708  -25.6076   21.1354 H   0  0  0  0  0  0
  -19.6606  -27.2933   20.6645 H   0  0  0  0  0  0
  -17.3936  -26.6658   21.3763 H   0  0  0  0  0  0
  -17.9912  -26.0113   22.8842 H   0  0  0  0  0  0
  -19.7769  -30.7196   24.2117 H   0  0  0  0  0  0
  -17.4894  -31.6290   24.5230 H   0  0  0  0  0  0
  -15.5163  -30.3114   23.7803 H   0  0  0  0  0  0
  -15.8257  -28.0929   22.7200 H   0  0  0  0  0  0
  -24.6024  -30.7269   25.7737 H   0  0  0  0  0  0
  -24.8767  -32.3364   26.4281 H   0  0  0  0  0  0
  -25.7917  -30.9756   27.0379 H   0  0  0  0  0  0
  -26.4957  -29.5156   24.6336 H   0  0  0  0  0  0
  -27.7450  -30.0394   25.6543 H   0  0  0  0  0  0
  -27.9019  -30.4388   23.9781 H   0  0  0  0  0  0
  -27.2217  -33.5100   26.0729 H   0  0  0  0  0  0
  -28.4033  -32.7230   25.0403 H   0  0  0  0  0  0
  -28.0002  -32.0528   26.6055 H   0  0  0  0  0  0
  -28.2398  -37.9943   24.7648 H   0  0  0  0  0  0
  -28.1202  -36.2484   24.6100 H   0  0  0  0  0  0
  -27.2259  -37.0900   25.8824 H   0  0  0  0  0  0
  -20.8927  -29.7678   21.5394 H   0  0  0  0  0  0
  -25.9947  -38.2317   24.1499 H   0  0  0  0  0  0
  -28.1011  -28.2922   23.3981 H   0  0  0  0  0  0
  -26.2231  -25.2707   18.0489 H   0  0  0  0  0  0
  -27.1307  -24.3231   24.0238 H   0  0  0  0  0  0
  -28.5984  -25.1170   23.6637 H   0  0  0  0  0  0
  -28.7705  -22.6498   22.8541 H   0  0  0  0  0  0
  -29.0684  -23.8232   21.6714 H   0  0  0  0  0  0
  -28.3399  -30.9332   21.3937 H   0  0  0  0  0  0
  -27.9475  -31.0259   19.6704 H   0  0  0  0  0  0
  -29.4080  -30.1974   20.2078 H   0  0  0  0  0  0
  -25.4164  -20.9540   23.5289 H   0  0  0  0  0  0
  -25.7033  -22.6470   23.9179 H   0  0  0  0  0  0
  -27.0550  -21.5556   23.6601 H   0  0  0  0  0  0
  -28.3943  -28.7674   17.7699 H   0  0  0  0  0  0
  -27.3092  -27.7728   16.7542 H   0  0  0  0  0  0
  -25.6128  -21.2939   21.2692 H   0  0  0  0  0  0
  -25.2272  -22.9067   21.6640 H   0  0  0  0  0  0
  -29.2032  -20.7823   19.9958 H   0  0  0  0  0  0
  -27.5502  -20.3021   19.6997 H   0  0  0  0  0  0
  -27.7553  -17.9372   20.5850 H   0  0  0  0  0  0
  1 25  1  0  0  0
  1 30  2  0  0  0
  1 85  1  0  0  0
  2  3  1  0  0  0
  2 25  1  0  0  0
  2 86  1  0  0  0
  2 87  1  0  0  0
  3  4  1  0  0  0
  3 88  1  0  0  0
  3 89  1  0  0  0
  4  5  1  0  0  0
  4 90  1  0  0  0
  4 91  1  0  0  0
  5  6  1  0  0  0
  5 26  1  0  0  0
  5 92  1  0  0  0
  6 25  1  0  0  0
  6 93  1  0  0  0
  6 94  1  0  0  0
  7  8  2  0  0  0
  7 26  1  0  0  0
  7 29  1  0  0  0
  8  9  1  0  0  0
  8 22  1  0  0  0
  9 10  1  0  0  0
  9 27  2  0  0  0
 10 11  2  0  0  0
 10 15  1  0  0  0
 11 12  1  0  0  0
 11 95  1  0  0  0
 12 13  2  0  0  0
 12 96  1  0  0  0
 13 14  1  0  0  0
 13 31  1  0  0  0
 14 15  2  0  0  0
 14 97  1  0  0  0
 15 98  1  0  0  0
 16 17  2  0  0  0
 16 21  1  0  0  0
 16 31  1  0  0  0
 17 18  1  0  0  0
 17 99  1  0  0  0
 18 19  2  0  0  0
 18100  1  0  0  0
 19 20  1  0  0  0
 19 24  1  0  0  0
 20 21  2  0  0  0
 20101  1  0  0  0
 21 23  1  0  0  0
 22 28  1  0  0  0
 22 32  2  0  0  0
 26 27  1  0  0  0
 28102  1  0  0  0
 28103  1  0  0  0
 29104  1  0  0  0
 29105  1  0  0  0
 33 34  1  0  0  0
 33 66  1  0  0  0
 33 70  2  0  0  0
 34 36  1  0  0  0
 34 59  1  0  0  0
 34106  1  0  0  0
 35 44  2  0  0  0
 35 45  1  0  0  0
 35 68  1  0  0  0
 36 56  1  0  0  0
 36107  1  0  0  0
 37 39  1  0  0  0
 37 47  1  0  0  0
 37 66  1  0  0  0
 37108  1  0  0  0
 38 43  2  0  0  0
 38 46  1  0  0  0
 38 47  1  0  0  0
 39 64  1  0  0  0
 39 67  2  0  0  0
 40 52  1  0  0  0
 40 53  2  0  0  0
 40 58  1  0  0  0
 41109  1  0  0  0
 41110  1  0  0  0
 41111  1  0  0  0
 41 48  1  0  0  0
 42 43  1  0  0  0
 42 66  1  0  0  0
 42112  1  0  0  0
 42113  1  0  0  0
 43 44  1  0  0  0
 44114  1  0  0  0
 45 46  2  0  0  0
 45115  1  0  0  0
 46116  1  0  0  0
 47117  1  0  0  0
 47118  1  0  0  0
 48 56  1  0  0  0
 48 65  1  0  0  0
 48119  1  0  0  0
 49 50  1  0  0  0
 49 53  1  0  0  0
 49 64  1  0  0  0
 49120  1  0  0  0
 50 51  1  0  0  0
 50121  1  0  0  0
 50122  1  0  0  0
 51 52  1  0  0  0
 51123  1  0  0  0
 51124  1  0  0  0
 52125  1  0  0  0
 52126  1  0  0  0
 53 54  1  0  0  0
 54 55  2  0  0  0
 54127  1  0  0  0
 55 57  1  0  0  0
 55128  1  0  0  0
 56 69  2  0  0  0
 57 58  2  0  0  0
 57129  1  0  0  0
 58130  1  0  0  0
 59 60  1  0  0  0
 59 61  1  0  0  0
 59 62  1  0  0  0
 60131  1  0  0  0
 60132  1  0  0  0
 60133  1  0  0  0
 61134  1  0  0  0
 61135  1  0  0  0
 61136  1  0  0  0
 62137  1  0  0  0
 62138  1  0  0  0
 62139  1  0  0  0
 63 65  1  0  0  0
 63140  1  0  0  0
 63141  1  0  0  0
 63142  1  0  0  0
 64143  1  0  0  0
 65144  1  0  0  0
 68 82  1  0  0  0
 71 73  2  0  0  0
 71 75  1  0  0  0
 71145  1  0  0  0
 72 74  2  0  0  0
 72 76  1  0  0  0
 72146  1  0  0  0
 73 74  1  0  0  0
 73 77  1  0  0  0
 74 79  1  0  0  0
 75 76  2  0  0  0
 75 80  1  0  0  0
 76 82  1  0  0  0
 77 78  1  0  0  0
 77147  1  0  0  0
 77148  1  0  0  0
 78 79  1  0  0  0
 78149  1  0  0  0
 78150  1  0  0  0
 79 83  1  0  0  0
 79 84  1  0  0  0
 80151  1  0  0  0
 80152  1  0  0  0
 80153  1  0  0  0
 81 83  1  0  0  0
 81154  1  0  0  0
 81155  1  0  0  0
 81156  1  0  0  0
 82157  1  0  0  0
 82158  1  0  0  0
 83159  1  0  0  0
 83160  1  0  0  0
 84 85  1  0  0  0
 84161  1  0  0  0
 84162  1  0  0  0
 85163  1  0  0  0
M  ISO  4   1 100  68 101  82 101  85 100
M  END
> <chiral flag>
0

> <version>
0

> <s_m_source_file>
/data/baiqing/PycharmProjects/Reinvent-master-3.2/result/LINK_invent/BTK/process_docking_weight1_custom_sum_contain_oxygen_bond_distance_aromatic_linkinvent_7_9_3/rearranged_h_0161.sdf

> <i_m_source_file_index>
48

> <r_mmod_Potential_Energy-OPLS-2005>
27124.162109375

> <r_mmod_Stretch_Energy-OPLS-2005>
14291.1171875

> <r_mmod_Bend_Energy-OPLS-2005>
3329.61572265625

> <r_mmod_Torsional_Energy-OPLS-2005>
733.88720703125

> <r_mmod_Improper_Torsional_Energy-OPLS-2005>
66.852424621582

> <r_mmod_Van_der_Waal_Energy-OPLS-2005>
4747.396484375

> <r_mmod_Electrostatic_Energy-OPLS-2005>
-372.271148681641

> <r_mmod_Solvation_Energy-OPLS-2005>
-218.793350219727

> <b_mmod_Minimization_Converged-OPLS-2005>
0

> <r_mmod_RMS_Derivative-OPLS-2005>
26.4859313964844

$$$$
48
                    3D
 Structure written by MMmdl.
174184  0  0  1  0            999 V2000
  -30.6763  -14.5142   20.4315 C   0  0  0  0  0  0
  -30.4288  -12.2103   19.5758 C   0  0  0  0  0  0
  -29.5564  -12.2670   18.3083 C   0  0  0  0  0  0
  -28.0387  -12.3748   18.6135 C   0  0  0  0  0  0
  -27.6683  -13.2246   19.8671 C   0  0  2  0  0  0
  -28.6970  -13.0621   21.0075 C   0  0  0  0  0  0
  -25.2633  -13.8237   20.5677 C   0  0  0  0  0  0
  -24.1951  -13.0428   20.9188 C   0  0  0  0  0  0
  -24.6546  -11.6923   20.8728 C   0  0  0  0  0  0
  -23.9168  -10.4286   21.0398 C   0  0  0  0  0  0
  -24.3675   -9.4202   21.9190 C   0  0  0  0  0  0
  -23.6321   -8.2245   22.0779 C   0  0  0  0  0  0
  -22.4300   -8.0290   21.3570 C   0  0  0  0  0  0
  -21.9913   -9.0285   20.4683 C   0  0  0  0  0  0
  -22.7308  -10.2132   20.3067 C   0  0  0  0  0  0
  -21.6891   -6.0756   22.5292 C   0  0  0  0  0  0
  -21.4027   -6.5669   23.8218 C   0  0  0  0  0  0
  -21.3698   -5.6818   24.9165 C   0  0  0  0  0  0
  -21.6094   -4.3090   24.7206 C   0  0  0  0  0  0
  -21.8851   -3.8161   23.4324 C   0  0  0  0  0  0
  -21.9234   -4.6991   22.3390 C   0  0  0  0  0  0
  -22.7945  -13.5141   21.1832 C   0  0  0  0  0  0
  -22.1663   -4.2199   21.0956 F   0  0  0  0  0  0
  -21.5653   -3.4547   25.7697 F   0  0  0  0  0  0
  -30.0303  -13.3159   20.4513 N   0  0  0  0  0  0
  -26.3106  -12.9451   20.3308 N   0  0  0  0  0  0
  -25.9520  -11.6594   20.5864 N   0  0  0  0  0  0
  -22.0680  -12.8132   22.0412 N   0  0  0  0  0  0
  -25.4288  -15.1911   20.4014 N   0  0  0  0  0  0
  -31.8658  -14.6328   20.1187 O   0  0  0  0  0  0
  -21.6680   -6.8862   21.4223 O   0  0  0  0  0  0
  -22.3585  -14.5449   20.6672 O   0  0  0  0  0  0
  -24.6120  -31.8681   23.2105 C   0  0  0  0  0  0
  -25.9014  -32.4835   23.8395 C   0  0  1  0  0  0
  -27.2578  -27.4257   20.1228 C   0  0  0  0  0  0
  -25.5863  -33.8623   24.2350 N   0  0  0  0  0  0
  -23.4044  -30.4852   21.5464 C   0  0  2  0  0  0
  -24.8637  -28.9574   20.1044 C   0  0  0  0  0  0
  -22.7418  -29.4617   22.4962 C   0  0  0  0  0  0
  -18.0270  -28.1347   22.8529 C   0  0  0  0  0  0
  -24.1474  -36.7317   23.2664 C   0  0  0  0  0  0
  -25.9319  -30.8256   21.3790 C   0  0  0  0  0  0
  -26.0097  -29.4569   20.7324 C   0  0  0  0  0  0
  -27.1936  -28.6877   20.7583 C   0  0  0  0  0  0
  -26.1098  -26.9722   19.4335 C   0  0  0  0  0  0
  -24.9120  -27.7155   19.4447 C   0  0  0  0  0  0
  -23.6198  -29.8165   20.1565 C   0  0  0  0  0  0
  -25.4093  -36.3141   24.0378 C   0  0  1  0  0  0
  -20.5876  -28.3606   23.1346 C   0  0  2  0  0  0
  -20.6744  -26.9333   22.5442 C   0  0  0  0  0  0
  -19.5721  -26.6349   21.5256 C   0  0  0  0  0  0
  -18.1902  -26.7901   22.1639 C   0  0  0  0  0  0
  -19.1522  -28.8799   23.2944 C   0  0  0  0  0  0
  -18.9438  -30.1407   23.8938 C   0  0  0  0  0  0
  -17.6436  -30.6564   24.0554 C   0  0  0  0  0  0
  -25.9017  -34.9498   23.5178 C   0  0  0  0  0  0
  -16.5334  -29.9056   23.6328 C   0  0  0  0  0  0
  -16.7257  -28.6469   23.0382 C   0  0  0  0  0  0
  -26.4484  -31.6617   25.0710 C   0  0  0  0  0  0
  -25.3767  -31.3694   26.1460 C   0  0  0  0  0  0
  -27.0349  -30.3060   24.6139 C   0  0  0  0  0  0
  -27.6059  -32.4345   25.7449 C   0  0  0  0  0  0
  -27.5585  -37.1818   24.8472 C   0  0  0  0  0  0
  -21.4137  -29.2985   22.3749 N   0  0  0  0  0  0
  -26.4291  -37.3807   23.9428 N   0  0  0  0  0  0
  -24.6661  -31.0746   22.1042 N   0  0  0  0  0  0
  -23.4203  -28.8180   23.3018 O   0  0  0  0  0  0
  -28.4292  -26.6957   20.2575 O   0  0  0  0  0  0
  -26.5565  -34.8951   22.4740 O   0  0  0  0  0  0
  -23.5295  -32.1416   23.7491 O   0  0  0  0  0  0
  -29.6976  -18.0713   20.2044 C   0  0  0  0  0  0
  -30.2294  -17.7385   17.4788 C   0  0  0  0  0  0
  -29.7135  -19.2123   19.3422 C   0  0  0  0  0  0
  -30.0630  -19.0330   17.9750 C   0  0  0  0  0  0
  -29.9234  -16.7590   19.6934 C   0  0  0  0  0  0
  -30.0673  -16.6017   18.2851 C   0  0  0  0  0  0
  -31.3154  -20.1886   15.9499 C   0  0  0  0  0  0
  -31.2295  -21.2238   17.0462 C   0  0  0  0  0  0
  -28.0899  -20.7236   20.7315 C   0  0  0  0  0  0
  -30.3863  -21.4335   20.5120 C   0  0  0  0  0  0
  -27.5670  -22.1824   20.7237 C   0  0  0  0  0  0
  -30.0309  -22.9378   20.4681 C   0  0  0  0  0  0
  -29.3047  -20.6171   19.8149 C   0  0  1  0  0  0
  -30.1757  -20.1430   16.9526 C   0  0  0  0  0  0
  -29.4713  -15.3074   16.3634 C   0  0  0  0  0  0
  -28.1088  -24.2535   19.5002 C   0  0  0  0  0  0
  -28.8038  -25.6418   19.3600 C   0  0  0  0  0  0
  -29.8815  -15.6017   20.5530 N   0  0  0  0  0  0
  -28.5740  -23.3013   20.5693 N   0  3  1  0  0  0
  -29.9947  -15.3612   17.6994 O   0  0  0  0  0  0
  -31.4942  -12.2381   19.3326 H   0  0  0  0  0  0
  -30.2655  -11.2653   20.1043 H   0  0  0  0  0  0
  -29.7268  -11.3471   17.7491 H   0  0  0  0  0  0
  -29.9350  -13.0473   17.6686 H   0  0  0  0  0  0
  -27.6781  -11.3551   18.7391 H   0  0  0  0  0  0
  -27.5219  -12.7751   17.7407 H   0  0  0  0  0  0
  -27.7025  -14.2665   19.5510 H   0  0  0  0  0  0
  -28.6496  -12.0671   21.4532 H   0  0  0  0  0  0
  -28.4865  -13.7558   21.8204 H   0  0  0  0  0  0
  -25.2868   -9.5670   22.4710 H   0  0  0  0  0  0
  -24.0104   -7.4643   22.7473 H   0  0  0  0  0  0
  -21.0860   -8.8806   19.8976 H   0  0  0  0  0  0
  -22.3823  -10.9637   19.6088 H   0  0  0  0  0  0
  -21.1966   -7.6168   23.9704 H   0  0  0  0  0  0
  -21.1484   -6.0538   25.9085 H   0  0  0  0  0  0
  -22.0577   -2.7629   23.2815 H   0  0  0  0  0  0
  -22.4272  -11.9691   22.4671 H   0  0  0  0  0  0
  -21.1334  -13.1178   22.2763 H   0  0  0  0  0  0
  -24.6723  -15.8534   20.5286 H   0  0  0  0  0  0
  -26.2783  -15.6209   20.0599 H   0  0  0  0  0  0
  -26.7071  -32.5565   23.1149 H   0  0  0  0  0  0
  -25.0045  -33.9756   25.0515 H   0  0  0  0  0  0
  -22.6925  -31.2995   21.4023 H   0  0  0  0  0  0
  -23.3753  -35.9622   23.3322 H   0  0  0  0  0  0
  -24.3603  -36.8916   22.2077 H   0  0  0  0  0  0
  -23.7155  -37.6514   23.6641 H   0  0  0  0  0  0
  -26.0513  -31.5840   20.6043 H   0  0  0  0  0  0
  -26.8168  -30.8794   22.0003 H   0  0  0  0  0  0
  -28.0610  -29.0591   21.2879 H   0  0  0  0  0  0
  -26.1058  -26.0531   18.8748 H   0  0  0  0  0  0
  -24.0452  -27.3402   18.9166 H   0  0  0  0  0  0
  -23.7177  -30.5903   19.3929 H   0  0  0  0  0  0
  -22.7508  -29.2204   19.8702 H   0  0  0  0  0  0
  -25.1267  -36.2058   25.0865 H   0  0  0  0  0  0
  -20.9979  -28.3166   24.1465 H   0  0  0  0  0  0
  -20.5683  -26.2201   23.3634 H   0  0  0  0  0  0
  -21.6605  -26.7395   22.1210 H   0  0  0  0  0  0
  -19.6865  -25.6283   21.1244 H   0  0  0  0  0  0
  -19.6683  -27.3200   20.6835 H   0  0  0  0  0  0
  -17.4206  -26.6750   21.4007 H   0  0  0  0  0  0
  -18.0214  -26.0002   22.8976 H   0  0  0  0  0  0
  -19.7910  -30.7221   24.2333 H   0  0  0  0  0  0
  -17.4984  -31.6272   24.5102 H   0  0  0  0  0  0
  -15.5328  -30.2968   23.7607 H   0  0  0  0  0  0
  -15.8661  -28.0773   22.7099 H   0  0  0  0  0  0
  -24.5884  -30.7146   25.7752 H   0  0  0  0  0  0
  -24.9033  -32.2836   26.5028 H   0  0  0  0  0  0
  -25.8093  -30.8722   27.0144 H   0  0  0  0  0  0
  -26.2913  -29.6746   24.1274 H   0  0  0  0  0  0
  -27.4194  -29.7375   25.4617 H   0  0  0  0  0  0
  -27.8705  -30.4359   23.9262 H   0  0  0  0  0  0
  -27.2689  -33.3597   26.2115 H   0  0  0  0  0  0
  -28.3805  -32.6993   25.0250 H   0  0  0  0  0  0
  -28.0825  -31.8448   26.5286 H   0  0  0  0  0  0
  -28.2625  -38.0100   24.7539 H   0  0  0  0  0  0
  -28.1075  -36.2652   24.6283 H   0  0  0  0  0  0
  -27.2335  -37.1441   25.8885 H   0  0  0  0  0  0
  -20.9282  -29.8692   21.6957 H   0  0  0  0  0  0
  -26.0231  -38.2910   24.1405 H   0  0  0  0  0  0
  -29.4661  -18.1975   21.2572 H   0  0  0  0  0  0
  -30.4239  -17.6316   16.4203 H   0  0  0  0  0  0
  -32.1286  -19.4655   16.0233 H   0  0  0  0  0  0
  -31.0920  -20.5137   14.9336 H   0  0  0  0  0  0
  -30.9431  -22.2300   16.7525 H   0  0  0  0  0  0
  -31.9696  -21.1563   17.8419 H   0  0  0  0  0  0
  -27.2937  -20.0694   20.3621 H   0  0  0  0  0  0
  -28.3160  -20.3829   21.7482 H   0  0  0  0  0  0
  -30.5185  -21.0931   21.5402 H   0  0  0  0  0  0
  -31.3535  -21.2986   20.0294 H   0  0  0  0  0  0
  -26.9752  -22.3692   21.6248 H   0  0  0  0  0  0
  -26.8407  -22.2231   19.9058 H   0  0  0  0  0  0
  -30.4514  -23.3434   19.5479 H   0  0  0  0  0  0
  -30.5664  -23.4455   21.2759 H   0  0  0  0  0  0
  -29.0125  -21.1407   18.9078 H   0  0  0  0  0  0
  -29.1888  -20.3978   16.5630 H   0  0  0  0  0  0
  -28.6662  -16.0235   16.1878 H   0  0  0  0  0  0
  -29.0535  -14.3223   16.1531 H   0  0  0  0  0  0
  -30.2444  -15.4919   15.6203 H   0  0  0  0  0  0
  -28.2325  -23.7419   18.5402 H   0  0  0  0  0  0
  -27.0390  -24.3944   19.6222 H   0  0  0  0  0  0
  -28.6533  -26.0190   18.3481 H   0  0  0  0  0  0
  -29.8825  -25.5311   19.4567 H   0  0  0  0  0  0
  -29.0002  -15.4302   21.0105 H   0  0  0  0  0  0
  -28.5010  -23.8008   21.4454 H   0  0  0  0  0  0
  1 25  1  0  0  0
  1 30  2  0  0  0
  1 88  1  0  0  0
  2  3  1  0  0  0
  2 25  1  0  0  0
  2 91  1  0  0  0
  2 92  1  0  0  0
  3  4  1  0  0  0
  3 93  1  0  0  0
  3 94  1  0  0  0
  4  5  1  0  0  0
  4 95  1  0  0  0
  4 96  1  0  0  0
  5  6  1  0  0  0
  5 26  1  0  0  0
  5 97  1  0  0  0
  6 25  1  0  0  0
  6 98  1  0  0  0
  6 99  1  0  0  0
  7  8  2  0  0  0
  7 26  1  0  0  0
  7 29  1  0  0  0
  8  9  1  0  0  0
  8 22  1  0  0  0
  9 10  1  0  0  0
  9 27  2  0  0  0
 10 11  2  0  0  0
 10 15  1  0  0  0
 11 12  1  0  0  0
 11100  1  0  0  0
 12 13  2  0  0  0
 12101  1  0  0  0
 13 14  1  0  0  0
 13 31  1  0  0  0
 14 15  2  0  0  0
 14102  1  0  0  0
 15103  1  0  0  0
 16 17  2  0  0  0
 16 21  1  0  0  0
 16 31  1  0  0  0
 17 18  1  0  0  0
 17104  1  0  0  0
 18 19  2  0  0  0
 18105  1  0  0  0
 19 20  1  0  0  0
 19 24  1  0  0  0
 20 21  2  0  0  0
 20106  1  0  0  0
 21 23  1  0  0  0
 22 28  1  0  0  0
 22 32  2  0  0  0
 26 27  1  0  0  0
 28107  1  0  0  0
 28108  1  0  0  0
 29109  1  0  0  0
 29110  1  0  0  0
 33 34  1  0  0  0
 33 66  1  0  0  0
 33 70  2  0  0  0
 34 36  1  0  0  0
 34 59  1  0  0  0
 34111  1  0  0  0
 35 44  2  0  0  0
 35 45  1  0  0  0
 35 68  1  0  0  0
 36 56  1  0  0  0
 36112  1  0  0  0
 37 39  1  0  0  0
 37 47  1  0  0  0
 37 66  1  0  0  0
 37113  1  0  0  0
 38 43  2  0  0  0
 38 46  1  0  0  0
 38 47  1  0  0  0
 39 64  1  0  0  0
 39 67  2  0  0  0
 40 52  1  0  0  0
 40 53  2  0  0  0
 40 58  1  0  0  0
 41114  1  0  0  0
 41115  1  0  0  0
 41116  1  0  0  0
 41 48  1  0  0  0
 42 43  1  0  0  0
 42 66  1  0  0  0
 42117  1  0  0  0
 42118  1  0  0  0
 43 44  1  0  0  0
 44119  1  0  0  0
 45 46  2  0  0  0
 45120  1  0  0  0
 46121  1  0  0  0
 47122  1  0  0  0
 47123  1  0  0  0
 48 56  1  0  0  0
 48 65  1  0  0  0
 48124  1  0  0  0
 49 50  1  0  0  0
 49 53  1  0  0  0
 49 64  1  0  0  0
 49125  1  0  0  0
 50 51  1  0  0  0
 50126  1  0  0  0
 50127  1  0  0  0
 51 52  1  0  0  0
 51128  1  0  0  0
 51129  1  0  0  0
 52130  1  0  0  0
 52131  1  0  0  0
 53 54  1  0  0  0
 54 55  2  0  0  0
 54132  1  0  0  0
 55 57  1  0  0  0
 55133  1  0  0  0
 56 69  2  0  0  0
 57 58  2  0  0  0
 57134  1  0  0  0
 58135  1  0  0  0
 59 60  1  0  0  0
 59 61  1  0  0  0
 59 62  1  0  0  0
 60136  1  0  0  0
 60137  1  0  0  0
 60138  1  0  0  0
 61139  1  0  0  0
 61140  1  0  0  0
 61141  1  0  0  0
 62142  1  0  0  0
 62143  1  0  0  0
 62144  1  0  0  0
 63 65  1  0  0  0
 63145  1  0  0  0
 63146  1  0  0  0
 63147  1  0  0  0
 64148  1  0  0  0
 65149  1  0  0  0
 68 87  1  0  0  0
 71 73  2  0  0  0
 71 75  1  0  0  0
 71150  1  0  0  0
 72 74  2  0  0  0
 72 76  1  0  0  0
 72151  1  0  0  0
 73 74  1  0  0  0
 73 83  1  0  0  0
 74 84  1  0  0  0
 75 76  2  0  0  0
 75 88  1  0  0  0
 76 90  1  0  0  0
 77 78  1  0  0  0
 77 84  1  0  0  0
 77152  1  0  0  0
 77153  1  0  0  0
 78 84  1  0  0  0
 78154  1  0  0  0
 78155  1  0  0  0
 79 81  1  0  0  0
 79 83  1  0  0  0
 79156  1  0  0  0
 79157  1  0  0  0
 80 82  1  0  0  0
 80 83  1  0  0  0
 80158  1  0  0  0
 80159  1  0  0  0
 81 89  1  0  0  0
 81160  1  0  0  0
 81161  1  0  0  0
 82 89  1  0  0  0
 82162  1  0  0  0
 82163  1  0  0  0
 83164  1  0  0  0
 84165  1  0  0  0
 85 90  1  0  0  0
 85166  1  0  0  0
 85167  1  0  0  0
 85168  1  0  0  0
 86 87  1  0  0  0
 86169  1  0  0  0
 86170  1  0  0  0
 86 89  1  0  0  0
 87171  1  0  0  0
 87172  1  0  0  0
 88173  1  0  0  0
 89174  1  0  0  0
M  CHG  1  89   1
M  ISO  4   1 100  68 101  87 101  88 100
M  END
> <chiral flag>
0

> <version>
0

> <s_m_source_file>
/data/baiqing/PycharmProjects/Reinvent-master-3.2/result/LINK_invent/BTK/process_docking_weight1_custom_sum_contain_oxygen_bond_distance_aromatic_linkinvent_7_9_3/rearranged_h_0161.sdf

> <i_m_source_file_index>
49

> <r_mmod_Potential_Energy-OPLS-2005>
51.4551734924316

> <r_mmod_Stretch_Energy-OPLS-2005>
51.7359886169434

> <r_mmod_Bend_Energy-OPLS-2005>
158.553283691406

> <r_mmod_Torsional_Energy-OPLS-2005>
368.694946289062

> <r_mmod_Improper_Torsional_Energy-OPLS-2005>
7.46188259124756

> <r_mmod_Van_der_Waal_Energy-OPLS-2005>
172.837997436523

> <r_mmod_Electrostatic_Energy-OPLS-2005>
-304.537933349609

> <r_mmod_Solvation_Energy-OPLS-2005>
-443.452575683594

> <b_mmod_Minimization_Converged-OPLS-2005>
0

> <r_mmod_RMS_Derivative-OPLS-2005>
8.47113609313965

$$$$
49
                    3D
 Structure written by MMmdl.
184194  0  0  1  0            999 V2000
  -30.7398  -14.4270   20.6692 C   0  0  0  0  0  0
  -30.4238  -12.3210   19.4017 C   0  0  0  0  0  0
  -29.4849  -12.5223   18.1955 C   0  0  0  0  0  0
  -28.0106  -12.3573   18.6117 C   0  0  0  0  0  0
  -27.6638  -13.1830   19.8755 C   0  0  2  0  0  0
  -28.7076  -12.9175   20.9888 C   0  0  0  0  0  0
  -25.2622  -13.8108   20.5657 C   0  0  0  0  0  0
  -24.1853  -13.0415   20.9169 C   0  0  0  0  0  0
  -24.6377  -11.6876   20.8735 C   0  0  0  0  0  0
  -23.9035  -10.4281   21.0411 C   0  0  0  0  0  0
  -24.3595   -9.4200   21.9186 C   0  0  0  0  0  0
  -23.6275   -8.2237   22.0755 C   0  0  0  0  0  0
  -22.4262   -8.0275   21.3541 C   0  0  0  0  0  0
  -21.9893   -9.0247   20.4645 C   0  0  0  0  0  0
  -22.7214  -10.2128   20.3056 C   0  0  0  0  0  0
  -21.6846   -6.0734   22.5278 C   0  0  0  0  0  0
  -21.4011   -6.5640   23.8213 C   0  0  0  0  0  0
  -21.3655   -5.6792   24.9175 C   0  0  0  0  0  0
  -21.6042   -4.3055   24.7226 C   0  0  0  0  0  0
  -21.8820   -3.8148   23.4347 C   0  0  0  0  0  0
  -21.9191   -4.6964   22.3403 C   0  0  0  0  0  0
  -22.7883  -13.5235   21.1835 C   0  0  0  0  0  0
  -22.1658   -4.2151   21.0978 F   0  0  0  0  0  0
  -21.5629   -3.4538   25.7740 F   0  0  0  0  0  0
  -30.0360  -13.2731   20.4608 N   0  0  0  0  0  0
  -26.3031  -12.9228   20.3358 N   0  0  0  0  0  0
  -25.9289  -11.6413   20.5751 N   0  0  0  0  0  0
  -22.0514  -12.8241   22.0394 N   0  0  0  0  0  0
  -25.4355  -15.1823   20.4039 N   0  0  0  0  0  0
  -31.7937  -14.6525   20.0612 O   0  0  0  0  0  0
  -21.6625   -6.8875   21.4239 O   0  0  0  0  0  0
  -22.3575  -14.5545   20.6687 O   0  0  0  0  0  0
  -24.6126  -31.8699   23.2134 C   0  0  0  0  0  0
  -25.9030  -32.4837   23.8418 C   0  0  1  0  0  0
  -27.2346  -27.4543   20.0915 C   0  0  0  0  0  0
  -25.5895  -33.8636   24.2348 N   0  0  0  0  0  0
  -23.4002  -30.4934   21.5532 C   0  0  2  0  0  0
  -24.8491  -28.9627   20.1176 C   0  0  0  0  0  0
  -22.7394  -29.4664   22.5004 C   0  0  0  0  0  0
  -18.0267  -28.1375   22.8496 C   0  0  0  0  0  0
  -24.1485  -36.7322   23.2638 C   0  0  0  0  0  0
  -25.9277  -30.8377   21.3683 C   0  0  0  0  0  0
  -26.0063  -29.4712   20.7222 C   0  0  0  0  0  0
  -27.2025  -28.7198   20.7179 C   0  0  0  0  0  0
  -26.0701  -26.9673   19.4644 C   0  0  0  0  0  0
  -24.8738  -27.7064   19.4892 C   0  0  0  0  0  0
  -23.6096  -29.8268   20.1672 C   0  0  0  0  0  0
  -25.4106  -36.3123   24.0340 C   0  0  1  0  0  0
  -20.5853  -28.3658   23.1322 C   0  0  2  0  0  0
  -20.6760  -26.9397   22.5418 C   0  0  0  0  0  0
  -19.5738  -26.6385   21.5213 C   0  0  0  0  0  0
  -18.1914  -26.7925   22.1622 C   0  0  0  0  0  0
  -19.1515  -28.8832   23.2907 C   0  0  0  0  0  0
  -18.9445  -30.1443   23.8911 C   0  0  0  0  0  0
  -17.6451  -30.6585   24.0568 C   0  0  0  0  0  0
  -25.9030  -34.9484   23.5138 C   0  0  0  0  0  0
  -16.5342  -29.9089   23.6328 C   0  0  0  0  0  0
  -16.7261  -28.6507   23.0349 C   0  0  0  0  0  0
  -26.4473  -31.6596   25.0727 C   0  0  0  0  0  0
  -25.3755  -31.3674   26.1480 C   0  0  0  0  0  0
  -27.0309  -30.3044   24.6080 C   0  0  0  0  0  0
  -27.6047  -32.4311   25.7498 C   0  0  0  0  0  0
  -27.5584  -37.1815   24.8468 C   0  0  0  0  0  0
  -21.4124  -29.3033   22.3740 N   0  0  0  0  0  0
  -26.4295  -37.3804   23.9416 N   0  0  0  0  0  0
  -24.6647  -31.0805   22.1038 N   0  0  0  0  0  0
  -23.4176  -28.8201   23.3033 O   0  0  0  0  0  0
  -28.3839  -26.7010   20.0566 O   0  0  0  0  0  0
  -26.5588  -34.8926   22.4697 O   0  0  0  0  0  0
  -23.5324  -32.1447   23.7536 O   0  0  0  0  0  0
  -29.9167  -20.5748   22.9275 C   0  0  0  0  0  0
  -30.5026  -20.0545   20.6281 C   0  0  0  0  0  0
  -30.2215  -19.6202   21.9382 C   0  0  0  0  0  0
  -30.0942  -22.3797   21.2820 C   0  0  0  0  0  0
  -29.8529  -21.9556   22.6161 C   0  0  0  0  0  0
  -30.4338  -21.4284   20.2844 C   0  0  0  0  0  0
  -29.1231  -17.3861   21.4518 C   0  0  0  0  0  0
  -31.5332  -17.4098   22.1493 C   0  0  0  0  0  0
  -29.0569  -15.8985   21.8340 C   0  0  0  0  0  0
  -31.3908  -15.9147   22.5252 C   0  0  0  0  0  0
  -30.0380  -26.0985   21.7088 C   0  0  0  0  0  0
  -30.1795  -18.1312   22.2806 C   0  0  0  0  0  0
  -29.9498  -23.8659   20.9021 C   0  0  1  0  0  0
  -28.4957  -24.3628   20.9325 C   0  0  1  0  0  0
  -28.5955  -25.8813   21.2150 C   0  0  2  0  0  0
  -27.6696  -23.9296   19.7092 C   0  0  0  0  0  0
  -32.8700  -25.5158   22.7780 C   0  0  0  0  0  0
  -29.2514  -22.5155   24.8849 C   0  0  0  0  0  0
  -30.8981  -20.9445   17.9683 C   0  0  0  0  0  0
  -32.1520  -24.7526   21.6552 C   0  0  0  0  0  0
  -30.3700  -15.2331   21.7047 N   0  0  0  0  0  0
  -30.6770  -24.7643   21.8189 N   0  3  1  0  0  0
  -29.5582  -22.9249   23.5557 O   0  0  0  0  0  0
  -30.6639  -21.8909   19.0044 O   0  0  0  0  0  0
  -31.4632  -12.4352   19.0892 H   0  0  0  0  0  0
  -30.3473  -11.2983   19.7746 H   0  0  0  0  0  0
  -29.7303  -11.8118   17.4047 H   0  0  0  0  0  0
  -29.6385  -13.5158   17.7712 H   0  0  0  0  0  0
  -27.8332  -11.2977   18.8010 H   0  0  0  0  0  0
  -27.3522  -12.6331   17.7867 H   0  0  0  0  0  0
  -27.7137  -14.2262   19.5691 H   0  0  0  0  0  0
  -28.6983  -11.8585   21.2510 H   0  0  0  0  0  0
  -28.4577  -13.4156   21.9232 H   0  0  0  0  0  0
  -25.2743   -9.5679   22.4753 H   0  0  0  0  0  0
  -23.9984   -7.4631   22.7477 H   0  0  0  0  0  0
  -21.0827   -8.8764   19.8949 H   0  0  0  0  0  0
  -22.3677  -10.9666   19.6164 H   0  0  0  0  0  0
  -21.2002   -7.6146   23.9718 H   0  0  0  0  0  0
  -21.1472   -6.0522   25.9078 H   0  0  0  0  0  0
  -22.0603   -2.7612   23.2846 H   0  0  0  0  0  0
  -22.4114  -11.9897   22.4786 H   0  0  0  0  0  0
  -21.1137  -13.1285   22.2597 H   0  0  0  0  0  0
  -24.6685  -15.8366   20.5126 H   0  0  0  0  0  0
  -26.2867  -15.6226   20.0787 H   0  0  0  0  0  0
  -26.7106  -32.5569   23.1193 H   0  0  0  0  0  0
  -25.0072  -33.9811   25.0510 H   0  0  0  0  0  0
  -22.6884  -31.3101   21.4153 H   0  0  0  0  0  0
  -23.3751  -35.9651   23.3306 H   0  0  0  0  0  0
  -24.3578  -36.8932   22.2052 H   0  0  0  0  0  0
  -23.7230  -37.6524   23.6649 H   0  0  0  0  0  0
  -26.0356  -31.6001   20.5955 H   0  0  0  0  0  0
  -26.8176  -30.8956   21.9834 H   0  0  0  0  0  0
  -28.0958  -29.1090   21.1867 H   0  0  0  0  0  0
  -26.0830  -26.0248   18.9408 H   0  0  0  0  0  0
  -23.9889  -27.3146   19.0068 H   0  0  0  0  0  0
  -23.7173  -30.6029   19.4083 H   0  0  0  0  0  0
  -22.7344  -29.2454   19.8709 H   0  0  0  0  0  0
  -25.1281  -36.1996   25.0833 H   0  0  0  0  0  0
  -20.9943  -28.3226   24.1442 H   0  0  0  0  0  0
  -20.5673  -26.2264   23.3601 H   0  0  0  0  0  0
  -21.6632  -26.7450   22.1208 H   0  0  0  0  0  0
  -19.6901  -25.6303   21.1227 H   0  0  0  0  0  0
  -19.6676  -27.3211   20.6758 H   0  0  0  0  0  0
  -17.4186  -26.6682   21.4022 H   0  0  0  0  0  0
  -18.0311  -26.0061   22.9012 H   0  0  0  0  0  0
  -19.7919  -30.7258   24.2285 H   0  0  0  0  0  0
  -17.5003  -31.6265   24.5171 H   0  0  0  0  0  0
  -15.5343  -30.2996   23.7643 H   0  0  0  0  0  0
  -15.8661  -28.0837   22.7049 H   0  0  0  0  0  0
  -24.5930  -30.7022   25.7816 H   0  0  0  0  0  0
  -24.8946  -32.2817   26.4962 H   0  0  0  0  0  0
  -25.8125  -30.8820   27.0215 H   0  0  0  0  0  0
  -26.2846  -29.6802   24.1155 H   0  0  0  0  0  0
  -27.4115  -29.7277   25.4521 H   0  0  0  0  0  0
  -27.8661  -30.4380   23.9202 H   0  0  0  0  0  0
  -27.2667  -33.3601   26.2102 H   0  0  0  0  0  0
  -28.3847  -32.6890   25.0322 H   0  0  0  0  0  0
  -28.0724  -31.8416   26.5393 H   0  0  0  0  0  0
  -28.2601  -38.0115   24.7527 H   0  0  0  0  0  0
  -28.1079  -36.2644   24.6281 H   0  0  0  0  0  0
  -27.2296  -37.1455   25.8868 H   0  0  0  0  0  0
  -20.9280  -29.8764   21.6975 H   0  0  0  0  0  0
  -26.0186  -38.2883   24.1423 H   0  0  0  0  0  0
  -29.7126  -20.2196   23.9267 H   0  0  0  0  0  0
  -30.7429  -19.3034   19.8909 H   0  0  0  0  0  0
  -28.1450  -17.8451   21.6020 H   0  0  0  0  0  0
  -29.3417  -17.4723   20.3869 H   0  0  0  0  0  0
  -31.9164  -17.4979   21.1317 H   0  0  0  0  0  0
  -32.2704  -17.8845   22.7984 H   0  0  0  0  0  0
  -28.2935  -15.4613   21.2041 H   0  0  0  0  0  0
  -28.7022  -15.7864   22.8593 H   0  0  0  0  0  0
  -31.1054  -15.8246   23.5743 H   0  0  0  0  0  0
  -32.3608  -15.4194   22.4462 H   0  0  0  0  0  0
  -30.0628  -26.6232   22.6643 H   0  0  0  0  0  0
  -30.5846  -26.7096   20.9886 H   0  0  0  0  0  0
  -29.8783  -18.0499   23.3268 H   0  0  0  0  0  0
  -30.3480  -24.0544   19.9043 H   0  0  0  0  0  0
  -28.0143  -23.9293   21.8093 H   0  0  0  0  0  0
  -27.8956  -26.1410   22.0135 H   0  0  0  0  0  0
  -27.9962  -24.4320   18.7984 H   0  0  0  0  0  0
  -26.6114  -24.1339   19.8630 H   0  0  0  0  0  0
  -27.7568  -22.8561   19.5402 H   0  0  0  0  0  0
  -33.9513  -25.4336   22.6646 H   0  0  0  0  0  0
  -32.6116  -25.1155   23.7588 H   0  0  0  0  0  0
  -32.6208  -26.5771   22.7671 H   0  0  0  0  0  0
  -29.0150  -23.3919   25.4884 H   0  0  0  0  0  0
  -30.0983  -22.0141   25.3555 H   0  0  0  0  0  0
  -28.3817  -21.8573   24.9114 H   0  0  0  0  0  0
  -31.0225  -21.4699   17.0215 H   0  0  0  0  0  0
  -30.0560  -20.2601   17.8548 H   0  0  0  0  0  0
  -31.8095  -20.3717   18.1458 H   0  0  0  0  0  0
  -32.5036  -23.7195   21.6588 H   0  0  0  0  0  0
  -32.4266  -25.1659   20.6835 H   0  0  0  0  0  0
  -30.4609  -24.3896   22.7352 H   0  0  0  0  0  0
  1 25  1  0  0  0
  1 30  2  0  0  0
  1 91  1  0  0  0
  2  3  1  0  0  0
  2 25  1  0  0  0
  2 95  1  0  0  0
  2 96  1  0  0  0
  3  4  1  0  0  0
  3 97  1  0  0  0
  3 98  1  0  0  0
  4  5  1  0  0  0
  4 99  1  0  0  0
  4100  1  0  0  0
  5  6  1  0  0  0
  5 26  1  0  0  0
  5101  1  0  0  0
  6 25  1  0  0  0
  6102  1  0  0  0
  6103  1  0  0  0
  7  8  2  0  0  0
  7 26  1  0  0  0
  7 29  1  0  0  0
  8  9  1  0  0  0
  8 22  1  0  0  0
  9 10  1  0  0  0
  9 27  2  0  0  0
 10 11  2  0  0  0
 10 15  1  0  0  0
 11 12  1  0  0  0
 11104  1  0  0  0
 12 13  2  0  0  0
 12105  1  0  0  0
 13 14  1  0  0  0
 13 31  1  0  0  0
 14 15  2  0  0  0
 14106  1  0  0  0
 15107  1  0  0  0
 16 17  2  0  0  0
 16 21  1  0  0  0
 16 31  1  0  0  0
 17 18  1  0  0  0
 17108  1  0  0  0
 18 19  2  0  0  0
 18109  1  0  0  0
 19 20  1  0  0  0
 19 24  1  0  0  0
 20 21  2  0  0  0
 20110  1  0  0  0
 21 23  1  0  0  0
 22 28  1  0  0  0
 22 32  2  0  0  0
 26 27  1  0  0  0
 28111  1  0  0  0
 28112  1  0  0  0
 29113  1  0  0  0
 29114  1  0  0  0
 33 34  1  0  0  0
 33 66  1  0  0  0
 33 70  2  0  0  0
 34 36  1  0  0  0
 34 59  1  0  0  0
 34115  1  0  0  0
 35 44  2  0  0  0
 35 45  1  0  0  0
 35 68  1  0  0  0
 36 56  1  0  0  0
 36116  1  0  0  0
 37 39  1  0  0  0
 37 47  1  0  0  0
 37 66  1  0  0  0
 37117  1  0  0  0
 38 43  2  0  0  0
 38 46  1  0  0  0
 38 47  1  0  0  0
 39 64  1  0  0  0
 39 67  2  0  0  0
 40 52  1  0  0  0
 40 53  2  0  0  0
 40 58  1  0  0  0
 41118  1  0  0  0
 41119  1  0  0  0
 41120  1  0  0  0
 41 48  1  0  0  0
 42 43  1  0  0  0
 42 66  1  0  0  0
 42121  1  0  0  0
 42122  1  0  0  0
 43 44  1  0  0  0
 44123  1  0  0  0
 45 46  2  0  0  0
 45124  1  0  0  0
 46125  1  0  0  0
 47126  1  0  0  0
 47127  1  0  0  0
 48 56  1  0  0  0
 48 65  1  0  0  0
 48128  1  0  0  0
 49 50  1  0  0  0
 49 53  1  0  0  0
 49 64  1  0  0  0
 49129  1  0  0  0
 50 51  1  0  0  0
 50130  1  0  0  0
 50131  1  0  0  0
 51 52  1  0  0  0
 51132  1  0  0  0
 51133  1  0  0  0
 52134  1  0  0  0
 52135  1  0  0  0
 53 54  1  0  0  0
 54 55  2  0  0  0
 54136  1  0  0  0
 55 57  1  0  0  0
 55137  1  0  0  0
 56 69  2  0  0  0
 57 58  2  0  0  0
 57138  1  0  0  0
 58139  1  0  0  0
 59 60  1  0  0  0
 59 61  1  0  0  0
 59 62  1  0  0  0
 60140  1  0  0  0
 60141  1  0  0  0
 60142  1  0  0  0
 61143  1  0  0  0
 61144  1  0  0  0
 61145  1  0  0  0
 62146  1  0  0  0
 62147  1  0  0  0
 62148  1  0  0  0
 63 65  1  0  0  0
 63149  1  0  0  0
 63150  1  0  0  0
 63151  1  0  0  0
 64152  1  0  0  0
 65153  1  0  0  0
 68 85  1  0  0  0
 71 73  2  0  0  0
 71 75  1  0  0  0
 71154  1  0  0  0
 72 73  1  0  0  0
 72 76  2  0  0  0
 72155  1  0  0  0
 73 82  1  0  0  0
 74 75  2  0  0  0
 74 76  1  0  0  0
 74 83  1  0  0  0
 75 93  1  0  0  0
 76 94  1  0  0  0
 77 79  1  0  0  0
 77 82  1  0  0  0
 77156  1  0  0  0
 77157  1  0  0  0
 78 80  1  0  0  0
 78 82  1  0  0  0
 78158  1  0  0  0
 78159  1  0  0  0
 79 91  1  0  0  0
 79160  1  0  0  0
 79161  1  0  0  0
 80 91  1  0  0  0
 80162  1  0  0  0
 80163  1  0  0  0
 81 85  1  0  0  0
 81 92  1  0  0  0
 81164  1  0  0  0
 81165  1  0  0  0
 82166  1  0  0  0
 83 84  1  0  0  0
 83 92  1  0  0  0
 83167  1  0  0  0
 84 85  1  0  0  0
 84 86  1  0  0  0
 84168  1  0  0  0
 85169  1  0  0  0
 86170  1  0  0  0
 86171  1  0  0  0
 86172  1  0  0  0
 87 90  1  0  0  0
 87173  1  0  0  0
 87174  1  0  0  0
 87175  1  0  0  0
 88 93  1  0  0  0
 88176  1  0  0  0
 88177  1  0  0  0
 88178  1  0  0  0
 89 94  1  0  0  0
 89179  1  0  0  0
 89180  1  0  0  0
 89181  1  0  0  0
 90182  1  0  0  0
 90183  1  0  0  0
 90 92  1  0  0  0
 92184  1  0  0  0
M  CHG  1  92   1
M  ISO  4   1 100  68 101  85 101  91 100
M  END
> <chiral flag>
0

> <version>
0

> <s_m_source_file>
/data/baiqing/PycharmProjects/Reinvent-master-3.2/result/LINK_invent/BTK/process_docking_weight1_custom_sum_contain_oxygen_bond_distance_aromatic_linkinvent_7_9_3/rearranged_h_0161.sdf

> <i_m_source_file_index>
50

> <r_mmod_Potential_Energy-OPLS-2005>
142.89030456543

> <r_mmod_Stretch_Energy-OPLS-2005>
42.8476295471191

> <r_mmod_Bend_Energy-OPLS-2005>
139.840209960938

> <r_mmod_Torsional_Energy-OPLS-2005>
392.986968994141

> <r_mmod_Improper_Torsional_Energy-OPLS-2005>
5.59377670288086

> <r_mmod_Van_der_Waal_Energy-OPLS-2005>
170.159744262695

> <r_mmod_Electrostatic_Energy-OPLS-2005>
-258.635437011719

> <r_mmod_Solvation_Energy-OPLS-2005>
-358.727630615234

> <b_mmod_Minimization_Converged-OPLS-2005>
0

> <r_mmod_RMS_Derivative-OPLS-2005>
0.694185495376587

$$$$
50
                    3D
 Structure written by MMmdl.
173182  0  0  1  0            999 V2000
  -30.7057  -14.4870   20.5050 C   0  0  0  0  0  0
  -30.4142  -12.2969   19.4299 C   0  0  0  0  0  0
  -29.4914  -12.4703   18.2054 C   0  0  0  0  0  0
  -28.0110  -12.3484   18.6197 C   0  0  0  0  0  0
  -27.6529  -13.2113   19.8602 C   0  0  2  0  0  0
  -28.6971  -13.0432   20.9864 C   0  0  0  0  0  0
  -25.2564  -13.8166   20.5673 C   0  0  0  0  0  0
  -24.1807  -13.0457   20.9179 C   0  0  0  0  0  0
  -24.6355  -11.6918   20.8728 C   0  0  0  0  0  0
  -23.9018  -10.4301   21.0401 C   0  0  0  0  0  0
  -24.3582   -9.4230   21.9192 C   0  0  0  0  0  0
  -23.6286   -8.2245   22.0757 C   0  0  0  0  0  0
  -22.4281   -8.0262   21.3537 C   0  0  0  0  0  0
  -21.9897   -9.0224   20.4647 C   0  0  0  0  0  0
  -22.7192  -10.2126   20.3058 C   0  0  0  0  0  0
  -21.6846   -6.0721   22.5271 C   0  0  0  0  0  0
  -21.4003   -6.5629   23.8204 C   0  0  0  0  0  0
  -21.3684   -5.6786   24.9175 C   0  0  0  0  0  0
  -21.6058   -4.3046   24.7224 C   0  0  0  0  0  0
  -21.8814   -3.8128   23.4345 C   0  0  0  0  0  0
  -21.9184   -4.6947   22.3402 C   0  0  0  0  0  0
  -22.7835  -13.5269   21.1857 C   0  0  0  0  0  0
  -22.1657   -4.2131   21.0979 F   0  0  0  0  0  0
  -21.5656   -3.4539   25.7744 F   0  0  0  0  0  0
  -30.0209  -13.3161   20.4129 N   0  0  0  0  0  0
  -26.2977  -12.9345   20.3315 N   0  0  0  0  0  0
  -25.9280  -11.6502   20.5740 N   0  0  0  0  0  0
  -22.0457  -12.8265   22.0414 N   0  0  0  0  0  0
  -25.4344  -15.1882   20.4094 N   0  0  0  0  0  0
  -31.8933  -14.5848   20.1821 O   0  0  0  0  0  0
  -21.6655   -6.8860   21.4229 O   0  0  0  0  0  0
  -22.3538  -14.5581   20.6720 O   0  0  0  0  0  0
  -24.6141  -31.8691   23.2082 C   0  0  0  0  0  0
  -25.9030  -32.4817   23.8385 C   0  0  1  0  0  0
  -27.2315  -27.4293   20.0933 C   0  0  0  0  0  0
  -25.5889  -33.8617   24.2310 N   0  0  0  0  0  0
  -23.4003  -30.4929   21.5502 C   0  0  2  0  0  0
  -24.8438  -28.9533   20.1192 C   0  0  0  0  0  0
  -22.7392  -29.4681   22.4990 C   0  0  0  0  0  0
  -18.0266  -28.1380   22.8490 C   0  0  0  0  0  0
  -24.1479  -36.7319   23.2641 C   0  0  0  0  0  0
  -25.9294  -30.8334   21.3588 C   0  0  0  0  0  0
  -26.0050  -29.4670   20.7069 C   0  0  0  0  0  0
  -27.2019  -28.7156   20.6837 C   0  0  0  0  0  0
  -26.0443  -26.9251   19.5134 C   0  0  0  0  0  0
  -24.8583  -27.6825   19.5222 C   0  0  0  0  0  0
  -23.6074  -29.8226   20.1659 C   0  0  0  0  0  0
  -25.4100  -36.3113   24.0339 C   0  0  1  0  0  0
  -20.5859  -28.3664   23.1321 C   0  0  2  0  0  0
  -20.6751  -26.9401   22.5421 C   0  0  0  0  0  0
  -19.5735  -26.6388   21.5217 C   0  0  0  0  0  0
  -18.1914  -26.7931   22.1622 C   0  0  0  0  0  0
  -19.1519  -28.8835   23.2906 C   0  0  0  0  0  0
  -18.9452  -30.1441   23.8911 C   0  0  0  0  0  0
  -17.6457  -30.6586   24.0567 C   0  0  0  0  0  0
  -25.9033  -34.9481   23.5126 C   0  0  0  0  0  0
  -16.5349  -29.9092   23.6326 C   0  0  0  0  0  0
  -16.7258  -28.6516   23.0341 C   0  0  0  0  0  0
  -26.4454  -31.6596   25.0721 C   0  0  0  0  0  0
  -25.3710  -31.3726   26.1467 C   0  0  0  0  0  0
  -27.0276  -30.3029   24.6104 C   0  0  0  0  0  0
  -27.6033  -32.4315   25.7485 C   0  0  0  0  0  0
  -27.5580  -37.1812   24.8463 C   0  0  0  0  0  0
  -21.4128  -29.3034   22.3728 N   0  0  0  0  0  0
  -26.4282  -37.3801   23.9419 N   0  0  0  0  0  0
  -24.6665  -31.0799   22.0971 N   0  0  0  0  0  0
  -23.4181  -28.8229   23.3032 O   0  0  0  0  0  0
  -28.4241  -26.7334   20.0733 O   0  0  0  0  0  0
  -26.5614  -34.8942   22.4699 O   0  0  0  0  0  0
  -23.5339  -32.1437   23.7479 O   0  0  0  0  0  0
  -29.0335  -22.2520   19.7318 C   0  0  0  0  0  0
  -29.6968  -23.2901   19.0234 C   0  0  0  0  0  0
  -30.9621  -22.9839   18.4438 C   0  0  0  0  0  0
  -31.4858  -21.6813   18.6242 C   0  0  0  0  0  0
  -29.6365  -20.9792   19.8549 C   0  0  0  0  0  0
  -29.1751  -17.7417   19.3662 C   0  0  0  0  0  0
  -29.1969  -17.7304   21.8105 C   0  0  0  0  0  0
  -29.9737  -16.4271   19.3237 C   0  0  0  0  0  0
  -29.9680  -16.3803   21.8305 C   0  0  0  0  0  0
  -29.5850  -18.5717   20.5843 C   0  0  0  0  0  0
  -31.7798  -24.0093   17.6521 C   0  0  0  0  0  0
  -32.8275  -21.2483   18.0547 C   0  0  0  0  0  0
  -28.5186  -24.3436   16.3862 C   0  0  0  0  0  0
  -28.4249  -25.2911   20.1228 C   0  0  0  0  0  0
  -29.0249  -24.6703   18.8296 C   0  0  2  0  0  0
  -30.8358  -20.7212   19.3055 N   0  0  0  0  0  0
  -29.9429  -15.6126   20.5642 N   0  0  0  0  0  0
  -29.0123  -19.9303   20.5617 N   0  0  0  0  0  0
  -28.0068  -24.5741   17.7549 N   0  3  0  0  0  0
  -31.4605  -12.3834   19.1276 H   0  0  0  0  0  0
  -30.3052  -11.2993   19.8590 H   0  0  0  0  0  0
  -29.7261  -11.7172   17.4523 H   0  0  0  0  0  0
  -29.6674  -13.4385   17.7333 H   0  0  0  0  0  0
  -27.8141  -11.2975   18.8340 H   0  0  0  0  0  0
  -27.3638  -12.6104   17.7828 H   0  0  0  0  0  0
  -27.6812  -14.2502   19.5305 H   0  0  0  0  0  0
  -28.6693  -12.0302   21.3911 H   0  0  0  0  0  0
  -28.4729  -13.7110   21.8194 H   0  0  0  0  0  0
  -25.2711   -9.5741   22.4791 H   0  0  0  0  0  0
  -24.0009   -7.4647   22.7484 H   0  0  0  0  0  0
  -21.0827   -8.8721   19.8964 H   0  0  0  0  0  0
  -22.3619  -10.9661   19.6182 H   0  0  0  0  0  0
  -21.1981   -7.6136   23.9710 H   0  0  0  0  0  0
  -21.1535   -6.0516   25.9089 H   0  0  0  0  0  0
  -22.0577   -2.7589   23.2836 H   0  0  0  0  0  0
  -22.4021  -11.9888   22.4763 H   0  0  0  0  0  0
  -21.1102  -13.1338   22.2674 H   0  0  0  0  0  0
  -24.6756  -15.8516   20.5150 H   0  0  0  0  0  0
  -26.3060  -15.6186   20.1246 H   0  0  0  0  0  0
  -26.7103  -32.5531   23.1156 H   0  0  0  0  0  0
  -24.9991  -33.9766   25.0421 H   0  0  0  0  0  0
  -22.6898  -31.3107   21.4099 H   0  0  0  0  0  0
  -23.3753  -35.9642   23.3295 H   0  0  0  0  0  0
  -24.3562  -36.8946   22.2058 H   0  0  0  0  0  0
  -23.7223  -37.6516   23.6664 H   0  0  0  0  0  0
  -26.0395  -31.5979   20.5887 H   0  0  0  0  0  0
  -26.8186  -30.8868   21.9753 H   0  0  0  0  0  0
  -28.1025  -29.1160   21.1288 H   0  0  0  0  0  0
  -26.0073  -25.9559   19.0439 H   0  0  0  0  0  0
  -23.9611  -27.2799   19.0711 H   0  0  0  0  0  0
  -23.7151  -30.5944   19.4035 H   0  0  0  0  0  0
  -22.7308  -29.2422   19.8730 H   0  0  0  0  0  0
  -25.1278  -36.1975   25.0834 H   0  0  0  0  0  0
  -20.9953  -28.3226   24.1441 H   0  0  0  0  0  0
  -20.5648  -26.2279   23.3608 H   0  0  0  0  0  0
  -21.6623  -26.7438   22.1216 H   0  0  0  0  0  0
  -19.6893  -25.6302   21.1237 H   0  0  0  0  0  0
  -19.6688  -27.3200   20.6751 H   0  0  0  0  0  0
  -17.4193  -26.6687   21.4014 H   0  0  0  0  0  0
  -18.0307  -26.0063   22.9004 H   0  0  0  0  0  0
  -19.7929  -30.7244   24.2292 H   0  0  0  0  0  0
  -17.5020  -31.6262   24.5175 H   0  0  0  0  0  0
  -15.5349  -30.3005   23.7648 H   0  0  0  0  0  0
  -15.8653  -28.0851   22.7036 H   0  0  0  0  0  0
  -24.5841  -30.7125   25.7789 H   0  0  0  0  0  0
  -24.8952  -32.2901   26.4947 H   0  0  0  0  0  0
  -25.8039  -30.8846   27.0205 H   0  0  0  0  0  0
  -26.2807  -29.6806   24.1148 H   0  0  0  0  0  0
  -27.4014  -29.7260   25.4576 H   0  0  0  0  0  0
  -27.8666  -30.4334   23.9263 H   0  0  0  0  0  0
  -27.2639  -33.3594   26.2104 H   0  0  0  0  0  0
  -28.3824  -32.6905   25.0302 H   0  0  0  0  0  0
  -28.0720  -31.8410   26.5370 H   0  0  0  0  0  0
  -28.2603  -38.0104   24.7513 H   0  0  0  0  0  0
  -28.1071  -36.2643   24.6274 H   0  0  0  0  0  0
  -27.2305  -37.1433   25.8866 H   0  0  0  0  0  0
  -20.9287  -29.8756   21.6944 H   0  0  0  0  0  0
  -26.0183  -38.2884   24.1417 H   0  0  0  0  0  0
  -28.0652  -22.4287   20.1804 H   0  0  0  0  0  0
  -28.1051  -17.5292   19.3871 H   0  0  0  0  0  0
  -29.3543  -18.2998   18.4461 H   0  0  0  0  0  0
  -29.4037  -18.2780   22.7307 H   0  0  0  0  0  0
  -28.1222  -17.5333   21.8116 H   0  0  0  0  0  0
  -31.0062  -16.6825   19.0768 H   0  0  0  0  0  0
  -29.6078  -15.8248   18.4911 H   0  0  0  0  0  0
  -29.5713  -15.7531   22.6310 H   0  0  0  0  0  0
  -31.0093  -16.5828   22.0927 H   0  0  0  0  0  0
  -30.6718  -18.6647   20.6043 H   0  0  0  0  0  0
  -31.1788  -24.7266   17.0987 H   0  0  0  0  0  0
  -32.4016  -23.5323   16.8951 H   0  0  0  0  0  0
  -32.4367  -24.5645   18.3235 H   0  0  0  0  0  0
  -33.5938  -22.0052   18.2247 H   0  0  0  0  0  0
  -32.7444  -21.0731   16.9819 H   0  0  0  0  0  0
  -33.1764  -20.3232   18.5149 H   0  0  0  0  0  0
  -27.6889  -24.2660   15.6837 H   0  0  0  0  0  0
  -29.0930  -23.4198   16.3128 H   0  0  0  0  0  0
  -29.1477  -25.1715   16.0576 H   0  0  0  0  0  0
  -29.0882  -25.0442   20.9521 H   0  0  0  0  0  0
  -27.4646  -24.8490   20.3919 H   0  0  0  0  0  0
  -29.7741  -25.3960   18.5204 H   0  0  0  0  0  0
  -28.1009  -20.0867   20.9777 H   0  0  0  0  0  0
  -27.3723  -23.8245   17.9830 H   0  0  0  0  0  0
  -27.4852  -25.4345   17.7300 H   0  0  0  0  0  0
  1 25  1  0  0  0
  1 30  2  0  0  0
  1 87  1  0  0  0
  2  3  1  0  0  0
  2 25  1  0  0  0
  2 90  1  0  0  0
  2 91  1  0  0  0
  3  4  1  0  0  0
  3 92  1  0  0  0
  3 93  1  0  0  0
  4  5  1  0  0  0
  4 94  1  0  0  0
  4 95  1  0  0  0
  5  6  1  0  0  0
  5 26  1  0  0  0
  5 96  1  0  0  0
  6 25  1  0  0  0
  6 97  1  0  0  0
  6 98  1  0  0  0
  7  8  2  0  0  0
  7 26  1  0  0  0
  7 29  1  0  0  0
  8  9  1  0  0  0
  8 22  1  0  0  0
  9 10  1  0  0  0
  9 27  2  0  0  0
 10 11  2  0  0  0
 10 15  1  0  0  0
 11 12  1  0  0  0
 11 99  1  0  0  0
 12 13  2  0  0  0
 12100  1  0  0  0
 13 14  1  0  0  0
 13 31  1  0  0  0
 14 15  2  0  0  0
 14101  1  0  0  0
 15102  1  0  0  0
 16 17  2  0  0  0
 16 21  1  0  0  0
 16 31  1  0  0  0
 17 18  1  0  0  0
 17103  1  0  0  0
 18 19  2  0  0  0
 18104  1  0  0  0
 19 20  1  0  0  0
 19 24  1  0  0  0
 20 21  2  0  0  0
 20105  1  0  0  0
 21 23  1  0  0  0
 22 28  1  0  0  0
 22 32  2  0  0  0
 26 27  1  0  0  0
 28106  1  0  0  0
 28107  1  0  0  0
 29108  1  0  0  0
 29109  1  0  0  0
 33 34  1  0  0  0
 33 66  1  0  0  0
 33 70  2  0  0  0
 34 36  1  0  0  0
 34 59  1  0  0  0
 34110  1  0  0  0
 35 44  2  0  0  0
 35 45  1  0  0  0
 35 68  1  0  0  0
 36 56  1  0  0  0
 36111  1  0  0  0
 37 39  1  0  0  0
 37 47  1  0  0  0
 37 66  1  0  0  0
 37112  1  0  0  0
 38 43  2  0  0  0
 38 46  1  0  0  0
 38 47  1  0  0  0
 39 64  1  0  0  0
 39 67  2  0  0  0
 40 52  1  0  0  0
 40 53  2  0  0  0
 40 58  1  0  0  0
 41113  1  0  0  0
 41114  1  0  0  0
 41115  1  0  0  0
 41 48  1  0  0  0
 42 43  1  0  0  0
 42 66  1  0  0  0
 42116  1  0  0  0
 42117  1  0  0  0
 43 44  1  0  0  0
 44118  1  0  0  0
 45 46  2  0  0  0
 45119  1  0  0  0
 46120  1  0  0  0
 47121  1  0  0  0
 47122  1  0  0  0
 48 56  1  0  0  0
 48 65  1  0  0  0
 48123  1  0  0  0
 49 50  1  0  0  0
 49 53  1  0  0  0
 49 64  1  0  0  0
 49124  1  0  0  0
 50 51  1  0  0  0
 50125  1  0  0  0
 50126  1  0  0  0
 51 52  1  0  0  0
 51127  1  0  0  0
 51128  1  0  0  0
 52129  1  0  0  0
 52130  1  0  0  0
 53 54  1  0  0  0
 54 55  2  0  0  0
 54131  1  0  0  0
 55 57  1  0  0  0
 55132  1  0  0  0
 56 69  2  0  0  0
 57 58  2  0  0  0
 57133  1  0  0  0
 58134  1  0  0  0
 59 60  1  0  0  0
 59 61  1  0  0  0
 59 62  1  0  0  0
 60135  1  0  0  0
 60136  1  0  0  0
 60137  1  0  0  0
 61138  1  0  0  0
 61139  1  0  0  0
 61140  1  0  0  0
 62141  1  0  0  0
 62142  1  0  0  0
 62143  1  0  0  0
 63 65  1  0  0  0
 63144  1  0  0  0
 63145  1  0  0  0
 63146  1  0  0  0
 64147  1  0  0  0
 65148  1  0  0  0
 68 84  1  0  0  0
 71 72  2  0  0  0
 71 75  1  0  0  0
 71149  1  0  0  0
 72 73  1  0  0  0
 72 85  1  0  0  0
 73 74  2  0  0  0
 73 81  1  0  0  0
 74 82  1  0  0  0
 74 86  1  0  0  0
 75 86  2  0  0  0
 75 88  1  0  0  0
 76 78  1  0  0  0
 76 80  1  0  0  0
 76150  1  0  0  0
 76151  1  0  0  0
 77 79  1  0  0  0
 77 80  1  0  0  0
 77152  1  0  0  0
 77153  1  0  0  0
 78 87  1  0  0  0
 78154  1  0  0  0
 78155  1  0  0  0
 79 87  1  0  0  0
 79156  1  0  0  0
 79157  1  0  0  0
 80 88  1  0  0  0
 80158  1  0  0  0
 81159  1  0  0  0
 81160  1  0  0  0
 81161  1  0  0  0
 82162  1  0  0  0
 82163  1  0  0  0
 82164  1  0  0  0
 83 89  1  0  0  0
 83165  1  0  0  0
 83166  1  0  0  0
 83167  1  0  0  0
 84168  1  0  0  0
 84169  1  0  0  0
 84 85  1  0  0  0
 85 89  1  0  0  0
 85170  1  0  0  0
 88171  1  0  0  0
 89172  1  0  0  0
 89173  1  0  0  0
M  CHG  1  89   1
M  ISO  4   1 100  68 101  84 101  87 100
M  END
> <chiral flag>
0

> <version>
0

> <s_m_source_file>
/data/baiqing/PycharmProjects/Reinvent-master-3.2/result/LINK_invent/BTK/process_docking_weight1_custom_sum_contain_oxygen_bond_distance_aromatic_linkinvent_7_9_3/rearranged_h_0161.sdf

> <i_m_source_file_index>
51

> <r_mmod_Potential_Energy-OPLS-2005>
-244.574996948242

> <r_mmod_Stretch_Energy-OPLS-2005>
44.9995346069336

> <r_mmod_Bend_Energy-OPLS-2005>
132.589569091797

> <r_mmod_Torsional_Energy-OPLS-2005>
321.372192382812

> <r_mmod_Improper_Torsional_Energy-OPLS-2005>
14.9632520675659

> <r_mmod_Van_der_Waal_Energy-OPLS-2005>
162.547546386719

> <r_mmod_Electrostatic_Energy-OPLS-2005>
-477.660522460938

> <r_mmod_Solvation_Energy-OPLS-2005>
-462.833374023438

> <b_mmod_Minimization_Converged-OPLS-2005>
0

> <r_mmod_RMS_Derivative-OPLS-2005>
2.26257991790771

$$$$
51
                    3D
 Structure written by MMmdl.
169179  0  0  1  0            999 V2000
  -30.5812  -14.7254   20.4649 C   0  0  0  0  0  0
  -30.4412  -12.4440   19.4515 C   0  0  0  0  0  0
  -29.5118  -12.5038   18.2190 C   0  0  0  0  0  0
  -28.0336  -12.3336   18.6321 C   0  0  0  0  0  0
  -27.6400  -13.2224   19.8424 C   0  0  2  0  0  0
  -28.6876  -13.1241   20.9705 C   0  0  0  0  0  0
  -25.2515  -13.8176   20.5720 C   0  0  0  0  0  0
  -24.1795  -13.0429   20.9223 C   0  0  0  0  0  0
  -24.6366  -11.6903   20.8721 C   0  0  0  0  0  0
  -23.9027  -10.4288   21.0395 C   0  0  0  0  0  0
  -24.3580   -9.4217   21.9172 C   0  0  0  0  0  0
  -23.6282   -8.2241   22.0734 C   0  0  0  0  0  0
  -22.4263   -8.0261   21.3538 C   0  0  0  0  0  0
  -21.9894   -9.0224   20.4631 C   0  0  0  0  0  0
  -22.7201  -10.2118   20.3046 C   0  0  0  0  0  0
  -21.6847   -6.0735   22.5288 C   0  0  0  0  0  0
  -21.4008   -6.5636   23.8224 C   0  0  0  0  0  0
  -21.3665   -5.6785   24.9181 C   0  0  0  0  0  0
  -21.6048   -4.3052   24.7225 C   0  0  0  0  0  0
  -21.8811   -3.8146   23.4339 C   0  0  0  0  0  0
  -21.9194   -4.6961   22.3405 C   0  0  0  0  0  0
  -22.7812  -13.5222   21.1886 C   0  0  0  0  0  0
  -22.1662   -4.2156   21.0975 F   0  0  0  0  0  0
  -21.5636   -3.4525   25.7730 F   0  0  0  0  0  0
  -29.9855  -13.4898   20.3866 N   0  0  0  0  0  0
  -26.2914  -12.9359   20.3226 N   0  0  0  0  0  0
  -25.9287  -11.6514   20.5690 N   0  0  0  0  0  0
  -22.0428  -12.8216   22.0419 N   0  0  0  0  0  0
  -25.4194  -15.1906   20.4250 N   0  0  0  0  0  0
  -31.7839  -14.8639   20.2309 O   0  0  0  0  0  0
  -21.6635   -6.8857   21.4246 O   0  0  0  0  0  0
  -22.3508  -14.5534   20.6734 O   0  0  0  0  0  0
  -24.6308  -31.8589   23.1958 C   0  0  0  0  0  0
  -25.9128  -32.4776   23.8316 C   0  0  1  0  0  0
  -27.2123  -27.2689   20.1253 C   0  0  0  0  0  0
  -25.5915  -33.8567   24.2255 N   0  0  0  0  0  0
  -23.4265  -30.4823   21.5418 C   0  0  2  0  0  0
  -24.8708  -28.9359   20.1085 C   0  0  0  0  0  0
  -22.7498  -29.4632   22.4908 C   0  0  0  0  0  0
  -18.0296  -28.1402   22.8491 C   0  0  0  0  0  0
  -24.1485  -36.7298   23.2636 C   0  0  0  0  0  0
  -25.9700  -30.7801   21.3670 C   0  0  0  0  0  0
  -26.0447  -29.4010   20.7142 C   0  0  0  0  0  0
  -27.2197  -28.5800   20.7119 C   0  0  0  0  0  0
  -26.0117  -26.8782   19.4859 C   0  0  0  0  0  0
  -24.8595  -27.6826   19.4826 C   0  0  0  0  0  0
  -23.6417  -29.8211   20.1564 C   0  0  0  0  0  0
  -25.4102  -36.3080   24.0331 C   0  0  1  0  0  0
  -20.5898  -28.3717   23.1275 C   0  0  2  0  0  0
  -20.6789  -26.9433   22.5417 C   0  0  0  0  0  0
  -19.5756  -26.6393   21.5231 C   0  0  0  0  0  0
  -18.1939  -26.7939   22.1641 C   0  0  0  0  0  0
  -19.1545  -28.8871   23.2880 C   0  0  0  0  0  0
  -18.9462  -30.1468   23.8907 C   0  0  0  0  0  0
  -17.6462  -30.6602   24.0563 C   0  0  0  0  0  0
  -25.9048  -34.9457   23.5099 C   0  0  0  0  0  0
  -16.5355  -29.9103   23.6318 C   0  0  0  0  0  0
  -16.7283  -28.6516   23.0348 C   0  0  0  0  0  0
  -26.4487  -31.6563   25.0686 C   0  0  0  0  0  0
  -25.3697  -31.3699   26.1392 C   0  0  0  0  0  0
  -27.0308  -30.2985   24.6108 C   0  0  0  0  0  0
  -27.6048  -32.4271   25.7477 C   0  0  0  0  0  0
  -27.5571  -37.1805   24.8458 C   0  0  0  0  0  0
  -21.4207  -29.3073   22.3666 N   0  0  0  0  0  0
  -26.4274  -37.3780   23.9418 N   0  0  0  0  0  0
  -24.6960  -31.0561   22.0932 N   0  0  0  0  0  0
  -23.4209  -28.8182   23.3002 O   0  0  0  0  0  0
  -28.2973  -26.3593   20.1849 O   0  0  0  0  0  0
  -26.5634  -34.8929   22.4674 O   0  0  0  0  0  0
  -23.5458  -32.1412   23.7252 O   0  0  0  0  0  0
  -27.9878  -16.9238   22.7477 C   0  0  0  0  0  0
  -26.8240  -17.4633   23.3297 C   0  0  0  0  0  0
  -27.2141  -19.5851   22.1702 C   0  0  0  0  0  0
  -28.7485  -17.7232   21.8712 C   0  0  0  0  0  0
  -26.4295  -18.7861   23.0311 C   0  0  0  0  0  0
  -28.3943  -19.0588   21.5965 C   0  0  0  0  0  0
  -30.2935  -21.7618   19.5371 C   0  0  0  0  0  0
  -29.9209  -23.2575   19.3238 C   0  0  0  0  0  0
  -28.3920  -22.2727   20.8826 C   0  0  0  0  0  0
  -29.9474  -18.4936   20.0589 C   0  0  0  0  0  0
  -29.9271  -17.2458   21.0582 C   0  0  2  0  0  0
  -29.0296  -21.0617   20.0610 C   0  0  2  0  0  0
  -29.0209  -23.6983   20.5036 C   0  0  1  0  0  0
  -25.1503  -19.3503   23.6182 C   0  0  0  0  0  0
  -29.8836  -24.1747   21.6883 C   0  0  0  0  0  0
  -27.9782  -24.8891   20.1479 C   0  0  0  0  0  0
  -29.2766  -19.6950   20.6949 N   0  0  0  0  0  0
  -29.7327  -15.8043   20.6048 N   0  0  0  0  0  0
  -31.4807  -12.5899   19.1515 H   0  0  0  0  0  0
  -30.3947  -11.4625   19.9266 H   0  0  0  0  0  0
  -29.7912  -11.7324   17.5005 H   0  0  0  0  0  0
  -29.6425  -13.4589   17.7066 H   0  0  0  0  0  0
  -27.8794  -11.2835   18.8820 H   0  0  0  0  0  0
  -27.3798  -12.5384   17.7838 H   0  0  0  0  0  0
  -27.6367  -14.2465   19.4706 H   0  0  0  0  0  0
  -28.7203  -12.1132   21.3815 H   0  0  0  0  0  0
  -28.4254  -13.7822   21.8003 H   0  0  0  0  0  0
  -25.2719   -9.5727   22.4751 H   0  0  0  0  0  0
  -24.0004   -7.4637   22.7447 H   0  0  0  0  0  0
  -21.0836   -8.8710   19.8933 H   0  0  0  0  0  0
  -22.3637  -10.9638   19.6150 H   0  0  0  0  0  0
  -21.1984   -7.6143   23.9730 H   0  0  0  0  0  0
  -21.1502   -6.0508   25.9087 H   0  0  0  0  0  0
  -22.0589   -2.7611   23.2828 H   0  0  0  0  0  0
  -22.4008  -11.9878   22.4840 H   0  0  0  0  0  0
  -21.1027  -13.1246   22.2560 H   0  0  0  0  0  0
  -24.6600  -15.8414   20.5876 H   0  0  0  0  0  0
  -26.2719  -15.6496   20.1367 H   0  0  0  0  0  0
  -26.7206  -32.5453   23.1075 H   0  0  0  0  0  0
  -25.0009  -33.9706   25.0364 H   0  0  0  0  0  0
  -22.7226  -31.3041   21.3976 H   0  0  0  0  0  0
  -23.3747  -35.9629   23.3276 H   0  0  0  0  0  0
  -24.3595  -36.8936   22.2057 H   0  0  0  0  0  0
  -23.7232  -37.6490   23.6670 H   0  0  0  0  0  0
  -26.0847  -31.5362   20.5884 H   0  0  0  0  0  0
  -26.8576  -30.8482   21.9836 H   0  0  0  0  0  0
  -28.1154  -28.9300   21.2063 H   0  0  0  0  0  0
  -25.9228  -25.9250   18.9896 H   0  0  0  0  0  0
  -23.9613  -27.3237   18.9996 H   0  0  0  0  0  0
  -23.7602  -30.5998   19.4007 H   0  0  0  0  0  0
  -22.7607  -29.2522   19.8541 H   0  0  0  0  0  0
  -25.1275  -36.1933   25.0823 H   0  0  0  0  0  0
  -20.9997  -28.3305   24.1391 H   0  0  0  0  0  0
  -20.5714  -26.2327   23.3632 H   0  0  0  0  0  0
  -21.6651  -26.7477   22.1194 H   0  0  0  0  0  0
  -19.6915  -25.6306   21.1264 H   0  0  0  0  0  0
  -19.6681  -27.3199   20.6757 H   0  0  0  0  0  0
  -17.4212  -26.6694   21.4045 H   0  0  0  0  0  0
  -18.0316  -26.0094   22.9045 H   0  0  0  0  0  0
  -19.7942  -30.7270   24.2289 H   0  0  0  0  0  0
  -17.5025  -31.6285   24.5161 H   0  0  0  0  0  0
  -15.5355  -30.3011   23.7625 H   0  0  0  0  0  0
  -15.8691  -28.0839   22.7047 H   0  0  0  0  0  0
  -24.5912  -30.7005   25.7710 H   0  0  0  0  0  0
  -24.8834  -32.2859   26.4761 H   0  0  0  0  0  0
  -25.8010  -30.8925   27.0202 H   0  0  0  0  0  0
  -26.2867  -29.6758   24.1127 H   0  0  0  0  0  0
  -27.4009  -29.7209   25.4590 H   0  0  0  0  0  0
  -27.8734  -30.4262   23.9306 H   0  0  0  0  0  0
  -27.2676  -33.3596   26.2013 H   0  0  0  0  0  0
  -28.3897  -32.6774   25.0327 H   0  0  0  0  0  0
  -28.0662  -31.8399   26.5428 H   0  0  0  0  0  0
  -28.2561  -38.0127   24.7525 H   0  0  0  0  0  0
  -28.1093  -36.2658   24.6247 H   0  0  0  0  0  0
  -27.2307  -37.1408   25.8865 H   0  0  0  0  0  0
  -20.9378  -29.8795   21.6882 H   0  0  0  0  0  0
  -26.0152  -38.2851   24.1429 H   0  0  0  0  0  0
  -28.2699  -15.9022   22.9539 H   0  0  0  0  0  0
  -26.2188  -16.8494   23.9840 H   0  0  0  0  0  0
  -26.8648  -20.5781   21.9525 H   0  0  0  0  0  0
  -31.0917  -21.6923   20.2773 H   0  0  0  0  0  0
  -30.6621  -21.3014   18.6191 H   0  0  0  0  0  0
  -29.3683  -23.3429   18.3870 H   0  0  0  0  0  0
  -30.8050  -23.8880   19.2214 H   0  0  0  0  0  0
  -28.5098  -22.0994   21.9528 H   0  0  0  0  0  0
  -27.3186  -22.3012   20.6977 H   0  0  0  0  0  0
  -29.3908  -18.2456   19.1537 H   0  0  0  0  0  0
  -30.9662  -18.7279   19.7463 H   0  0  0  0  0  0
  -30.8069  -17.2893   21.7024 H   0  0  0  0  0  0
  -28.3743  -20.8872   19.2049 H   0  0  0  0  0  0
  -24.5072  -18.5574   24.0026 H   0  0  0  0  0  0
  -24.5874  -19.8968   22.8604 H   0  0  0  0  0  0
  -25.3739  -20.0329   24.4381 H   0  0  0  0  0  0
  -30.6134  -23.4202   21.9859 H   0  0  0  0  0  0
  -29.2664  -24.3892   22.5619 H   0  0  0  0  0  0
  -30.4332  -25.0840   21.4427 H   0  0  0  0  0  0
  -27.1370  -24.7571   20.8304 H   0  0  0  0  0  0
  -27.5929  -24.6581   19.1558 H   0  0  0  0  0  0
  -28.7635  -15.5340   20.5865 H   0  0  0  0  0  0
  1 25  1  0  0  0
  1 30  2  0  0  0
  1 88  1  0  0  0
  2  3  1  0  0  0
  2 25  1  0  0  0
  2 89  1  0  0  0
  2 90  1  0  0  0
  3  4  1  0  0  0
  3 91  1  0  0  0
  3 92  1  0  0  0
  4  5  1  0  0  0
  4 93  1  0  0  0
  4 94  1  0  0  0
  5  6  1  0  0  0
  5 26  1  0  0  0
  5 95  1  0  0  0
  6 25  1  0  0  0
  6 96  1  0  0  0
  6 97  1  0  0  0
  7  8  2  0  0  0
  7 26  1  0  0  0
  7 29  1  0  0  0
  8  9  1  0  0  0
  8 22  1  0  0  0
  9 10  1  0  0  0
  9 27  2  0  0  0
 10 11  2  0  0  0
 10 15  1  0  0  0
 11 12  1  0  0  0
 11 98  1  0  0  0
 12 13  2  0  0  0
 12 99  1  0  0  0
 13 14  1  0  0  0
 13 31  1  0  0  0
 14 15  2  0  0  0
 14100  1  0  0  0
 15101  1  0  0  0
 16 17  2  0  0  0
 16 21  1  0  0  0
 16 31  1  0  0  0
 17 18  1  0  0  0
 17102  1  0  0  0
 18 19  2  0  0  0
 18103  1  0  0  0
 19 20  1  0  0  0
 19 24  1  0  0  0
 20 21  2  0  0  0
 20104  1  0  0  0
 21 23  1  0  0  0
 22 28  1  0  0  0
 22 32  2  0  0  0
 26 27  1  0  0  0
 28105  1  0  0  0
 28106  1  0  0  0
 29107  1  0  0  0
 29108  1  0  0  0
 33 34  1  0  0  0
 33 66  1  0  0  0
 33 70  2  0  0  0
 34 36  1  0  0  0
 34 59  1  0  0  0
 34109  1  0  0  0
 35 44  2  0  0  0
 35 45  1  0  0  0
 35 68  1  0  0  0
 36 56  1  0  0  0
 36110  1  0  0  0
 37 39  1  0  0  0
 37 47  1  0  0  0
 37 66  1  0  0  0
 37111  1  0  0  0
 38 43  2  0  0  0
 38 46  1  0  0  0
 38 47  1  0  0  0
 39 64  1  0  0  0
 39 67  2  0  0  0
 40 52  1  0  0  0
 40 53  2  0  0  0
 40 58  1  0  0  0
 41112  1  0  0  0
 41113  1  0  0  0
 41114  1  0  0  0
 41 48  1  0  0  0
 42 43  1  0  0  0
 42 66  1  0  0  0
 42115  1  0  0  0
 42116  1  0  0  0
 43 44  1  0  0  0
 44117  1  0  0  0
 45 46  2  0  0  0
 45118  1  0  0  0
 46119  1  0  0  0
 47120  1  0  0  0
 47121  1  0  0  0
 48 56  1  0  0  0
 48 65  1  0  0  0
 48122  1  0  0  0
 49 50  1  0  0  0
 49 53  1  0  0  0
 49 64  1  0  0  0
 49123  1  0  0  0
 50 51  1  0  0  0
 50124  1  0  0  0
 50125  1  0  0  0
 51 52  1  0  0  0
 51126  1  0  0  0
 51127  1  0  0  0
 52128  1  0  0  0
 52129  1  0  0  0
 53 54  1  0  0  0
 54 55  2  0  0  0
 54130  1  0  0  0
 55 57  1  0  0  0
 55131  1  0  0  0
 56 69  2  0  0  0
 57 58  2  0  0  0
 57132  1  0  0  0
 58133  1  0  0  0
 59 60  1  0  0  0
 59 61  1  0  0  0
 59 62  1  0  0  0
 60134  1  0  0  0
 60135  1  0  0  0
 60136  1  0  0  0
 61137  1  0  0  0
 61138  1  0  0  0
 61139  1  0  0  0
 62140  1  0  0  0
 62141  1  0  0  0
 62142  1  0  0  0
 63 65  1  0  0  0
 63143  1  0  0  0
 63144  1  0  0  0
 63145  1  0  0  0
 64146  1  0  0  0
 65147  1  0  0  0
 68 86  1  0  0  0
 71 72  2  0  0  0
 71 74  1  0  0  0
 71148  1  0  0  0
 72 75  1  0  0  0
 72149  1  0  0  0
 73 75  2  0  0  0
 73 76  1  0  0  0
 73150  1  0  0  0
 74 76  2  0  0  0
 74 81  1  0  0  0
 75 84  1  0  0  0
 76 87  1  0  0  0
 77 78  1  0  0  0
 77 82  1  0  0  0
 77151  1  0  0  0
 77152  1  0  0  0
 78 83  1  0  0  0
 78153  1  0  0  0
 78154  1  0  0  0
 79 82  1  0  0  0
 79 83  1  0  0  0
 79155  1  0  0  0
 79156  1  0  0  0
 80 81  1  0  0  0
 80 87  1  0  0  0
 80157  1  0  0  0
 80158  1  0  0  0
 81 88  1  0  0  0
 81159  1  0  0  0
 82 87  1  0  0  0
 82160  1  0  0  0
 83 85  1  0  0  0
 83 86  1  0  0  0
 84161  1  0  0  0
 84162  1  0  0  0
 84163  1  0  0  0
 85164  1  0  0  0
 85165  1  0  0  0
 85166  1  0  0  0
 86167  1  0  0  0
 86168  1  0  0  0
 88169  1  0  0  0
M  ISO  4   1 100  68 101  86 101  88 100
M  END
> <chiral flag>
0

> <version>
0

> <s_m_source_file>
/data/baiqing/PycharmProjects/Reinvent-master-3.2/result/LINK_invent/BTK/process_docking_weight1_custom_sum_contain_oxygen_bond_distance_aromatic_linkinvent_7_9_3/rearranged_h_0161.sdf

> <i_m_source_file_index>
52

> <r_mmod_Potential_Energy-OPLS-2005>
219.366806030273

> <r_mmod_Stretch_Energy-OPLS-2005>
113.489799499512

> <r_mmod_Bend_Energy-OPLS-2005>
258.973815917969

> <r_mmod_Torsional_Energy-OPLS-2005>
274.118133544922

> <r_mmod_Improper_Torsional_Energy-OPLS-2005>
7.09554529190063

> <r_mmod_Van_der_Waal_Energy-OPLS-2005>
132.175445556641

> <r_mmod_Electrostatic_Energy-OPLS-2005>
-434.779296875

> <r_mmod_Solvation_Energy-OPLS-2005>
-215.205276489258

> <b_mmod_Minimization_Converged-OPLS-2005>
0

> <r_mmod_RMS_Derivative-OPLS-2005>
2.39421439170837

$$$$
52
                    3D
 Structure written by MMmdl.
168177  0  0  1  0            999 V2000
  -30.7298  -14.5699   20.5233 C   0  0  0  0  0  0
  -30.4065  -12.3669   19.4379 C   0  0  0  0  0  0
  -29.4800  -12.4848   18.2118 C   0  0  0  0  0  0
  -28.0107  -12.3040   18.6356 C   0  0  0  0  0  0
  -27.6389  -13.1843   19.8554 C   0  0  2  0  0  0
  -28.6968  -13.0594   20.9837 C   0  0  0  0  0  0
  -25.2520  -13.8093   20.5683 C   0  0  0  0  0  0
  -24.1778  -13.0398   20.9221 C   0  0  0  0  0  0
  -24.6313  -11.6862   20.8784 C   0  0  0  0  0  0
  -23.8995  -10.4269   21.0445 C   0  0  0  0  0  0
  -24.3569   -9.4189   21.9208 C   0  0  0  0  0  0
  -23.6262   -8.2218   22.0760 C   0  0  0  0  0  0
  -22.4247   -8.0264   21.3544 C   0  0  0  0  0  0
  -21.9875   -9.0236   20.4649 C   0  0  0  0  0  0
  -22.7184  -10.2119   20.3070 C   0  0  0  0  0  0
  -21.6844   -6.0732   22.5286 C   0  0  0  0  0  0
  -21.4006   -6.5638   23.8221 C   0  0  0  0  0  0
  -21.3644   -5.6788   24.9182 C   0  0  0  0  0  0
  -21.6036   -4.3054   24.7235 C   0  0  0  0  0  0
  -21.8821   -3.8147   23.4357 C   0  0  0  0  0  0
  -21.9185   -4.6963   22.3412 C   0  0  0  0  0  0
  -22.7810  -13.5228   21.1866 C   0  0  0  0  0  0
  -22.1652   -4.2150   21.0990 F   0  0  0  0  0  0
  -21.5620   -3.4536   25.7747 F   0  0  0  0  0  0
  -29.9985  -13.4121   20.4031 N   0  0  0  0  0  0
  -26.2904  -12.9195   20.3342 N   0  0  0  0  0  0
  -25.9228  -11.6390   20.5820 N   0  0  0  0  0  0
  -22.0423  -12.8248   22.0415 N   0  0  0  0  0  0
  -25.4235  -15.1808   20.4043 N   0  0  0  0  0  0
  -31.9112  -14.5605   20.1631 O   0  0  0  0  0  0
  -21.6615   -6.8866   21.4243 O   0  0  0  0  0  0
  -22.3525  -14.5545   20.6708 O   0  0  0  0  0  0
  -24.6166  -31.8653   23.2086 C   0  0  0  0  0  0
  -25.9053  -32.4807   23.8380 C   0  0  1  0  0  0
  -27.2339  -27.4168   20.0968 C   0  0  0  0  0  0
  -25.5904  -33.8608   24.2306 N   0  0  0  0  0  0
  -23.4046  -30.4900   21.5485 C   0  0  2  0  0  0
  -24.8484  -28.9517   20.1148 C   0  0  0  0  0  0
  -22.7416  -29.4650   22.4971 C   0  0  0  0  0  0
  -18.0273  -28.1397   22.8484 C   0  0  0  0  0  0
  -24.1492  -36.7320   23.2636 C   0  0  0  0  0  0
  -25.9331  -30.8278   21.3599 C   0  0  0  0  0  0
  -26.0086  -29.4598   20.7103 C   0  0  0  0  0  0
  -27.2002  -28.6984   20.6985 C   0  0  0  0  0  0
  -26.0510  -26.9255   19.4970 C   0  0  0  0  0  0
  -24.8649  -27.6846   19.5084 C   0  0  0  0  0  0
  -23.6138  -29.8230   20.1630 C   0  0  0  0  0  0
  -25.4110  -36.3105   24.0333 C   0  0  1  0  0  0
  -20.5864  -28.3677   23.1319 C   0  0  2  0  0  0
  -20.6770  -26.9409   22.5428 C   0  0  0  0  0  0
  -19.5747  -26.6393   21.5227 C   0  0  0  0  0  0
  -18.1916  -26.7939   22.1625 C   0  0  0  0  0  0
  -19.1523  -28.8851   23.2898 C   0  0  0  0  0  0
  -18.9452  -30.1451   23.8915 C   0  0  0  0  0  0
  -17.6456  -30.6594   24.0574 C   0  0  0  0  0  0
  -25.9047  -34.9470   23.5123 C   0  0  0  0  0  0
  -16.5345  -29.9099   23.6338 C   0  0  0  0  0  0
  -16.7261  -28.6525   23.0340 C   0  0  0  0  0  0
  -26.4476  -31.6589   25.0711 C   0  0  0  0  0  0
  -25.3744  -31.3690   26.1461 C   0  0  0  0  0  0
  -27.0306  -30.3037   24.6082 C   0  0  0  0  0  0
  -27.6056  -32.4302   25.7475 C   0  0  0  0  0  0
  -27.5576  -37.1808   24.8457 C   0  0  0  0  0  0
  -21.4140  -29.3041   22.3718 N   0  0  0  0  0  0
  -26.4290  -37.3793   23.9411 N   0  0  0  0  0  0
  -24.6705  -31.0760   22.0981 N   0  0  0  0  0  0
  -23.4179  -28.8190   23.3019 O   0  0  0  0  0  0
  -28.4234  -26.7106   20.1117 O   0  0  0  0  0  0
  -26.5610  -34.8922   22.4683 O   0  0  0  0  0  0
  -23.5364  -32.1388   23.7494 O   0  0  0  0  0  0
  -27.5798  -22.0636   19.8678 C   0  0  0  0  0  0
  -27.9547  -20.6957   19.7488 C   0  0  0  0  0  0
  -28.2720  -22.8905   20.7929 C   0  0  0  0  0  0
  -28.9457  -20.1625   20.6182 C   0  0  0  0  0  0
  -29.2698  -22.2716   21.5877 C   0  0  0  0  0  0
  -30.6297  -18.3193   21.4270 C   0  0  0  0  0  0
  -28.3625  -17.6510   20.9991 C   0  0  0  0  0  0
  -31.1573  -16.8864   21.1564 C   0  0  0  0  0  0
  -28.7805  -16.1974   20.6557 C   0  0  0  0  0  0
  -29.4109  -18.6784   20.5626 C   0  0  0  0  0  0
  -26.4580  -22.6207   18.9938 C   0  0  0  0  0  0
  -27.2937  -19.8268   18.6797 C   0  0  0  0  0  0
  -30.1216  -23.0499   22.5757 C   0  0  0  0  0  0
  -27.9501  -24.3980   20.9506 C   0  0  0  0  0  0
  -28.4605  -25.3040   19.7980 C   0  0  0  0  0  0
  -29.5595  -20.9535   21.5242 N   0  0  0  0  0  0
  -30.1779  -15.7732   20.9396 N   0  0  0  0  0  0
  -31.4467  -12.4484   19.1191 H   0  0  0  0  0  0
  -30.3238  -11.3777   19.8908 H   0  0  0  0  0  0
  -29.7483  -11.7373   17.4642 H   0  0  0  0  0  0
  -29.6139  -13.4579   17.7368 H   0  0  0  0  0  0
  -27.8637  -11.2521   18.8828 H   0  0  0  0  0  0
  -27.3457  -12.5136   17.7968 H   0  0  0  0  0  0
  -27.6298  -14.1924   19.4604 H   0  0  0  0  0  0
  -28.7239  -12.0333   21.3532 H   0  0  0  0  0  0
  -28.4623  -13.6565   21.8627 H   0  0  0  0  0  0
  -25.2713   -9.5674   22.4777 H   0  0  0  0  0  0
  -23.9978   -7.4601   22.7468 H   0  0  0  0  0  0
  -21.0813   -8.8750   19.8947 H   0  0  0  0  0  0
  -22.3652  -10.9663   19.6183 H   0  0  0  0  0  0
  -21.2000   -7.6144   23.9732 H   0  0  0  0  0  0
  -21.1453   -6.0516   25.9085 H   0  0  0  0  0  0
  -22.0612   -2.7611   23.2860 H   0  0  0  0  0  0
  -22.4003  -11.9919   22.4854 H   0  0  0  0  0  0
  -21.1042  -13.1314   22.2576 H   0  0  0  0  0  0
  -24.6612  -15.8388   20.5226 H   0  0  0  0  0  0
  -26.2787  -15.6194   20.0915 H   0  0  0  0  0  0
  -26.7106  -32.5517   23.1131 H   0  0  0  0  0  0
  -25.0050  -33.9767   25.0448 H   0  0  0  0  0  0
  -22.6949  -31.3079   21.4092 H   0  0  0  0  0  0
  -23.3745  -35.9662   23.3300 H   0  0  0  0  0  0
  -24.3578  -36.8953   22.2050 H   0  0  0  0  0  0
  -23.7258  -37.6528   23.6659 H   0  0  0  0  0  0
  -26.0424  -31.5907   20.5880 H   0  0  0  0  0  0
  -26.8230  -30.8850   21.9743 H   0  0  0  0  0  0
  -28.0962  -29.0886   21.1620 H   0  0  0  0  0  0
  -26.0207  -25.9616   19.0127 H   0  0  0  0  0  0
  -23.9697  -27.2872   19.0499 H   0  0  0  0  0  0
  -23.7280  -30.5995   19.4064 H   0  0  0  0  0  0
  -22.7355  -29.2495   19.8616 H   0  0  0  0  0  0
  -25.1284  -36.1961   25.0826 H   0  0  0  0  0  0
  -20.9941  -28.3252   24.1447 H   0  0  0  0  0  0
  -20.5713  -26.2273   23.3617 H   0  0  0  0  0  0
  -21.6633  -26.7479   22.1192 H   0  0  0  0  0  0
  -19.6916  -25.6313   21.1239 H   0  0  0  0  0  0
  -19.6702  -27.3224   20.6773 H   0  0  0  0  0  0
  -17.4197  -26.6702   21.4014 H   0  0  0  0  0  0
  -18.0295  -26.0090   22.9027 H   0  0  0  0  0  0
  -19.7931  -30.7256   24.2292 H   0  0  0  0  0  0
  -17.5019  -31.6276   24.5171 H   0  0  0  0  0  0
  -15.5346  -30.3004   23.7670 H   0  0  0  0  0  0
  -15.8658  -28.0861   22.7028 H   0  0  0  0  0  0
  -24.5918  -30.7042   25.7788 H   0  0  0  0  0  0
  -24.8935  -32.2846   26.4917 H   0  0  0  0  0  0
  -25.8098  -30.8842   27.0209 H   0  0  0  0  0  0
  -26.2837  -29.6788   24.1174 H   0  0  0  0  0  0
  -27.4122  -29.7285   25.4528 H   0  0  0  0  0  0
  -27.8652  -30.4363   23.9191 H   0  0  0  0  0  0
  -27.2684  -33.3600   26.2065 H   0  0  0  0  0  0
  -28.3862  -32.6864   25.0299 H   0  0  0  0  0  0
  -28.0722  -31.8412   26.5385 H   0  0  0  0  0  0
  -28.2584  -38.0109   24.7506 H   0  0  0  0  0  0
  -28.1078  -36.2644   24.6275 H   0  0  0  0  0  0
  -27.2295  -37.1452   25.8857 H   0  0  0  0  0  0
  -20.9298  -29.8754   21.6933 H   0  0  0  0  0  0
  -26.0176  -38.2871   24.1416 H   0  0  0  0  0  0
  -31.4377  -19.0279   21.2388 H   0  0  0  0  0  0
  -30.3812  -18.4286   22.4837 H   0  0  0  0  0  0
  -28.1710  -17.7474   22.0690 H   0  0  0  0  0  0
  -27.4039  -17.8540   20.5227 H   0  0  0  0  0  0
  -31.8389  -16.6043   21.9607 H   0  0  0  0  0  0
  -31.7764  -16.9794   20.2610 H   0  0  0  0  0  0
  -28.6244  -16.0677   19.5843 H   0  0  0  0  0  0
  -28.0705  -15.5738   21.1845 H   0  0  0  0  0  0
  -29.6938  -18.4870   19.5268 H   0  0  0  0  0  0
  -26.8382  -22.8665   18.0022 H   0  0  0  0  0  0
  -25.9883  -23.5111   19.4037 H   0  0  0  0  0  0
  -25.6515  -21.8958   18.8795 H   0  0  0  0  0  0
  -26.3153  -19.4868   19.0207 H   0  0  0  0  0  0
  -27.8794  -18.9497   18.4137 H   0  0  0  0  0  0
  -27.1566  -20.3818   17.7512 H   0  0  0  0  0  0
  -29.5236  -23.3979   23.4179 H   0  0  0  0  0  0
  -30.5782  -23.9146   22.0931 H   0  0  0  0  0  0
  -30.9319  -22.4371   22.9725 H   0  0  0  0  0  0
  -28.3691  -24.7760   21.8811 H   0  0  0  0  0  0
  -26.8782  -24.5321   21.0893 H   0  0  0  0  0  0
  -27.9707  -25.0812   18.8508 H   0  0  0  0  0  0
  -29.5123  -25.0701   19.6292 H   0  0  0  0  0  0
  1 25  1  0  0  0
  1 30  2  0  0  0
  1 87  1  0  0  0
  2  3  1  0  0  0
  2 25  1  0  0  0
  2 88  1  0  0  0
  2 89  1  0  0  0
  3  4  1  0  0  0
  3 90  1  0  0  0
  3 91  1  0  0  0
  4  5  1  0  0  0
  4 92  1  0  0  0
  4 93  1  0  0  0
  5  6  1  0  0  0
  5 26  1  0  0  0
  5 94  1  0  0  0
  6 25  1  0  0  0
  6 95  1  0  0  0
  6 96  1  0  0  0
  7  8  2  0  0  0
  7 26  1  0  0  0
  7 29  1  0  0  0
  8  9  1  0  0  0
  8 22  1  0  0  0
  9 10  1  0  0  0
  9 27  2  0  0  0
 10 11  2  0  0  0
 10 15  1  0  0  0
 11 12  1  0  0  0
 11 97  1  0  0  0
 12 13  2  0  0  0
 12 98  1  0  0  0
 13 14  1  0  0  0
 13 31  1  0  0  0
 14 15  2  0  0  0
 14 99  1  0  0  0
 15100  1  0  0  0
 16 17  2  0  0  0
 16 21  1  0  0  0
 16 31  1  0  0  0
 17 18  1  0  0  0
 17101  1  0  0  0
 18 19  2  0  0  0
 18102  1  0  0  0
 19 20  1  0  0  0
 19 24  1  0  0  0
 20 21  2  0  0  0
 20103  1  0  0  0
 21 23  1  0  0  0
 22 28  1  0  0  0
 22 32  2  0  0  0
 26 27  1  0  0  0
 28104  1  0  0  0
 28105  1  0  0  0
 29106  1  0  0  0
 29107  1  0  0  0
 33 34  1  0  0  0
 33 66  1  0  0  0
 33 70  2  0  0  0
 34 36  1  0  0  0
 34 59  1  0  0  0
 34108  1  0  0  0
 35 44  2  0  0  0
 35 45  1  0  0  0
 35 68  1  0  0  0
 36 56  1  0  0  0
 36109  1  0  0  0
 37 39  1  0  0  0
 37 47  1  0  0  0
 37 66  1  0  0  0
 37110  1  0  0  0
 38 43  2  0  0  0
 38 46  1  0  0  0
 38 47  1  0  0  0
 39 64  1  0  0  0
 39 67  2  0  0  0
 40 52  1  0  0  0
 40 53  2  0  0  0
 40 58  1  0  0  0
 41111  1  0  0  0
 41112  1  0  0  0
 41113  1  0  0  0
 41 48  1  0  0  0
 42 43  1  0  0  0
 42 66  1  0  0  0
 42114  1  0  0  0
 42115  1  0  0  0
 43 44  1  0  0  0
 44116  1  0  0  0
 45 46  2  0  0  0
 45117  1  0  0  0
 46118  1  0  0  0
 47119  1  0  0  0
 47120  1  0  0  0
 48 56  1  0  0  0
 48 65  1  0  0  0
 48121  1  0  0  0
 49 50  1  0  0  0
 49 53  1  0  0  0
 49 64  1  0  0  0
 49122  1  0  0  0
 50 51  1  0  0  0
 50123  1  0  0  0
 50124  1  0  0  0
 51 52  1  0  0  0
 51125  1  0  0  0
 51126  1  0  0  0
 52127  1  0  0  0
 52128  1  0  0  0
 53 54  1  0  0  0
 54 55  2  0  0  0
 54129  1  0  0  0
 55 57  1  0  0  0
 55130  1  0  0  0
 56 69  2  0  0  0
 57 58  2  0  0  0
 57131  1  0  0  0
 58132  1  0  0  0
 59 60  1  0  0  0
 59 61  1  0  0  0
 59 62  1  0  0  0
 60133  1  0  0  0
 60134  1  0  0  0
 60135  1  0  0  0
 61136  1  0  0  0
 61137  1  0  0  0
 61138  1  0  0  0
 62139  1  0  0  0
 62140  1  0  0  0
 62141  1  0  0  0
 63 65  1  0  0  0
 63142  1  0  0  0
 63143  1  0  0  0
 63144  1  0  0  0
 64145  1  0  0  0
 65146  1  0  0  0
 68 85  1  0  0  0
 71 72  2  0  0  0
 71 73  1  0  0  0
 71 81  1  0  0  0
 72 74  1  0  0  0
 72 82  1  0  0  0
 73 75  2  0  0  0
 73 84  1  0  0  0
 74 86  2  0  0  0
 74 80  1  0  0  0
 75 83  1  0  0  0
 75 86  1  0  0  0
 76 78  1  0  0  0
 76 80  1  0  0  0
 76147  1  0  0  0
 76148  1  0  0  0
 77 79  1  0  0  0
 77 80  1  0  0  0
 77149  1  0  0  0
 77150  1  0  0  0
 78 87  1  0  0  0
 78151  1  0  0  0
 78152  1  0  0  0
 79 87  1  0  0  0
 79153  1  0  0  0
 79154  1  0  0  0
 80155  1  0  0  0
 81156  1  0  0  0
 81157  1  0  0  0
 81158  1  0  0  0
 82159  1  0  0  0
 82160  1  0  0  0
 82161  1  0  0  0
 83162  1  0  0  0
 83163  1  0  0  0
 83164  1  0  0  0
 84 85  1  0  0  0
 84165  1  0  0  0
 84166  1  0  0  0
 85167  1  0  0  0
 85168  1  0  0  0
M  ISO  4   1 100  68 101  85 101  87 100
M  END
> <chiral flag>
0

> <version>
0

> <s_m_source_file>
/data/baiqing/PycharmProjects/Reinvent-master-3.2/result/LINK_invent/BTK/process_docking_weight1_custom_sum_contain_oxygen_bond_distance_aromatic_linkinvent_7_9_3/rearranged_h_0161.sdf

> <i_m_source_file_index>
53

> <r_mmod_Potential_Energy-OPLS-2005>
43.3918418884277

> <r_mmod_Stretch_Energy-OPLS-2005>
56.4248847961426

> <r_mmod_Bend_Energy-OPLS-2005>
156.584747314453

> <r_mmod_Torsional_Energy-OPLS-2005>
295.751922607422

> <r_mmod_Improper_Torsional_Energy-OPLS-2005>
3.66307616233826

> <r_mmod_Van_der_Waal_Energy-OPLS-2005>
183.988632202148

> <r_mmod_Electrostatic_Energy-OPLS-2005>
-465.109924316406

> <r_mmod_Solvation_Energy-OPLS-2005>
-216.614044189453

> <b_mmod_Minimization_Converged-OPLS-2005>
0

> <r_mmod_RMS_Derivative-OPLS-2005>
1.61276292800903

$$$$
53
                    3D
 Structure written by MMmdl.
179189  0  0  1  0            999 V2000
  -30.5240  -14.8090   20.4762 C   0  0  0  0  0  0
  -30.4565  -12.4625   19.5447 C   0  0  0  0  0  0
  -29.5350  -12.3285   18.3017 C   0  0  0  0  0  0
  -28.0308  -12.3071   18.6589 C   0  0  0  0  0  0
  -27.6310  -13.2216   19.8537 C   0  0  2  0  0  0
  -28.6667  -13.1516   20.9944 C   0  0  0  0  0  0
  -25.2424  -13.8168   20.5789 C   0  0  0  0  0  0
  -24.1710  -13.0410   20.9261 C   0  0  0  0  0  0
  -24.6312  -11.6875   20.8804 C   0  0  0  0  0  0
  -23.9030  -10.4232   21.0419 C   0  0  0  0  0  0
  -24.3589   -9.4118   21.9161 C   0  0  0  0  0  0
  -23.6269   -8.2148   22.0710 C   0  0  0  0  0  0
  -22.4246   -8.0227   21.3512 C   0  0  0  0  0  0
  -21.9885   -9.0195   20.4629 C   0  0  0  0  0  0
  -22.7211  -10.2070   20.3053 C   0  0  0  0  0  0
  -21.6831   -6.0745   22.5271 C   0  0  0  0  0  0
  -21.3995   -6.5651   23.8222 C   0  0  0  0  0  0
  -21.3661   -5.6810   24.9183 C   0  0  0  0  0  0
  -21.6052   -4.3070   24.7242 C   0  0  0  0  0  0
  -21.8815   -3.8150   23.4356 C   0  0  0  0  0  0
  -21.9174   -4.6964   22.3424 C   0  0  0  0  0  0
  -22.7679  -13.5138   21.1883 C   0  0  0  0  0  0
  -22.1626   -4.2133   21.0998 F   0  0  0  0  0  0
  -21.5611   -3.4578   25.7757 F   0  0  0  0  0  0
  -29.9590  -13.5479   20.4266 N   0  0  0  0  0  0
  -26.2830  -12.9353   20.3341 N   0  0  0  0  0  0
  -25.9230  -11.6515   20.5836 N   0  0  0  0  0  0
  -22.0259  -12.8148   22.0401 N   0  0  0  0  0  0
  -25.4157  -15.1908   20.4267 N   0  0  0  0  0  0
  -31.7048  -14.9546   20.1330 O   0  0  0  0  0  0
  -21.6557   -6.8870   21.4245 O   0  0  0  0  0  0
  -22.3389  -14.5462   20.6699 O   0  0  0  0  0  0
  -24.6311  -31.8537   23.1939 C   0  0  0  0  0  0
  -25.9161  -32.4737   23.8293 C   0  0  1  0  0  0
  -27.2266  -27.2301   20.1584 C   0  0  0  0  0  0
  -25.5945  -33.8545   24.2216 N   0  0  0  0  0  0
  -23.4299  -30.4709   21.5366 C   0  0  2  0  0  0
  -24.8752  -28.9072   20.1137 C   0  0  0  0  0  0
  -22.7471  -29.4656   22.4918 C   0  0  0  0  0  0
  -18.0344  -28.1365   22.8522 C   0  0  0  0  0  0
  -24.1503  -36.7281   23.2639 C   0  0  0  0  0  0
  -25.9765  -30.7539   21.3793 C   0  0  0  0  0  0
  -26.0439  -29.3726   20.7278 C   0  0  0  0  0  0
  -27.2146  -28.5464   20.7402 C   0  0  0  0  0  0
  -26.0390  -26.8426   19.4910 C   0  0  0  0  0  0
  -24.8815  -27.6517   19.4828 C   0  0  0  0  0  0
  -23.6443  -29.7961   20.1542 C   0  0  0  0  0  0
  -25.4133  -36.3069   24.0308 C   0  0  1  0  0  0
  -20.5919  -28.3738   23.1260 C   0  0  2  0  0  0
  -20.6812  -26.9481   22.5313 C   0  0  0  0  0  0
  -19.5770  -26.6394   21.5155 C   0  0  0  0  0  0
  -18.2005  -26.7875   22.1701 C   0  0  0  0  0  0
  -19.1568  -28.8873   23.2884 C   0  0  0  0  0  0
  -18.9528  -30.1476   23.8903 C   0  0  0  0  0  0
  -17.6535  -30.6623   24.0581 C   0  0  0  0  0  0
  -25.9059  -34.9435   23.5073 C   0  0  0  0  0  0
  -16.5414  -29.9109   23.6377 C   0  0  0  0  0  0
  -16.7325  -28.6519   23.0363 C   0  0  0  0  0  0
  -26.4510  -31.6578   25.0710 C   0  0  0  0  0  0
  -25.3715  -31.3708   26.1411 C   0  0  0  0  0  0
  -27.0368  -30.2989   24.6240 C   0  0  0  0  0  0
  -27.6042  -32.4321   25.7494 C   0  0  0  0  0  0
  -27.5596  -37.1810   24.8466 C   0  0  0  0  0  0
  -21.4190  -29.3092   22.3635 N   0  0  0  0  0  0
  -26.4313  -37.3749   23.9407 N   0  0  0  0  0  0
  -24.6986  -31.0446   22.0938 N   0  0  0  0  0  0
  -23.4138  -28.8304   23.3132 O   0  0  0  0  0  0
  -28.3487  -26.3661   20.2855 O   0  0  0  0  0  0
  -26.5644  -34.8914   22.4652 O   0  0  0  0  0  0
  -23.5453  -32.1427   23.7201 O   0  0  0  0  0  0
  -27.5274  -19.2309   19.9444 C   0  0  0  0  0  0
  -29.2972  -17.7190   19.0635 C   0  0  0  0  0  0
  -28.3617  -18.8004   18.8604 C   0  0  0  0  0  0
  -27.9179  -18.7386   21.2153 C   0  0  0  0  0  0
  -29.2729  -18.4018   21.3294 C   0  0  0  0  0  0
  -29.6317  -17.3406   20.4053 C   0  0  0  0  0  0
  -25.1060  -19.8726   19.0723 C   0  0  0  0  0  0
  -25.8913  -21.1364   18.7908 C   0  0  0  0  0  0
  -29.2309  -16.7249   16.6034 C   0  0  0  0  0  0
  -29.6962  -15.6413   17.5203 C   0  0  0  0  0  0
  -26.3320  -20.1875   19.8907 C   0  0  0  0  0  0
  -29.9708  -17.0615   17.8936 C   0  0  0  0  0  0
  -28.2762  -19.4873   17.5077 C   0  0  0  0  0  0
  -27.0366  -18.7364   22.4535 C   0  0  0  0  0  0
  -31.2535  -19.8397   20.3208 C   0  0  0  0  0  0
  -28.7991  -23.7513   21.0596 C   0  0  0  0  0  0
  -29.4716  -21.2419   21.6933 C   0  0  0  0  0  0
  -28.3663  -24.8834   19.9639 C   0  0  0  0  0  0
  -30.1337  -19.7592   21.3811 C   0  0  1  0  0  0
  -29.7005  -15.8922   20.8047 N   0  0  0  0  0  0
  -29.1955  -22.3123   20.6133 N   0  3  0  0  0  0
  -31.4904  -12.6277   19.2407 H   0  0  0  0  0  0
  -30.4748  -11.5257   20.1017 H   0  0  0  0  0  0
  -29.7848  -11.3995   17.7809 H   0  0  0  0  0  0
  -29.7376  -13.1023   17.5795 H   0  0  0  0  0  0
  -27.7822  -11.2755   18.9049 H   0  0  0  0  0  0
  -27.4362  -12.5413   17.7737 H   0  0  0  0  0  0
  -27.6195  -14.2438   19.4825 H   0  0  0  0  0  0
  -28.7131  -12.1450   21.4091 H   0  0  0  0  0  0
  -28.3877  -13.8001   21.8232 H   0  0  0  0  0  0
  -25.2750   -9.5588   22.4708 H   0  0  0  0  0  0
  -23.9993   -7.4579   22.7458 H   0  0  0  0  0  0
  -21.0774   -8.8728   19.9007 H   0  0  0  0  0  0
  -22.3644  -10.9586   19.6157 H   0  0  0  0  0  0
  -21.1944   -7.6147   23.9757 H   0  0  0  0  0  0
  -21.1520   -6.0502   25.9117 H   0  0  0  0  0  0
  -22.0607   -2.7610   23.2849 H   0  0  0  0  0  0
  -22.3964  -11.9963   22.4971 H   0  0  0  0  0  0
  -21.0864  -13.1089   22.2730 H   0  0  0  0  0  0
  -24.6571  -15.8459   20.5745 H   0  0  0  0  0  0
  -26.2731  -15.6572   20.1592 H   0  0  0  0  0  0
  -26.7239  -32.5363   23.1027 H   0  0  0  0  0  0
  -25.0138  -33.9648   25.0391 H   0  0  0  0  0  0
  -22.7289  -31.2961   21.3893 H   0  0  0  0  0  0
  -23.3760  -35.9619   23.3305 H   0  0  0  0  0  0
  -24.3573  -36.8901   22.2055 H   0  0  0  0  0  0
  -23.7260  -37.6478   23.6661 H   0  0  0  0  0  0
  -26.1244  -31.5047   20.6008 H   0  0  0  0  0  0
  -26.8475  -30.7948   22.0208 H   0  0  0  0  0  0
  -28.1007  -28.8953   21.2562 H   0  0  0  0  0  0
  -25.9499  -25.8947   18.9825 H   0  0  0  0  0  0
  -23.9901  -27.2900   18.9876 H   0  0  0  0  0  0
  -23.7702  -30.5661   19.3912 H   0  0  0  0  0  0
  -22.7576  -29.2319   19.8546 H   0  0  0  0  0  0
  -25.1325  -36.1913   25.0790 H   0  0  0  0  0  0
  -21.0006  -28.3334   24.1392 H   0  0  0  0  0  0
  -20.5678  -26.2404   23.3538 H   0  0  0  0  0  0
  -21.6688  -26.7579   22.1113 H   0  0  0  0  0  0
  -19.6625  -27.3196   20.6670 H   0  0  0  0  0  0
  -19.6938  -25.6312   21.1173 H   0  0  0  0  0  0
  -17.4156  -26.6455   21.4264 H   0  0  0  0  0  0
  -18.0571  -26.0084   22.9198 H   0  0  0  0  0  0
  -19.8030  -30.7272   24.2237 H   0  0  0  0  0  0
  -17.5036  -31.6292   24.5197 H   0  0  0  0  0  0
  -15.5409  -30.2955   23.7763 H   0  0  0  0  0  0
  -15.8691  -28.0937   22.7056 H   0  0  0  0  0  0
  -24.5895  -30.7040   25.7752 H   0  0  0  0  0  0
  -24.8896  -32.2868   26.4833 H   0  0  0  0  0  0
  -25.8018  -30.8897   27.0208 H   0  0  0  0  0  0
  -26.2966  -29.6712   24.1268 H   0  0  0  0  0  0
  -27.4054  -29.7258   25.4764 H   0  0  0  0  0  0
  -27.8843  -30.4257   23.9500 H   0  0  0  0  0  0
  -27.2619  -33.3630   26.2036 H   0  0  0  0  0  0
  -28.3868  -32.6872   25.0327 H   0  0  0  0  0  0
  -28.0710  -31.8478   26.5442 H   0  0  0  0  0  0
  -28.2631  -38.0100   24.7525 H   0  0  0  0  0  0
  -28.1084  -36.2635   24.6297 H   0  0  0  0  0  0
  -27.2299  -37.1463   25.8861 H   0  0  0  0  0  0
  -20.9439  -29.8574   21.6614 H   0  0  0  0  0  0
  -26.0199  -38.2828   24.1354 H   0  0  0  0  0  0
  -25.1762  -19.0802   18.3316 H   0  0  0  0  0  0
  -24.1351  -19.9910   19.5518 H   0  0  0  0  0  0
  -25.4409  -22.0759   19.1095 H   0  0  0  0  0  0
  -26.3635  -21.1834   17.8190 H   0  0  0  0  0  0
  -28.1529  -16.8728   16.5545 H   0  0  0  0  0  0
  -29.7627  -16.8204   15.6585 H   0  0  0  0  0  0
  -30.5653  -15.0675   17.2153 H   0  0  0  0  0  0
  -28.9304  -15.1159   18.0759 H   0  0  0  0  0  0
  -26.1806  -20.6365   20.8701 H   0  0  0  0  0  0
  -31.0051  -17.3957   17.8184 H   0  0  0  0  0  0
  -28.3617  -20.5661   17.6404 H   0  0  0  0  0  0
  -27.3506  -19.2532   16.9849 H   0  0  0  0  0  0
  -29.1119  -19.2380   16.8598 H   0  0  0  0  0  0
  -26.9449  -17.7077   22.8060 H   0  0  0  0  0  0
  -26.0228  -19.0917   22.2864 H   0  0  0  0  0  0
  -27.4790  -19.3168   23.2597 H   0  0  0  0  0  0
  -30.8592  -19.9927   19.3159 H   0  0  0  0  0  0
  -31.8479  -18.9226   20.3103 H   0  0  0  0  0  0
  -31.9327  -20.6663   20.5275 H   0  0  0  0  0  0
  -27.9701  -23.6527   21.7625 H   0  0  0  0  0  0
  -29.6362  -24.1480   21.6340 H   0  0  0  0  0  0
  -30.1816  -21.7163   22.3763 H   0  0  0  0  0  0
  -28.5723  -21.1356   22.2940 H   0  0  0  0  0  0
  -27.4248  -24.5554   19.5350 H   0  0  0  0  0  0
  -29.0775  -24.8019   19.1391 H   0  0  0  0  0  0
  -30.6803  -19.5545   22.3051 H   0  0  0  0  0  0
  -28.8527  -15.5872   21.2583 H   0  0  0  0  0  0
  -30.0303  -22.3836   20.0475 H   0  0  0  0  0  0
  -28.4730  -21.9416   20.0197 H   0  0  0  0  0  0
  1 25  1  0  0  0
  1 30  2  0  0  0
  1 90  1  0  0  0
  2  3  1  0  0  0
  2 25  1  0  0  0
  2 92  1  0  0  0
  2 93  1  0  0  0
  3  4  1  0  0  0
  3 94  1  0  0  0
  3 95  1  0  0  0
  4  5  1  0  0  0
  4 96  1  0  0  0
  4 97  1  0  0  0
  5  6  1  0  0  0
  5 26  1  0  0  0
  5 98  1  0  0  0
  6 25  1  0  0  0
  6 99  1  0  0  0
  6100  1  0  0  0
  7  8  2  0  0  0
  7 26  1  0  0  0
  7 29  1  0  0  0
  8  9  1  0  0  0
  8 22  1  0  0  0
  9 10  1  0  0  0
  9 27  2  0  0  0
 10 11  2  0  0  0
 10 15  1  0  0  0
 11 12  1  0  0  0
 11101  1  0  0  0
 12 13  2  0  0  0
 12102  1  0  0  0
 13 14  1  0  0  0
 13 31  1  0  0  0
 14 15  2  0  0  0
 14103  1  0  0  0
 15104  1  0  0  0
 16 17  2  0  0  0
 16 21  1  0  0  0
 16 31  1  0  0  0
 17 18  1  0  0  0
 17105  1  0  0  0
 18 19  2  0  0  0
 18106  1  0  0  0
 19 20  1  0  0  0
 19 24  1  0  0  0
 20 21  2  0  0  0
 20107  1  0  0  0
 21 23  1  0  0  0
 22 28  1  0  0  0
 22 32  2  0  0  0
 26 27  1  0  0  0
 28108  1  0  0  0
 28109  1  0  0  0
 29110  1  0  0  0
 29111  1  0  0  0
 33 34  1  0  0  0
 33 66  1  0  0  0
 33 70  2  0  0  0
 34 36  1  0  0  0
 34 59  1  0  0  0
 34112  1  0  0  0
 35 44  2  0  0  0
 35 45  1  0  0  0
 35 68  1  0  0  0
 36 56  1  0  0  0
 36113  1  0  0  0
 37 39  1  0  0  0
 37 47  1  0  0  0
 37 66  1  0  0  0
 37114  1  0  0  0
 38 43  2  0  0  0
 38 46  1  0  0  0
 38 47  1  0  0  0
 39 64  1  0  0  0
 39 67  2  0  0  0
 40 52  1  0  0  0
 40 53  2  0  0  0
 40 58  1  0  0  0
 41115  1  0  0  0
 41116  1  0  0  0
 41117  1  0  0  0
 41 48  1  0  0  0
 42 43  1  0  0  0
 42 66  1  0  0  0
 42118  1  0  0  0
 42119  1  0  0  0
 43 44  1  0  0  0
 44120  1  0  0  0
 45 46  2  0  0  0
 45121  1  0  0  0
 46122  1  0  0  0
 47123  1  0  0  0
 47124  1  0  0  0
 48 56  1  0  0  0
 48 65  1  0  0  0
 48125  1  0  0  0
 49 50  1  0  0  0
 49 53  1  0  0  0
 49 64  1  0  0  0
 49126  1  0  0  0
 50 51  1  0  0  0
 50127  1  0  0  0
 50128  1  0  0  0
 51 52  1  0  0  0
 51129  1  0  0  0
 51130  1  0  0  0
 52131  1  0  0  0
 52132  1  0  0  0
 53 54  1  0  0  0
 54 55  2  0  0  0
 54133  1  0  0  0
 55 57  1  0  0  0
 55134  1  0  0  0
 56 69  2  0  0  0
 57 58  2  0  0  0
 57135  1  0  0  0
 58136  1  0  0  0
 59 60  1  0  0  0
 59 61  1  0  0  0
 59 62  1  0  0  0
 60137  1  0  0  0
 60138  1  0  0  0
 60139  1  0  0  0
 61140  1  0  0  0
 61141  1  0  0  0
 61142  1  0  0  0
 62143  1  0  0  0
 62144  1  0  0  0
 62145  1  0  0  0
 63 65  1  0  0  0
 63146  1  0  0  0
 63147  1  0  0  0
 63148  1  0  0  0
 64149  1  0  0  0
 65150  1  0  0  0
 68 88  1  0  0  0
 71 73  2  0  0  0
 71 74  1  0  0  0
 71 81  1  0  0  0
 72 73  1  0  0  0
 72 76  2  0  0  0
 72 82  1  0  0  0
 73 83  1  0  0  0
 74 75  2  0  0  0
 74 84  1  0  0  0
 75 76  1  0  0  0
 75 89  1  0  0  0
 76 90  1  0  0  0
 77 78  1  0  0  0
 77 81  1  0  0  0
 77151  1  0  0  0
 77152  1  0  0  0
 78 81  1  0  0  0
 78153  1  0  0  0
 78154  1  0  0  0
 79 80  1  0  0  0
 79 82  1  0  0  0
 79155  1  0  0  0
 79156  1  0  0  0
 80 82  1  0  0  0
 80157  1  0  0  0
 80158  1  0  0  0
 81159  1  0  0  0
 82160  1  0  0  0
 83161  1  0  0  0
 83162  1  0  0  0
 83163  1  0  0  0
 84164  1  0  0  0
 84165  1  0  0  0
 84166  1  0  0  0
 85167  1  0  0  0
 85168  1  0  0  0
 85169  1  0  0  0
 85 89  1  0  0  0
 86 88  1  0  0  0
 86 91  1  0  0  0
 86170  1  0  0  0
 86171  1  0  0  0
 87 89  1  0  0  0
 87 91  1  0  0  0
 87172  1  0  0  0
 87173  1  0  0  0
 88174  1  0  0  0
 88175  1  0  0  0
 89176  1  0  0  0
 90177  1  0  0  0
 91178  1  0  0  0
 91179  1  0  0  0
M  CHG  1  91   1
M  ISO  4   1 100  68 101  88 101  90 100
M  END
> <chiral flag>
0

> <version>
0

> <s_m_source_file>
/data/baiqing/PycharmProjects/Reinvent-master-3.2/result/LINK_invent/BTK/process_docking_weight1_custom_sum_contain_oxygen_bond_distance_aromatic_linkinvent_7_9_3/rearranged_h_0161.sdf

> <i_m_source_file_index>
54

> <r_mmod_Potential_Energy-OPLS-2005>
568.702209472656

> <r_mmod_Stretch_Energy-OPLS-2005>
167.878646850586

> <r_mmod_Bend_Energy-OPLS-2005>
262.319915771484

> <r_mmod_Torsional_Energy-OPLS-2005>
594.906066894531

> <r_mmod_Improper_Torsional_Energy-OPLS-2005>
32.0487289428711

> <r_mmod_Van_der_Waal_Energy-OPLS-2005>
153.764953613281

> <r_mmod_Electrostatic_Energy-OPLS-2005>
-327.372375488281

> <r_mmod_Solvation_Energy-OPLS-2005>
-432.403594970703

> <b_mmod_Minimization_Converged-OPLS-2005>
0

> <r_mmod_RMS_Derivative-OPLS-2005>
7.35769319534302

$$$$
54
                    3D
 Structure written by MMmdl.
173182  0  0  1  0            999 V2000
  -30.7662  -14.5259   20.4193 C   0  0  0  0  0  0
  -30.3954  -12.2971   19.4634 C   0  0  0  0  0  0
  -29.4896  -12.4176   18.2301 C   0  0  0  0  0  0
  -28.0176  -12.2869   18.6569 C   0  0  0  0  0  0
  -27.6430  -13.2072   19.8441 C   0  0  2  0  0  0
  -28.6963  -13.1717   20.9755 C   0  0  0  0  0  0
  -25.2527  -13.8168   20.5751 C   0  0  0  0  0  0
  -24.1803  -13.0459   20.9253 C   0  0  0  0  0  0
  -24.6350  -11.6906   20.8797 C   0  0  0  0  0  0
  -23.9018  -10.4302   21.0418 C   0  0  0  0  0  0
  -24.3569   -9.4216   21.9170 C   0  0  0  0  0  0
  -23.6279   -8.2245   22.0724 C   0  0  0  0  0  0
  -22.4264   -8.0255   21.3537 C   0  0  0  0  0  0
  -21.9873   -9.0242   20.4665 C   0  0  0  0  0  0
  -22.7183  -10.2129   20.3083 C   0  0  0  0  0  0
  -21.6880   -6.0711   22.5269 C   0  0  0  0  0  0
  -21.4061   -6.5637   23.8195 C   0  0  0  0  0  0
  -21.3632   -5.6783   24.9153 C   0  0  0  0  0  0
  -21.6021   -4.3038   24.7211 C   0  0  0  0  0  0
  -21.8842   -3.8126   23.4342 C   0  0  0  0  0  0
  -21.9209   -4.6941   22.3399 C   0  0  0  0  0  0
  -22.7807  -13.5216   21.1866 C   0  0  0  0  0  0
  -22.1675   -4.2144   21.0972 F   0  0  0  0  0  0
  -21.5585   -3.4508   25.7712 F   0  0  0  0  0  0
  -30.0205  -13.3864   20.3851 N   0  0  0  0  0  0
  -26.2949  -12.9344   20.3355 N   0  0  0  0  0  0
  -25.9306  -11.6532   20.5890 N   0  0  0  0  0  0
  -22.0417  -12.8310   22.0437 N   0  0  0  0  0  0
  -25.4315  -15.1906   20.4197 N   0  0  0  0  0  0
  -31.9129  -14.5425   19.9673 O   0  0  0  0  0  0
  -21.6661   -6.8836   21.4229 O   0  0  0  0  0  0
  -22.3497  -14.5495   20.6603 O   0  0  0  0  0  0
  -24.6229  -31.8621   23.2133 C   0  0  0  0  0  0
  -25.9061  -32.4867   23.8451 C   0  0  1  0  0  0
  -27.2513  -27.4082   20.1099 C   0  0  0  0  0  0
  -25.5880  -33.8661   24.2397 N   0  0  0  0  0  0
  -23.4144  -30.4844   21.5535 C   0  0  2  0  0  0
  -24.8635  -28.9436   20.1236 C   0  0  0  0  0  0
  -22.7497  -29.4565   22.4974 C   0  0  0  0  0  0
  -18.0271  -28.1400   22.8561 C   0  0  0  0  0  0
  -24.1457  -36.7352   23.2645 C   0  0  0  0  0  0
  -25.9432  -30.8328   21.3548 C   0  0  0  0  0  0
  -26.0248  -29.4564   20.7172 C   0  0  0  0  0  0
  -27.2187  -28.6972   20.6996 C   0  0  0  0  0  0
  -26.0634  -26.9039   19.5320 C   0  0  0  0  0  0
  -24.8799  -27.6714   19.5259 C   0  0  0  0  0  0
  -23.6352  -29.8273   20.1636 C   0  0  0  0  0  0
  -25.4062  -36.3185   24.0387 C   0  0  1  0  0  0
  -20.5889  -28.3663   23.1381 C   0  0  2  0  0  0
  -20.6760  -26.9408   22.5466 C   0  0  0  0  0  0
  -19.5723  -26.6395   21.5296 C   0  0  0  0  0  0
  -18.1892  -26.7950   22.1679 C   0  0  0  0  0  0
  -19.1525  -28.8861   23.2956 C   0  0  0  0  0  0
  -18.9447  -30.1467   23.8964 C   0  0  0  0  0  0
  -17.6444  -30.6602   24.0616 C   0  0  0  0  0  0
  -25.9005  -34.9526   23.5199 C   0  0  0  0  0  0
  -16.5335  -29.9142   23.6311 C   0  0  0  0  0  0
  -16.7265  -28.6551   23.0361 C   0  0  0  0  0  0
  -26.4458  -31.6645   25.0780 C   0  0  0  0  0  0
  -25.3732  -31.3747   26.1537 C   0  0  0  0  0  0
  -27.0269  -30.3135   24.6059 C   0  0  0  0  0  0
  -27.6057  -32.4311   25.7518 C   0  0  0  0  0  0
  -27.5546  -37.1814   24.8473 C   0  0  0  0  0  0
  -21.4209  -29.3028   22.3804 N   0  0  0  0  0  0
  -26.4254  -37.3860   23.9454 N   0  0  0  0  0  0
  -24.6830  -31.0734   22.1029 N   0  0  0  0  0  0
  -23.4283  -28.8047   23.2953 O   0  0  0  0  0  0
  -28.4492  -26.7052   20.1185 O   0  0  0  0  0  0
  -26.5545  -34.8974   22.4746 O   0  0  0  0  0  0
  -23.5389  -32.1252   23.7558 O   0  0  0  0  0  0
  -29.2199  -16.5456   20.1419 C   0  0  0  0  0  0
  -30.2602  -15.9001   20.8531 C   0  0  0  0  0  0
  -29.8143  -18.7625   21.0395 C   0  0  0  0  0  0
  -28.9385  -17.9253   20.2927 C   0  0  0  0  0  0
  -31.0586  -16.6955   21.7239 C   0  0  0  0  0  0
  -30.9031  -18.1186   21.7189 C   0  0  0  0  0  0
  -29.4763  -21.1851   19.8249 C   0  0  0  0  0  0
  -28.6021  -20.7803   22.1832 C   0  0  0  0  0  0
  -28.2333  -22.1490   19.7914 C   0  0  0  0  0  0
  -28.6275  -22.3330   22.2509 C   0  0  0  0  0  0
  -29.6210  -20.3242   21.1281 C   0  0  1  0  0  0
  -27.7287  -18.4859   19.5671 C   0  0  0  0  0  0
  -32.0100  -18.9782   22.3240 C   0  0  0  0  0  0
  -31.9639  -16.2118   24.1090 C   0  0  0  0  0  0
  -32.1521  -16.0196   22.5922 C   0  0  0  0  0  0
  -27.9205  -24.4490   21.0464 C   0  0  0  0  0  0
  -28.5020  -25.2782   19.8617 C   0  0  0  0  0  0
  -27.9996  -22.9331   21.0475 N   0  3  1  0  0  0
  -31.4390  -12.3403   19.1468 H   0  0  0  0  0  0
  -30.2681  -11.3287   19.9518 H   0  0  0  0  0  0
  -29.7363  -11.6297   17.5211 H   0  0  0  0  0  0
  -29.6660  -13.3636   17.7152 H   0  0  0  0  0  0
  -27.8662  -11.2453   18.9499 H   0  0  0  0  0  0
  -27.3561  -12.4650   17.8079 H   0  0  0  0  0  0
  -27.6273  -14.2070   19.4258 H   0  0  0  0  0  0
  -28.6702  -12.2260   21.5215 H   0  0  0  0  0  0
  -28.4720  -13.9619   21.6946 H   0  0  0  0  0  0
  -25.2689   -9.5735   22.4740 H   0  0  0  0  0  0
  -24.0008   -7.4641   22.7426 H   0  0  0  0  0  0
  -21.0781   -8.8747   19.9004 H   0  0  0  0  0  0
  -22.3576  -10.9661   19.6202 H   0  0  0  0  0  0
  -21.2118   -7.6145   23.9727 H   0  0  0  0  0  0
  -21.1407   -6.0491   25.9060 H   0  0  0  0  0  0
  -22.0650   -2.7600   23.2858 H   0  0  0  0  0  0
  -22.3984  -12.0069   22.5068 H   0  0  0  0  0  0
  -21.1003  -13.1403   22.2475 H   0  0  0  0  0  0
  -24.6811  -15.8555   20.5787 H   0  0  0  0  0  0
  -26.3070  -15.6342   20.1907 H   0  0  0  0  0  0
  -26.7180  -32.5602   23.1264 H   0  0  0  0  0  0
  -25.0195  -33.9830   25.0668 H   0  0  0  0  0  0
  -22.7040  -31.3043   21.4228 H   0  0  0  0  0  0
  -23.3748  -35.9655   23.3338 H   0  0  0  0  0  0
  -24.3583  -36.8892   22.2048 H   0  0  0  0  0  0
  -23.7113  -37.6532   23.6621 H   0  0  0  0  0  0
  -26.0205  -31.5843   20.5635 H   0  0  0  0  0  0
  -26.8457  -30.9198   21.9508 H   0  0  0  0  0  0
  -28.1204  -29.0974   21.1446 H   0  0  0  0  0  0
  -26.0239  -25.9218   19.0842 H   0  0  0  0  0  0
  -23.9857  -27.2804   19.0652 H   0  0  0  0  0  0
  -23.8003  -30.6220   19.4338 H   0  0  0  0  0  0
  -22.7546  -29.2848   19.8157 H   0  0  0  0  0  0
  -25.1209  -36.2082   25.0868 H   0  0  0  0  0  0
  -20.9937  -28.3219   24.1526 H   0  0  0  0  0  0
  -20.5779  -26.2248   23.3650 H   0  0  0  0  0  0
  -21.6594  -26.7498   22.1175 H   0  0  0  0  0  0
  -19.6872  -25.6327   21.1281 H   0  0  0  0  0  0
  -19.6664  -27.3286   20.6902 H   0  0  0  0  0  0
  -17.4180  -26.6837   21.4043 H   0  0  0  0  0  0
  -18.0188  -26.0072   22.9029 H   0  0  0  0  0  0
  -19.7919  -30.7273   24.2376 H   0  0  0  0  0  0
  -17.4995  -31.6293   24.5222 H   0  0  0  0  0  0
  -15.5336  -30.3091   23.7527 H   0  0  0  0  0  0
  -15.8666  -28.0875   22.7023 H   0  0  0  0  0  0
  -24.5958  -30.7034   25.7884 H   0  0  0  0  0  0
  -24.8910  -32.2929   26.4918 H   0  0  0  0  0  0
  -25.8075  -30.8980   27.0343 H   0  0  0  0  0  0
  -26.2792  -29.6945   24.1110 H   0  0  0  0  0  0
  -27.4106  -29.7279   25.4417 H   0  0  0  0  0  0
  -27.8607  -30.4550   23.9178 H   0  0  0  0  0  0
  -27.2733  -33.3626   26.2104 H   0  0  0  0  0  0
  -28.3843  -32.6781   25.0303 H   0  0  0  0  0  0
  -28.0787  -31.8437   26.5395 H   0  0  0  0  0  0
  -28.2579  -38.0095   24.7511 H   0  0  0  0  0  0
  -28.1010  -36.2623   24.6293 H   0  0  0  0  0  0
  -27.2324  -37.1427   25.8892 H   0  0  0  0  0  0
  -20.9396  -29.8889   21.7156 H   0  0  0  0  0  0
  -26.0197  -38.2953   24.1468 H   0  0  0  0  0  0
  -28.6656  -16.0025   19.3971 H   0  0  0  0  0  0
  -30.3681  -21.8139   19.7495 H   0  0  0  0  0  0
  -29.5034  -20.5692   18.9276 H   0  0  0  0  0  0
  -27.6023  -20.4242   21.9310 H   0  0  0  0  0  0
  -28.8521  -20.3454   23.1527 H   0  0  0  0  0  0
  -27.3353  -21.5312   19.7169 H   0  0  0  0  0  0
  -28.2330  -22.7583   18.8847 H   0  0  0  0  0  0
  -29.6550  -22.6864   22.3270 H   0  0  0  0  0  0
  -28.1111  -22.6969   23.1400 H   0  0  0  0  0  0
  -30.5506  -20.7193   21.5177 H   0  0  0  0  0  0
  -27.3407  -19.3578   20.0854 H   0  0  0  0  0  0
  -26.9094  -17.7680   19.5435 H   0  0  0  0  0  0
  -27.9738  -18.7575   18.5398 H   0  0  0  0  0  0
  -32.3971  -19.6147   21.5303 H   0  0  0  0  0  0
  -32.8824  -18.4398   22.6781 H   0  0  0  0  0  0
  -31.6501  -19.5976   23.1440 H   0  0  0  0  0  0
  -32.1397  -17.2351   24.4336 H   0  0  0  0  0  0
  -32.6667  -15.5884   24.6668 H   0  0  0  0  0  0
  -30.9522  -15.9322   24.4063 H   0  0  0  0  0  0
  -33.1391  -16.3451   22.2620 H   0  0  0  0  0  0
  -32.1823  -14.9378   22.4608 H   0  0  0  0  0  0
  -26.8630  -24.6953   21.1408 H   0  0  0  0  0  0
  -28.3935  -24.8202   21.9564 H   0  0  0  0  0  0
  -28.0306  -25.0524   18.9092 H   0  0  0  0  0  0
  -29.5521  -25.0214   19.7362 H   0  0  0  0  0  0
  -27.0305  -22.7066   21.2301 H   0  0  0  0  0  0
  1 25  1  0  0  0
  1 30  2  0  0  0
  1 72  1  0  0  0
  2  3  1  0  0  0
  2 25  1  0  0  0
  2 89  1  0  0  0
  2 90  1  0  0  0
  3  4  1  0  0  0
  3 91  1  0  0  0
  3 92  1  0  0  0
  4  5  1  0  0  0
  4 93  1  0  0  0
  4 94  1  0  0  0
  5  6  1  0  0  0
  5 26  1  0  0  0
  5 95  1  0  0  0
  6 25  1  0  0  0
  6 96  1  0  0  0
  6 97  1  0  0  0
  7  8  2  0  0  0
  7 26  1  0  0  0
  7 29  1  0  0  0
  8  9  1  0  0  0
  8 22  1  0  0  0
  9 10  1  0  0  0
  9 27  2  0  0  0
 10 11  2  0  0  0
 10 15  1  0  0  0
 11 12  1  0  0  0
 11 98  1  0  0  0
 12 13  2  0  0  0
 12 99  1  0  0  0
 13 14  1  0  0  0
 13 31  1  0  0  0
 14 15  2  0  0  0
 14100  1  0  0  0
 15101  1  0  0  0
 16 17  2  0  0  0
 16 21  1  0  0  0
 16 31  1  0  0  0
 17 18  1  0  0  0
 17102  1  0  0  0
 18 19  2  0  0  0
 18103  1  0  0  0
 19 20  1  0  0  0
 19 24  1  0  0  0
 20 21  2  0  0  0
 20104  1  0  0  0
 21 23  1  0  0  0
 22 28  1  0  0  0
 22 32  2  0  0  0
 26 27  1  0  0  0
 28105  1  0  0  0
 28106  1  0  0  0
 29107  1  0  0  0
 29108  1  0  0  0
 33 34  1  0  0  0
 33 66  1  0  0  0
 33 70  2  0  0  0
 34 36  1  0  0  0
 34 59  1  0  0  0
 34109  1  0  0  0
 35 44  2  0  0  0
 35 45  1  0  0  0
 35 68  1  0  0  0
 36 56  1  0  0  0
 36110  1  0  0  0
 37 39  1  0  0  0
 37 47  1  0  0  0
 37 66  1  0  0  0
 37111  1  0  0  0
 38 43  2  0  0  0
 38 46  1  0  0  0
 38 47  1  0  0  0
 39 64  1  0  0  0
 39 67  2  0  0  0
 40 52  1  0  0  0
 40 53  2  0  0  0
 40 58  1  0  0  0
 41112  1  0  0  0
 41113  1  0  0  0
 41114  1  0  0  0
 41 48  1  0  0  0
 42 43  1  0  0  0
 42 66  1  0  0  0
 42115  1  0  0  0
 42116  1  0  0  0
 43 44  1  0  0  0
 44117  1  0  0  0
 45 46  2  0  0  0
 45118  1  0  0  0
 46119  1  0  0  0
 47120  1  0  0  0
 47121  1  0  0  0
 48 56  1  0  0  0
 48 65  1  0  0  0
 48122  1  0  0  0
 49 50  1  0  0  0
 49 53  1  0  0  0
 49 64  1  0  0  0
 49123  1  0  0  0
 50 51  1  0  0  0
 50124  1  0  0  0
 50125  1  0  0  0
 51 52  1  0  0  0
 51126  1  0  0  0
 51127  1  0  0  0
 52128  1  0  0  0
 52129  1  0  0  0
 53 54  1  0  0  0
 54 55  2  0  0  0
 54130  1  0  0  0
 55 57  1  0  0  0
 55131  1  0  0  0
 56 69  2  0  0  0
 57 58  2  0  0  0
 57132  1  0  0  0
 58133  1  0  0  0
 59 60  1  0  0  0
 59 61  1  0  0  0
 59 62  1  0  0  0
 60134  1  0  0  0
 60135  1  0  0  0
 60136  1  0  0  0
 61137  1  0  0  0
 61138  1  0  0  0
 61139  1  0  0  0
 62140  1  0  0  0
 62141  1  0  0  0
 62142  1  0  0  0
 63 65  1  0  0  0
 63143  1  0  0  0
 63144  1  0  0  0
 63145  1  0  0  0
 64146  1  0  0  0
 65147  1  0  0  0
 68 87  1  0  0  0
 71 72  2  0  0  0
 71 74  1  0  0  0
 71148  1  0  0  0
 72 75  1  0  0  0
 73 74  2  0  0  0
 73 76  1  0  0  0
 73 81  1  0  0  0
 74 82  1  0  0  0
 75 76  2  0  0  0
 75 85  1  0  0  0
 76 83  1  0  0  0
 77 79  1  0  0  0
 77 81  1  0  0  0
 77149  1  0  0  0
 77150  1  0  0  0
 78 80  1  0  0  0
 78 81  1  0  0  0
 78151  1  0  0  0
 78152  1  0  0  0
 79 88  1  0  0  0
 79153  1  0  0  0
 79154  1  0  0  0
 80 88  1  0  0  0
 80155  1  0  0  0
 80156  1  0  0  0
 81157  1  0  0  0
 82158  1  0  0  0
 82159  1  0  0  0
 82160  1  0  0  0
 83161  1  0  0  0
 83162  1  0  0  0
 83163  1  0  0  0
 84 85  1  0  0  0
 84164  1  0  0  0
 84165  1  0  0  0
 84166  1  0  0  0
 85167  1  0  0  0
 85168  1  0  0  0
 86 87  1  0  0  0
 86169  1  0  0  0
 86170  1  0  0  0
 86 88  1  0  0  0
 87171  1  0  0  0
 87172  1  0  0  0
 88173  1  0  0  0
M  CHG  1  88   1
M  ISO  4   1 100  68 101  72 100  87 101
M  END
> <chiral flag>
0

> <version>
0

> <s_m_source_file>
/data/baiqing/PycharmProjects/Reinvent-master-3.2/result/LINK_invent/BTK/process_docking_weight1_custom_sum_contain_oxygen_bond_distance_aromatic_linkinvent_7_9_3/rearranged_h_0161.sdf

> <i_m_source_file_index>
55

> <r_mmod_Potential_Energy-OPLS-2005>
139.265853881836

> <r_mmod_Stretch_Energy-OPLS-2005>
63.1268043518066

> <r_mmod_Bend_Energy-OPLS-2005>
178.121841430664

> <r_mmod_Torsional_Energy-OPLS-2005>
278.367553710938

> <r_mmod_Improper_Torsional_Energy-OPLS-2005>
6.27336359024048

> <r_mmod_Van_der_Waal_Energy-OPLS-2005>
180.103057861328

> <r_mmod_Electrostatic_Energy-OPLS-2005>
-194.505737304688

> <r_mmod_Solvation_Energy-OPLS-2005>
-408.284942626953

> <b_mmod_Minimization_Converged-OPLS-2005>
0

> <r_mmod_RMS_Derivative-OPLS-2005>
8.24356842041016

$$$$
55
                    3D
 Structure written by MMmdl.
193203  0  0  1  0            999 V2000
  -30.8175  -14.4801   20.4743 C   0  0  0  0  0  0
  -30.3834  -12.3035   19.4189 C   0  0  0  0  0  0
  -29.4596  -12.4524   18.1971 C   0  0  0  0  0  0
  -27.9915  -12.2935   18.6304 C   0  0  0  0  0  0
  -27.6281  -13.1777   19.8491 C   0  0  2  0  0  0
  -28.7001  -13.1119   20.9713 C   0  0  0  0  0  0
  -25.2523  -13.8049   20.5749 C   0  0  0  0  0  0
  -24.1739  -13.0380   20.9231 C   0  0  0  0  0  0
  -24.6260  -11.6831   20.8787 C   0  0  0  0  0  0
  -23.8936  -10.4247   21.0432 C   0  0  0  0  0  0
  -24.3515   -9.4176   21.9200 C   0  0  0  0  0  0
  -23.6214   -8.2202   22.0763 C   0  0  0  0  0  0
  -22.4214   -8.0215   21.3530 C   0  0  0  0  0  0
  -21.9826   -9.0194   20.4647 C   0  0  0  0  0  0
  -22.7124  -10.2092   20.3069 C   0  0  0  0  0  0
  -21.6828   -6.0673   22.5263 C   0  0  0  0  0  0
  -21.3990   -6.5596   23.8193 C   0  0  0  0  0  0
  -21.3677   -5.6768   24.9167 C   0  0  0  0  0  0
  -21.6064   -4.3030   24.7227 C   0  0  0  0  0  0
  -21.8820   -3.8093   23.4355 C   0  0  0  0  0  0
  -21.9194   -4.6901   22.3401 C   0  0  0  0  0  0
  -22.7790  -13.5247   21.1862 C   0  0  0  0  0  0
  -22.1671   -4.2088   21.0979 F   0  0  0  0  0  0
  -21.5651   -3.4524   25.7751 F   0  0  0  0  0  0
  -30.0202  -13.3718   20.3714 N   0  0  0  0  0  0
  -26.2868  -12.9123   20.3408 N   0  0  0  0  0  0
  -25.9180  -11.6335   20.5868 N   0  0  0  0  0  0
  -22.0416  -12.8237   22.0416 N   0  0  0  0  0  0
  -25.4325  -15.1753   20.4123 N   0  0  0  0  0  0
  -32.0091  -14.4025   20.1690 O   0  0  0  0  0  0
  -21.6601   -6.8798   21.4215 O   0  0  0  0  0  0
  -22.3543  -14.5574   20.6714 O   0  0  0  0  0  0
  -24.6073  -31.8725   23.2159 C   0  0  0  0  0  0
  -25.8997  -32.4845   23.8421 C   0  0  1  0  0  0
  -27.2384  -27.4840   20.0922 C   0  0  0  0  0  0
  -25.5874  -33.8646   24.2351 N   0  0  0  0  0  0
  -23.3915  -30.4965   21.5544 C   0  0  2  0  0  0
  -24.8409  -28.9665   20.1199 C   0  0  0  0  0  0
  -22.7365  -29.4679   22.5021 C   0  0  0  0  0  0
  -18.0258  -28.1365   22.8494 C   0  0  0  0  0  0
  -24.1491  -36.7328   23.2637 C   0  0  0  0  0  0
  -25.9147  -30.8516   21.3626 C   0  0  0  0  0  0
  -25.9946  -29.4852   20.7221 C   0  0  0  0  0  0
  -27.1957  -28.7480   20.7207 C   0  0  0  0  0  0
  -26.0744  -26.9736   19.4848 C   0  0  0  0  0  0
  -24.8710  -27.7027   19.5046 C   0  0  0  0  0  0
  -23.5993  -29.8275   20.1686 C   0  0  0  0  0  0
  -25.4104  -36.3125   24.0343 C   0  0  1  0  0  0
  -20.5844  -28.3646   23.1335 C   0  0  2  0  0  0
  -20.6749  -26.9388   22.5422 C   0  0  0  0  0  0
  -19.5733  -26.6380   21.5212 C   0  0  0  0  0  0
  -18.1909  -26.7912   22.1622 C   0  0  0  0  0  0
  -19.1506  -28.8821   23.2913 C   0  0  0  0  0  0
  -18.9439  -30.1433   23.8915 C   0  0  0  0  0  0
  -17.6445  -30.6581   24.0567 C   0  0  0  0  0  0
  -25.9021  -34.9487   23.5140 C   0  0  0  0  0  0
  -16.5339  -29.9083   23.6326 C   0  0  0  0  0  0
  -16.7251  -28.6499   23.0346 C   0  0  0  0  0  0
  -26.4459  -31.6603   25.0720 C   0  0  0  0  0  0
  -25.3746  -31.3701   26.1488 C   0  0  0  0  0  0
  -27.0277  -30.3049   24.6052 C   0  0  0  0  0  0
  -27.6047  -32.4311   25.7472 C   0  0  0  0  0  0
  -27.5584  -37.1812   24.8459 C   0  0  0  0  0  0
  -21.4101  -29.3029   22.3761 N   0  0  0  0  0  0
  -26.4295  -37.3798   23.9409 N   0  0  0  0  0  0
  -24.6555  -31.0868   22.1034 N   0  0  0  0  0  0
  -23.4166  -28.8221   23.3038 O   0  0  0  0  0  0
  -28.3777  -26.7293   19.9849 O   0  0  0  0  0  0
  -26.5582  -34.8927   22.4702 O   0  0  0  0  0  0
  -23.5280  -32.1463   23.7587 O   0  0  0  0  0  0
  -31.0917  -23.5590   19.7531 C   0  0  0  0  0  0
  -32.7583  -25.0666   20.7501 C   0  0  0  0  0  0
  -30.0547  -24.3955   20.2385 C   0  0  0  0  0  0
  -31.7145  -25.9214   21.2016 C   0  0  0  0  0  0
  -32.4529  -23.8847   20.0140 C   0  0  0  0  0  0
  -30.3667  -25.6346   20.8590 C   0  0  0  0  0  0
  -32.8069  -18.4731   20.3210 C   0  0  0  0  0  0
  -31.7725  -17.5116   19.9927 C   0  0  0  0  0  0
  -32.9788  -18.9474   21.5674 C   0  0  0  0  0  0
  -31.2601  -16.7355   20.9787 C   0  0  0  0  0  0
  -31.2464  -17.4374   18.5713 C   0  0  0  0  0  0
  -32.1365  -18.3834   22.7098 C   0  0  0  0  0  0
  -31.6786  -16.9263   22.4305 C   0  0  0  0  0  0
  -28.9235  -17.6378   19.6688 C   0  0  0  0  0  0
  -29.0450  -16.1514   20.0763 C   0  0  0  0  0  0
  -29.8271  -18.0297   18.4723 C   0  0  2  0  0  0
  -30.7139  -22.3446   18.9022 C   0  0  0  0  0  0
  -34.2215  -25.4526   20.9942 C   0  0  0  0  0  0
  -28.5971  -23.9555   20.0871 C   0  0  0  0  0  0
  -32.0524  -27.1471   22.0545 C   0  0  0  0  0  0
  -29.1829  -17.6832   17.1176 C   0  0  0  0  0  0
  -33.5912  -23.0032   19.4604 C   0  0  0  0  0  0
  -29.2553  -26.6671   21.1011 C   0  0  0  0  0  0
  -34.0204  -20.0164   21.9028 C   0  0  0  0  0  0
  -33.6501  -21.5423   19.9545 C   0  0  0  0  0  0
  -30.2978  -15.7208   20.7397 N   0  0  0  0  0  0
  -33.6541  -21.3774   21.4284 N   0  3  0  0  0  0
  -31.4254  -12.3397   19.0962 H   0  0  0  0  0  0
  -30.2548  -11.3238   19.8814 H   0  0  0  0  0  0
  -29.7039  -11.7020   17.4452 H   0  0  0  0  0  0
  -29.6108  -13.4223   17.7193 H   0  0  0  0  0  0
  -27.8344  -11.2431   18.8781 H   0  0  0  0  0  0
  -27.3230  -12.5129   17.7965 H   0  0  0  0  0  0
  -27.5698  -14.1692   19.4333 H   0  0  0  0  0  0
  -28.6986  -12.1255   21.4384 H   0  0  0  0  0  0
  -28.4826  -13.8249   21.7678 H   0  0  0  0  0  0
  -25.2671   -9.5666   22.4753 H   0  0  0  0  0  0
  -23.9950   -7.4595   22.7465 H   0  0  0  0  0  0
  -21.0780   -8.8690   19.8934 H   0  0  0  0  0  0
  -22.3594  -10.9620   19.6158 H   0  0  0  0  0  0
  -21.1963   -7.6102   23.9680 H   0  0  0  0  0  0
  -21.1514   -6.0494   25.9077 H   0  0  0  0  0  0
  -22.0586   -2.7546   23.2867 H   0  0  0  0  0  0
  -22.4009  -11.9857   22.4750 H   0  0  0  0  0  0
  -21.1062  -13.1300   22.2673 H   0  0  0  0  0  0
  -24.6742  -15.8396   20.5171 H   0  0  0  0  0  0
  -26.2978  -15.6026   20.1088 H   0  0  0  0  0  0
  -26.7067  -32.5593   23.1190 H   0  0  0  0  0  0
  -25.0032  -33.9819   25.0499 H   0  0  0  0  0  0
  -22.6765  -31.3108   21.4178 H   0  0  0  0  0  0
  -23.3737  -35.9678   23.3319 H   0  0  0  0  0  0
  -24.3586  -36.8919   22.2046 H   0  0  0  0  0  0
  -23.7264  -37.6551   23.6634 H   0  0  0  0  0  0
  -26.0150  -31.6151   20.5905 H   0  0  0  0  0  0
  -26.8057  -30.9135   21.9739 H   0  0  0  0  0  0
  -28.0795  -29.1733   21.1733 H   0  0  0  0  0  0
  -26.1034  -26.0111   18.9935 H   0  0  0  0  0  0
  -23.9849  -27.2963   19.0360 H   0  0  0  0  0  0
  -23.7008  -30.6009   19.4070 H   0  0  0  0  0  0
  -22.7250  -29.2417   19.8774 H   0  0  0  0  0  0
  -25.1277  -36.1995   25.0834 H   0  0  0  0  0  0
  -20.9931  -28.3207   24.1459 H   0  0  0  0  0  0
  -20.5661  -26.2246   23.3600 H   0  0  0  0  0  0
  -21.6625  -26.7443   22.1223 H   0  0  0  0  0  0
  -19.6903  -25.6297   21.1229 H   0  0  0  0  0  0
  -19.6683  -27.3206   20.6753 H   0  0  0  0  0  0
  -17.4185  -26.6664   21.4020 H   0  0  0  0  0  0
  -18.0313  -26.0050   22.9013 H   0  0  0  0  0  0
  -19.7917  -30.7236   24.2294 H   0  0  0  0  0  0
  -17.5007  -31.6267   24.5161 H   0  0  0  0  0  0
  -15.5343  -30.2996   23.7636 H   0  0  0  0  0  0
  -15.8646  -28.0833   22.7044 H   0  0  0  0  0  0
  -24.5903  -30.7061   25.7833 H   0  0  0  0  0  0
  -24.8960  -32.2864   26.4960 H   0  0  0  0  0  0
  -25.8122  -30.8855   27.0226 H   0  0  0  0  0  0
  -26.2802  -29.6823   24.1122 H   0  0  0  0  0  0
  -27.4077  -29.7268   25.4486 H   0  0  0  0  0  0
  -27.8628  -30.4373   23.9166 H   0  0  0  0  0  0
  -27.2668  -33.3590   26.2100 H   0  0  0  0  0  0
  -28.3830  -32.6905   25.0282 H   0  0  0  0  0  0
  -28.0746  -31.8406   26.5348 H   0  0  0  0  0  0
  -28.2603  -38.0107   24.7506 H   0  0  0  0  0  0
  -28.1078  -36.2640   24.6277 H   0  0  0  0  0  0
  -27.2307  -37.1457   25.8863 H   0  0  0  0  0  0
  -20.9239  -29.8741   21.6992 H   0  0  0  0  0  0
  -26.0190  -38.2882   24.1405 H   0  0  0  0  0  0
  -33.4530  -18.8177   19.5256 H   0  0  0  0  0  0
  -31.2604  -16.3992   18.2342 H   0  0  0  0  0  0
  -31.9185  -17.9725   17.8995 H   0  0  0  0  0  0
  -31.2711  -19.0345   22.8394 H   0  0  0  0  0  0
  -32.6946  -18.4090   23.6455 H   0  0  0  0  0  0
  -32.5196  -16.2561   22.6132 H   0  0  0  0  0  0
  -30.8760  -16.6278   23.1059 H   0  0  0  0  0  0
  -29.1230  -18.2802   20.5294 H   0  0  0  0  0  0
  -27.8844  -17.8526   19.4106 H   0  0  0  0  0  0
  -28.2099  -15.9057   20.7296 H   0  0  0  0  0  0
  -28.9495  -15.5982   19.1452 H   0  0  0  0  0  0
  -29.9265  -19.1165   18.5033 H   0  0  0  0  0  0
  -29.7880  -22.5035   18.3492 H   0  0  0  0  0  0
  -30.5807  -21.4605   19.5270 H   0  0  0  0  0  0
  -31.4494  -22.1286   18.1301 H   0  0  0  0  0  0
  -34.3738  -26.4139   21.4772 H   0  0  0  0  0  0
  -34.7507  -25.5360   20.0438 H   0  0  0  0  0  0
  -34.7206  -24.7041   21.6101 H   0  0  0  0  0  0
  -28.4828  -22.8770   20.1891 H   0  0  0  0  0  0
  -28.2017  -24.2551   19.1158 H   0  0  0  0  0  0
  -27.9616  -24.3818   20.8636 H   0  0  0  0  0  0
  -32.7786  -26.8912   22.8254 H   0  0  0  0  0  0
  -31.2093  -27.5438   22.6171 H   0  0  0  0  0  0
  -32.4642  -27.9450   21.4350 H   0  0  0  0  0  0
  -28.9336  -16.6251   17.0377 H   0  0  0  0  0  0
  -29.8518  -17.9198   16.2891 H   0  0  0  0  0  0
  -28.2640  -18.2506   16.9661 H   0  0  0  0  0  0
  -34.5757  -23.4291   19.6231 H   0  0  0  0  0  0
  -33.5014  -23.0002   18.3735 H   0  0  0  0  0  0
  -29.6703  -27.6657   21.2114 H   0  0  0  0  0  0
  -28.7103  -26.4203   22.0147 H   0  0  0  0  0  0
  -34.9856  -19.7240   21.4842 H   0  0  0  0  0  0
  -34.1652  -20.0540   22.9829 H   0  0  0  0  0  0
  -34.5549  -21.0892   19.5450 H   0  0  0  0  0  0
  -32.8218  -20.9819   19.5335 H   0  0  0  0  0  0
  -34.3324  -22.0142   21.8143 H   0  0  0  0  0  0
  -32.7537  -21.6378   21.7994 H   0  0  0  0  0  0
  1 25  1  0  0  0
  1 30  2  0  0  0
  1 96  1  0  0  0
  2  3  1  0  0  0
  2 25  1  0  0  0
  2 98  1  0  0  0
  2 99  1  0  0  0
  3  4  1  0  0  0
  3100  1  0  0  0
  3101  1  0  0  0
  4  5  1  0  0  0
  4102  1  0  0  0
  4103  1  0  0  0
  5  6  1  0  0  0
  5 26  1  0  0  0
  5104  1  0  0  0
  6 25  1  0  0  0
  6105  1  0  0  0
  6106  1  0  0  0
  7  8  2  0  0  0
  7 26  1  0  0  0
  7 29  1  0  0  0
  8  9  1  0  0  0
  8 22  1  0  0  0
  9 10  1  0  0  0
  9 27  2  0  0  0
 10 11  2  0  0  0
 10 15  1  0  0  0
 11 12  1  0  0  0
 11107  1  0  0  0
 12 13  2  0  0  0
 12108  1  0  0  0
 13 14  1  0  0  0
 13 31  1  0  0  0
 14 15  2  0  0  0
 14109  1  0  0  0
 15110  1  0  0  0
 16 17  2  0  0  0
 16 21  1  0  0  0
 16 31  1  0  0  0
 17 18  1  0  0  0
 17111  1  0  0  0
 18 19  2  0  0  0
 18112  1  0  0  0
 19 20  1  0  0  0
 19 24  1  0  0  0
 20 21  2  0  0  0
 20113  1  0  0  0
 21 23  1  0  0  0
 22 28  1  0  0  0
 22 32  2  0  0  0
 26 27  1  0  0  0
 28114  1  0  0  0
 28115  1  0  0  0
 29116  1  0  0  0
 29117  1  0  0  0
 33 34  1  0  0  0
 33 66  1  0  0  0
 33 70  2  0  0  0
 34 36  1  0  0  0
 34 59  1  0  0  0
 34118  1  0  0  0
 35 44  2  0  0  0
 35 45  1  0  0  0
 35 68  1  0  0  0
 36 56  1  0  0  0
 36119  1  0  0  0
 37 39  1  0  0  0
 37 47  1  0  0  0
 37 66  1  0  0  0
 37120  1  0  0  0
 38 43  2  0  0  0
 38 46  1  0  0  0
 38 47  1  0  0  0
 39 64  1  0  0  0
 39 67  2  0  0  0
 40 52  1  0  0  0
 40 53  2  0  0  0
 40 58  1  0  0  0
 41121  1  0  0  0
 41122  1  0  0  0
 41123  1  0  0  0
 41 48  1  0  0  0
 42 43  1  0  0  0
 42 66  1  0  0  0
 42124  1  0  0  0
 42125  1  0  0  0
 43 44  1  0  0  0
 44126  1  0  0  0
 45 46  2  0  0  0
 45127  1  0  0  0
 46128  1  0  0  0
 47129  1  0  0  0
 47130  1  0  0  0
 48 56  1  0  0  0
 48 65  1  0  0  0
 48131  1  0  0  0
 49 50  1  0  0  0
 49 53  1  0  0  0
 49 64  1  0  0  0
 49132  1  0  0  0
 50 51  1  0  0  0
 50133  1  0  0  0
 50134  1  0  0  0
 51 52  1  0  0  0
 51135  1  0  0  0
 51136  1  0  0  0
 52137  1  0  0  0
 52138  1  0  0  0
 53 54  1  0  0  0
 54 55  2  0  0  0
 54139  1  0  0  0
 55 57  1  0  0  0
 55140  1  0  0  0
 56 69  2  0  0  0
 57 58  2  0  0  0
 57141  1  0  0  0
 58142  1  0  0  0
 59 60  1  0  0  0
 59 61  1  0  0  0
 59 62  1  0  0  0
 60143  1  0  0  0
 60144  1  0  0  0
 60145  1  0  0  0
 61146  1  0  0  0
 61147  1  0  0  0
 61148  1  0  0  0
 62149  1  0  0  0
 62150  1  0  0  0
 62151  1  0  0  0
 63 65  1  0  0  0
 63152  1  0  0  0
 63153  1  0  0  0
 63154  1  0  0  0
 64155  1  0  0  0
 65156  1  0  0  0
 68 93  1  0  0  0
 71 73  2  0  0  0
 71 75  1  0  0  0
 71 87  1  0  0  0
 72 74  1  0  0  0
 72 75  2  0  0  0
 72 88  1  0  0  0
 73 76  1  0  0  0
 73 89  1  0  0  0
 74 76  2  0  0  0
 74 90  1  0  0  0
 75 92  1  0  0  0
 76 93  1  0  0  0
 77 78  1  0  0  0
 77 79  2  0  0  0
 77157  1  0  0  0
 78 80  2  0  0  0
 78 81  1  0  0  0
 79 82  1  0  0  0
 79 94  1  0  0  0
 80 83  1  0  0  0
 80 96  1  0  0  0
 81 86  1  0  0  0
 81158  1  0  0  0
 81159  1  0  0  0
 82 83  1  0  0  0
 82160  1  0  0  0
 82161  1  0  0  0
 83162  1  0  0  0
 83163  1  0  0  0
 84 85  1  0  0  0
 84 86  1  0  0  0
 84164  1  0  0  0
 84165  1  0  0  0
 85 96  1  0  0  0
 85166  1  0  0  0
 85167  1  0  0  0
 86 91  1  0  0  0
 86168  1  0  0  0
 87169  1  0  0  0
 87170  1  0  0  0
 87171  1  0  0  0
 88172  1  0  0  0
 88173  1  0  0  0
 88174  1  0  0  0
 89175  1  0  0  0
 89176  1  0  0  0
 89177  1  0  0  0
 90178  1  0  0  0
 90179  1  0  0  0
 90180  1  0  0  0
 91181  1  0  0  0
 91182  1  0  0  0
 91183  1  0  0  0
 92 95  1  0  0  0
 92184  1  0  0  0
 92185  1  0  0  0
 93186  1  0  0  0
 93187  1  0  0  0
 94 97  1  0  0  0
 94188  1  0  0  0
 94189  1  0  0  0
 95 97  1  0  0  0
 95190  1  0  0  0
 95191  1  0  0  0
 97192  1  0  0  0
 97193  1  0  0  0
M  CHG  1  97   1
M  ISO  4   1 100  68 101  93 101  96 100
M  END
> <chiral flag>
0

> <version>
0

> <s_m_source_file>
/data/baiqing/PycharmProjects/Reinvent-master-3.2/result/LINK_invent/BTK/process_docking_weight1_custom_sum_contain_oxygen_bond_distance_aromatic_linkinvent_7_9_3/rearranged_h_0161.sdf

> <i_m_source_file_index>
56

> <r_mmod_Potential_Energy-OPLS-2005>
122.095901489258

> <r_mmod_Stretch_Energy-OPLS-2005>
50.5286598205566

> <r_mmod_Bend_Energy-OPLS-2005>
142.224685668945

> <r_mmod_Torsional_Energy-OPLS-2005>
380.278656005859

> <r_mmod_Improper_Torsional_Energy-OPLS-2005>
6.35644674301147

> <r_mmod_Van_der_Waal_Energy-OPLS-2005>
223.644866943359

> <r_mmod_Electrostatic_Energy-OPLS-2005>
-288.026641845703

> <r_mmod_Solvation_Energy-OPLS-2005>
-426.777221679688

> <b_mmod_Minimization_Converged-OPLS-2005>
0

> <r_mmod_RMS_Derivative-OPLS-2005>
2.62208819389343

$$$$
56
                    3D
 Structure written by MMmdl.
179188  0  0  1  0            999 V2000
  -30.7334  -14.4730   20.4810 C   0  0  0  0  0  0
  -30.3963  -12.2699   19.4394 C   0  0  0  0  0  0
  -29.4923  -12.4551   18.2054 C   0  0  0  0  0  0
  -28.0086  -12.3455   18.6123 C   0  0  0  0  0  0
  -27.6476  -13.2036   19.8584 C   0  0  2  0  0  0
  -28.6981  -13.0671   20.9856 C   0  0  0  0  0  0
  -25.2559  -13.8158   20.5686 C   0  0  0  0  0  0
  -24.1834  -13.0445   20.9183 C   0  0  0  0  0  0
  -24.6371  -11.6904   20.8780 C   0  0  0  0  0  0
  -23.9051  -10.4295   21.0436 C   0  0  0  0  0  0
  -24.3609   -9.4200   21.9214 C   0  0  0  0  0  0
  -23.6290   -8.2239   22.0786 C   0  0  0  0  0  0
  -22.4283   -8.0273   21.3544 C   0  0  0  0  0  0
  -21.9913   -9.0251   20.4648 C   0  0  0  0  0  0
  -22.7249  -10.2135   20.3071 C   0  0  0  0  0  0
  -21.6844   -6.0754   22.5278 C   0  0  0  0  0  0
  -21.4019   -6.5660   23.8217 C   0  0  0  0  0  0
  -21.3663   -5.6800   24.9163 C   0  0  0  0  0  0
  -21.6046   -4.3063   24.7201 C   0  0  0  0  0  0
  -21.8832   -3.8169   23.4326 C   0  0  0  0  0  0
  -21.9192   -4.6987   22.3388 C   0  0  0  0  0  0
  -22.7860  -13.5247   21.1824 C   0  0  0  0  0  0
  -22.1662   -4.2194   21.0952 F   0  0  0  0  0  0
  -21.5630   -3.4533   25.7693 F   0  0  0  0  0  0
  -30.0241  -13.3140   20.4040 N   0  0  0  0  0  0
  -26.2968  -12.9296   20.3355 N   0  0  0  0  0  0
  -25.9289  -11.6465   20.5807 N   0  0  0  0  0  0
  -22.0508  -12.8257   22.0377 N   0  0  0  0  0  0
  -25.4238  -15.1897   20.4132 N   0  0  0  0  0  0
  -31.9319  -14.5358   20.1998 O   0  0  0  0  0  0
  -21.6621   -6.8899   21.4242 O   0  0  0  0  0  0
  -22.3568  -14.5566   20.6657 O   0  0  0  0  0  0
  -24.6161  -31.8704   23.2120 C   0  0  0  0  0  0
  -25.9061  -32.4825   23.8397 C   0  0  1  0  0  0
  -27.2141  -27.4292   20.0927 C   0  0  0  0  0  0
  -25.5946  -33.8632   24.2324 N   0  0  0  0  0  0
  -23.3977  -30.4989   21.5573 C   0  0  2  0  0  0
  -24.8374  -28.9716   20.1113 C   0  0  0  0  0  0
  -22.7379  -29.4692   22.5029 C   0  0  0  0  0  0
  -18.0262  -28.1371   22.8531 C   0  0  0  0  0  0
  -24.1499  -36.7310   23.2624 C   0  0  0  0  0  0
  -25.9297  -30.8331   21.3664 C   0  0  0  0  0  0
  -26.0021  -29.4713   20.7065 C   0  0  0  0  0  0
  -27.1936  -28.7086   20.6962 C   0  0  0  0  0  0
  -26.0301  -26.9617   19.4689 C   0  0  0  0  0  0
  -24.8470  -27.7159   19.4892 C   0  0  0  0  0  0
  -23.5986  -29.8352   20.1710 C   0  0  0  0  0  0
  -25.4119  -36.3109   24.0332 C   0  0  1  0  0  0
  -20.5847  -28.3669   23.1342 C   0  0  2  0  0  0
  -20.6751  -26.9407   22.5436 C   0  0  0  0  0  0
  -19.5728  -26.6378   21.5233 C   0  0  0  0  0  0
  -18.1899  -26.7934   22.1630 C   0  0  0  0  0  0
  -19.1511  -28.8842   23.2923 C   0  0  0  0  0  0
  -18.9434  -30.1462   23.8912 C   0  0  0  0  0  0
  -17.6438  -30.6608   24.0555 C   0  0  0  0  0  0
  -25.9058  -34.9478   23.5116 C   0  0  0  0  0  0
  -16.5329  -29.9099   23.6333 C   0  0  0  0  0  0
  -16.7251  -28.6490   23.0401 C   0  0  0  0  0  0
  -26.4489  -31.6597   25.0728 C   0  0  0  0  0  0
  -25.3740  -31.3686   26.1462 C   0  0  0  0  0  0
  -27.0352  -30.3045   24.6132 C   0  0  0  0  0  0
  -27.6049  -32.4322   25.7517 C   0  0  0  0  0  0
  -27.5620  -37.1758   24.8426 C   0  0  0  0  0  0
  -21.4110  -29.3049   22.3751 N   0  0  0  0  0  0
  -26.4282  -37.3818   23.9458 N   0  0  0  0  0  0
  -24.6661  -31.0817   22.1019 N   0  0  0  0  0  0
  -23.4157  -28.8225   23.3056 O   0  0  0  0  0  0
  -28.3620  -26.6583   20.1516 O   0  0  0  0  0  0
  -26.5613  -34.8933   22.4669 O   0  0  0  0  0  0
  -23.5354  -32.1464   23.7517 O   0  0  0  0  0  0
  -31.4973  -23.3424   19.7474 C   0  0  0  0  0  0
  -31.3459  -22.3736   20.7762 C   0  0  0  0  0  0
  -30.4665  -24.2879   19.5066 C   0  0  0  0  0  0
  -29.2816  -23.4891   21.5110 C   0  0  0  0  0  0
  -30.2317  -22.4350   21.6620 C   0  0  0  0  0  0
  -29.3460  -24.3462   20.3737 C   0  0  0  0  0  0
  -29.4928  -20.0211   22.2569 C   0  0  0  0  0  0
  -30.4066  -17.2222   18.8588 C   0  0  0  0  0  0
  -31.1324  -17.7006   20.1058 C   0  0  0  0  0  0
  -29.4386  -16.1592   19.3701 C   0  0  0  0  0  0
  -30.6091  -16.8137   21.2582 C   0  0  1  0  0  0
  -32.7559  -23.3636   18.8780 C   0  0  0  0  0  0
  -32.3997  -21.2715   20.9285 C   0  0  0  0  0  0
  -30.5302  -25.2420   18.3084 C   0  0  0  0  0  0
  -28.1875  -23.6981   22.5628 C   0  0  0  0  0  0
  -31.0104  -18.7546   23.7644 C   0  0  0  0  0  0
  -30.0756  -21.3667   22.7735 C   0  0  0  0  0  0
  -28.1590  -25.2432   19.9953 C   0  0  0  0  0  0
  -29.5697  -17.5184   22.1813 C   0  0  0  0  0  0
  -30.0136  -15.6199   20.6137 N   0  0  0  0  0  0
  -30.0166  -18.8373   22.6890 N   0  0  0  0  0  0
  -28.5644  -20.0596   21.4412 O   0  0  0  0  0  0
  -31.4495  -12.3047   19.1559 H   0  0  0  0  0  0
  -30.2318  -11.2831   19.8753 H   0  0  0  0  0  0
  -29.7252  -11.7036   17.4487 H   0  0  0  0  0  0
  -29.6868  -13.4207   17.7404 H   0  0  0  0  0  0
  -27.8033  -11.2936   18.8170 H   0  0  0  0  0  0
  -27.3682  -12.6191   17.7720 H   0  0  0  0  0  0
  -27.6461  -14.2356   19.5239 H   0  0  0  0  0  0
  -28.6674  -12.0734   21.4343 H   0  0  0  0  0  0
  -28.4874  -13.7732   21.7905 H   0  0  0  0  0  0
  -25.2767   -9.5680   22.4778 H   0  0  0  0  0  0
  -23.9995   -7.4643   22.7519 H   0  0  0  0  0  0
  -21.0854   -8.8765   19.8943 H   0  0  0  0  0  0
  -22.3722  -10.9663   19.6169 H   0  0  0  0  0  0
  -21.2030   -7.6174   23.9726 H   0  0  0  0  0  0
  -21.1485   -6.0525   25.9067 H   0  0  0  0  0  0
  -22.0627   -2.7643   23.2781 H   0  0  0  0  0  0
  -22.4122  -11.9899   22.4738 H   0  0  0  0  0  0
  -21.1137  -13.1303   22.2609 H   0  0  0  0  0  0
  -24.6555  -15.8382   20.5448 H   0  0  0  0  0  0
  -26.2798  -15.6447   20.1248 H   0  0  0  0  0  0
  -26.7132  -32.5548   23.1161 H   0  0  0  0  0  0
  -25.0152  -33.9802   25.0512 H   0  0  0  0  0  0
  -22.6858  -31.3174   21.4247 H   0  0  0  0  0  0
  -23.3846  -35.9545   23.3109 H   0  0  0  0  0  0
  -24.3615  -36.9124   22.2076 H   0  0  0  0  0  0
  -23.7128  -37.6399   23.6777 H   0  0  0  0  0  0
  -26.0506  -31.6033   20.6030 H   0  0  0  0  0  0
  -26.8134  -30.8733   21.9910 H   0  0  0  0  0  0
  -28.0877  -29.0859   21.1732 H   0  0  0  0  0  0
  -25.9826  -26.0106   18.9600 H   0  0  0  0  0  0
  -23.9541  -27.3264   19.0218 H   0  0  0  0  0  0
  -23.6916  -30.6098   19.4096 H   0  0  0  0  0  0
  -22.7214  -29.2507   19.8874 H   0  0  0  0  0  0
  -25.1264  -36.1944   25.0812 H   0  0  0  0  0  0
  -20.9953  -28.3243   24.1455 H   0  0  0  0  0  0
  -20.5692  -26.2267   23.3614 H   0  0  0  0  0  0
  -21.6619  -26.7467   22.1214 H   0  0  0  0  0  0
  -19.6892  -25.6295   21.1243 H   0  0  0  0  0  0
  -19.6668  -27.3178   20.6748 H   0  0  0  0  0  0
  -17.4196  -26.6777   21.3990 H   0  0  0  0  0  0
  -18.0222  -26.0040   22.8967 H   0  0  0  0  0  0
  -19.7920  -30.7268   24.2274 H   0  0  0  0  0  0
  -17.5005  -31.6298   24.5148 H   0  0  0  0  0  0
  -15.5321  -30.3003   23.7646 H   0  0  0  0  0  0
  -15.8654  -28.0770   22.7157 H   0  0  0  0  0  0
  -24.5947  -30.7001   25.7784 H   0  0  0  0  0  0
  -24.8908  -32.2833   26.4894 H   0  0  0  0  0  0
  -25.8102  -30.8872   27.0225 H   0  0  0  0  0  0
  -26.2918  -29.6773   24.1203 H   0  0  0  0  0  0
  -27.4132  -29.7314   25.4610 H   0  0  0  0  0  0
  -27.8738  -30.4364   23.9289 H   0  0  0  0  0  0
  -27.2658  -33.3620   26.2093 H   0  0  0  0  0  0
  -28.3871  -32.6865   25.0352 H   0  0  0  0  0  0
  -28.0706  -31.8442   26.5438 H   0  0  0  0  0  0
  -28.2465  -38.0227   24.7766 H   0  0  0  0  0  0
  -28.1299  -36.2786   24.5905 H   0  0  0  0  0  0
  -27.2378  -37.0965   25.8817 H   0  0  0  0  0  0
  -20.9260  -29.8802   21.7003 H   0  0  0  0  0  0
  -26.0164  -38.2858   24.1634 H   0  0  0  0  0  0
  -31.1204  -16.7775   18.1618 H   0  0  0  0  0  0
  -29.8921  -18.0293   18.3359 H   0  0  0  0  0  0
  -30.9631  -18.7621   20.2555 H   0  0  0  0  0  0
  -32.2093  -17.5704   19.9828 H   0  0  0  0  0  0
  -29.2691  -15.4171   18.5923 H   0  0  0  0  0  0
  -28.4681  -16.6028   19.5929 H   0  0  0  0  0  0
  -31.4576  -16.5206   21.8823 H   0  0  0  0  0  0
  -33.5937  -22.8095   19.2955 H   0  0  0  0  0  0
  -33.1308  -24.3810   18.7672 H   0  0  0  0  0  0
  -32.5440  -22.9632   17.8863 H   0  0  0  0  0  0
  -32.7635  -20.9257   19.9611 H   0  0  0  0  0  0
  -32.0332  -20.3733   21.4099 H   0  0  0  0  0  0
  -33.2451  -21.6277   21.5169 H   0  0  0  0  0  0
  -31.4098  -25.1345   17.6797 H   0  0  0  0  0  0
  -30.5068  -26.2772   18.6478 H   0  0  0  0  0  0
  -29.6820  -25.0853   17.6435 H   0  0  0  0  0  0
  -28.5781  -23.5905   23.5737 H   0  0  0  0  0  0
  -27.3654  -22.9958   22.4232 H   0  0  0  0  0  0
  -27.7821  -24.7102   22.5622 H   0  0  0  0  0  0
  -31.9744  -19.1477   23.4376 H   0  0  0  0  0  0
  -31.1870  -17.7293   24.0903 H   0  0  0  0  0  0
  -30.6858  -19.3118   24.6440 H   0  0  0  0  0  0
  -29.4310  -21.6810   23.5881 H   0  0  0  0  0  0
  -31.0469  -21.2474   23.2489 H   0  0  0  0  0  0
  -27.2650  -24.9173   20.5257 H   0  0  0  0  0  0
  -27.9230  -25.0332   18.9519 H   0  0  0  0  0  0
  -29.3283  -16.8699   23.0246 H   0  0  0  0  0  0
  -28.6232  -17.6227   21.6497 H   0  0  0  0  0  0
  1 25  1  0  0  0
  1 30  2  0  0  0
  1 90  1  0  0  0
  2  3  1  0  0  0
  2 25  1  0  0  0
  2 93  1  0  0  0
  2 94  1  0  0  0
  3  4  1  0  0  0
  3 95  1  0  0  0
  3 96  1  0  0  0
  4  5  1  0  0  0
  4 97  1  0  0  0
  4 98  1  0  0  0
  5  6  1  0  0  0
  5 26  1  0  0  0
  5 99  1  0  0  0
  6 25  1  0  0  0
  6100  1  0  0  0
  6101  1  0  0  0
  7  8  2  0  0  0
  7 26  1  0  0  0
  7 29  1  0  0  0
  8  9  1  0  0  0
  8 22  1  0  0  0
  9 10  1  0  0  0
  9 27  2  0  0  0
 10 11  2  0  0  0
 10 15  1  0  0  0
 11 12  1  0  0  0
 11102  1  0  0  0
 12 13  2  0  0  0
 12103  1  0  0  0
 13 14  1  0  0  0
 13 31  1  0  0  0
 14 15  2  0  0  0
 14104  1  0  0  0
 15105  1  0  0  0
 16 17  2  0  0  0
 16 21  1  0  0  0
 16 31  1  0  0  0
 17 18  1  0  0  0
 17106  1  0  0  0
 18 19  2  0  0  0
 18107  1  0  0  0
 19 20  1  0  0  0
 19 24  1  0  0  0
 20 21  2  0  0  0
 20108  1  0  0  0
 21 23  1  0  0  0
 22 28  1  0  0  0
 22 32  2  0  0  0
 26 27  1  0  0  0
 28109  1  0  0  0
 28110  1  0  0  0
 29111  1  0  0  0
 29112  1  0  0  0
 33 34  1  0  0  0
 33 66  1  0  0  0
 33 70  2  0  0  0
 34 36  1  0  0  0
 34 59  1  0  0  0
 34113  1  0  0  0
 35 44  2  0  0  0
 35 45  1  0  0  0
 35 68  1  0  0  0
 36 56  1  0  0  0
 36114  1  0  0  0
 37 39  1  0  0  0
 37 47  1  0  0  0
 37 66  1  0  0  0
 37115  1  0  0  0
 38 43  2  0  0  0
 38 46  1  0  0  0
 38 47  1  0  0  0
 39 64  1  0  0  0
 39 67  2  0  0  0
 40 52  1  0  0  0
 40 53  2  0  0  0
 40 58  1  0  0  0
 41116  1  0  0  0
 41117  1  0  0  0
 41118  1  0  0  0
 41 48  1  0  0  0
 42 43  1  0  0  0
 42 66  1  0  0  0
 42119  1  0  0  0
 42120  1  0  0  0
 43 44  1  0  0  0
 44121  1  0  0  0
 45 46  2  0  0  0
 45122  1  0  0  0
 46123  1  0  0  0
 47124  1  0  0  0
 47125  1  0  0  0
 48 56  1  0  0  0
 48 65  1  0  0  0
 48126  1  0  0  0
 49 50  1  0  0  0
 49 53  1  0  0  0
 49 64  1  0  0  0
 49127  1  0  0  0
 50 51  1  0  0  0
 50128  1  0  0  0
 50129  1  0  0  0
 51 52  1  0  0  0
 51130  1  0  0  0
 51131  1  0  0  0
 52132  1  0  0  0
 52133  1  0  0  0
 53 54  1  0  0  0
 54 55  2  0  0  0
 54134  1  0  0  0
 55 57  1  0  0  0
 55135  1  0  0  0
 56 69  2  0  0  0
 57 58  2  0  0  0
 57136  1  0  0  0
 58137  1  0  0  0
 59 60  1  0  0  0
 59 61  1  0  0  0
 59 62  1  0  0  0
 60138  1  0  0  0
 60139  1  0  0  0
 60140  1  0  0  0
 61141  1  0  0  0
 61142  1  0  0  0
 61143  1  0  0  0
 62144  1  0  0  0
 62145  1  0  0  0
 62146  1  0  0  0
 63 65  1  0  0  0
 63147  1  0  0  0
 63148  1  0  0  0
 63149  1  0  0  0
 64150  1  0  0  0
 65151  1  0  0  0
 68 88  1  0  0  0
 71 72  2  0  0  0
 71 73  1  0  0  0
 71 82  1  0  0  0
 72 75  1  0  0  0
 72 83  1  0  0  0
 73 76  2  0  0  0
 73 84  1  0  0  0
 74 75  2  0  0  0
 74 76  1  0  0  0
 74 85  1  0  0  0
 75 87  1  0  0  0
 76 88  1  0  0  0
 77 87  1  0  0  0
 77 91  1  0  0  0
 77 92  2  0  0  0
 78 79  1  0  0  0
 78 80  1  0  0  0
 78152  1  0  0  0
 78153  1  0  0  0
 79 81  1  0  0  0
 79154  1  0  0  0
 79155  1  0  0  0
 80 90  1  0  0  0
 80156  1  0  0  0
 80157  1  0  0  0
 81 89  1  0  0  0
 81 90  1  0  0  0
 81158  1  0  0  0
 82159  1  0  0  0
 82160  1  0  0  0
 82161  1  0  0  0
 83162  1  0  0  0
 83163  1  0  0  0
 83164  1  0  0  0
 84165  1  0  0  0
 84166  1  0  0  0
 84167  1  0  0  0
 85168  1  0  0  0
 85169  1  0  0  0
 85170  1  0  0  0
 86 91  1  0  0  0
 86171  1  0  0  0
 86172  1  0  0  0
 86173  1  0  0  0
 87174  1  0  0  0
 87175  1  0  0  0
 88176  1  0  0  0
 88177  1  0  0  0
 89 91  1  0  0  0
 89178  1  0  0  0
 89179  1  0  0  0
M  ISO  4   1 100  68 101  88 101  90 100
M  END
> <chiral flag>
0

> <version>
0

> <s_m_source_file>
/data/baiqing/PycharmProjects/Reinvent-master-3.2/result/LINK_invent/BTK/process_docking_weight1_custom_sum_contain_oxygen_bond_distance_aromatic_linkinvent_7_9_3/rearranged_h_0161.sdf

> <i_m_source_file_index>
57

> <r_mmod_Potential_Energy-OPLS-2005>
327.257476806641

> <r_mmod_Stretch_Energy-OPLS-2005>
52.8321380615234

> <r_mmod_Bend_Energy-OPLS-2005>
133.535568237305

> <r_mmod_Torsional_Energy-OPLS-2005>
398.2109375

> <r_mmod_Improper_Torsional_Energy-OPLS-2005>
11.9966487884521

> <r_mmod_Van_der_Waal_Energy-OPLS-2005>
193.579193115234

> <r_mmod_Electrostatic_Energy-OPLS-2005>
-270.206878662109

> <r_mmod_Solvation_Energy-OPLS-2005>
-218.393295288086

> <b_mmod_Minimization_Converged-OPLS-2005>
0

> <r_mmod_RMS_Derivative-OPLS-2005>
3.21481227874756

$$$$
57
                    3D
 Structure written by MMmdl.
171180  0  0  1  0            999 V2000
  -30.7813  -14.6583   20.4335 C   0  0  0  0  0  0
  -30.4233  -12.4133   19.4395 C   0  0  0  0  0  0
  -29.4934  -12.4579   18.2134 C   0  0  0  0  0  0
  -28.0291  -12.2965   18.6575 C   0  0  0  0  0  0
  -27.6493  -13.2231   19.8445 C   0  0  2  0  0  0
  -28.7204  -13.2035   20.9622 C   0  0  0  0  0  0
  -25.2602  -13.8185   20.5700 C   0  0  0  0  0  0
  -24.1859  -13.0428   20.9224 C   0  0  0  0  0  0
  -24.6443  -11.6912   20.8809 C   0  0  0  0  0  0
  -23.9089  -10.4289   21.0436 C   0  0  0  0  0  0
  -24.3637   -9.4204   21.9208 C   0  0  0  0  0  0
  -23.6313   -8.2241   22.0767 C   0  0  0  0  0  0
  -22.4311   -8.0286   21.3551 C   0  0  0  0  0  0
  -21.9928   -9.0260   20.4663 C   0  0  0  0  0  0
  -22.7252  -10.2148   20.3077 C   0  0  0  0  0  0
  -21.6852   -6.0740   22.5278 C   0  0  0  0  0  0
  -21.4006   -6.5648   23.8209 C   0  0  0  0  0  0
  -21.3660   -5.6814   24.9178 C   0  0  0  0  0  0
  -21.6034   -4.3069   24.7226 C   0  0  0  0  0  0
  -21.8831   -3.8151   23.4349 C   0  0  0  0  0  0
  -21.9199   -4.6967   22.3399 C   0  0  0  0  0  0
  -22.7875  -13.5246   21.1808 C   0  0  0  0  0  0
  -22.1680   -4.2167   21.0973 F   0  0  0  0  0  0
  -21.5620   -3.4536   25.7730 F   0  0  0  0  0  0
  -30.0113  -13.5196   20.3317 N   0  0  0  0  0  0
  -26.3051  -12.9369   20.3390 N   0  0  0  0  0  0
  -25.9394  -11.6525   20.5846 N   0  0  0  0  0  0
  -22.0508  -12.8271   22.0379 N   0  0  0  0  0  0
  -25.4226  -15.1876   20.4013 N   0  0  0  0  0  0
  -31.9923  -14.5610   20.2314 O   0  0  0  0  0  0
  -21.6668   -6.8888   21.4239 O   0  0  0  0  0  0
  -22.3566  -14.5521   20.6622 O   0  0  0  0  0  0
  -24.6227  -31.8623   23.2062 C   0  0  0  0  0  0
  -25.9090  -32.4759   23.8360 C   0  0  1  0  0  0
  -27.1992  -27.3268   20.0658 C   0  0  0  0  0  0
  -25.5913  -33.8563   24.2267 N   0  0  0  0  0  0
  -23.4134  -30.4978   21.5490 C   0  0  2  0  0  0
  -24.8548  -28.9684   20.1052 C   0  0  0  0  0  0
  -22.7423  -29.4668   22.4892 C   0  0  0  0  0  0
  -18.0310  -28.1376   22.8467 C   0  0  0  0  0  0
  -24.1506  -36.7286   23.2639 C   0  0  0  0  0  0
  -25.9603  -30.7915   21.3831 C   0  0  0  0  0  0
  -26.0263  -29.4213   20.7190 C   0  0  0  0  0  0
  -27.1963  -28.6023   20.7128 C   0  0  0  0  0  0
  -26.0104  -26.9641   19.3886 C   0  0  0  0  0  0
  -24.8442  -27.7379   19.4453 C   0  0  0  0  0  0
  -23.6226  -29.8457   20.1618 C   0  0  0  0  0  0
  -25.4128  -36.3056   24.0316 C   0  0  1  0  0  0
  -20.5916  -28.3696   23.1275 C   0  0  2  0  0  0
  -20.6797  -26.9405   22.5430 C   0  0  0  0  0  0
  -19.5781  -26.6376   21.5210 C   0  0  0  0  0  0
  -18.1955  -26.7927   22.1603 C   0  0  0  0  0  0
  -19.1560  -28.8841   23.2879 C   0  0  0  0  0  0
  -18.9474  -30.1439   23.8905 C   0  0  0  0  0  0
  -17.6471  -30.6570   24.0552 C   0  0  0  0  0  0
  -25.9069  -34.9427   23.5104 C   0  0  0  0  0  0
  -16.5362  -29.9067   23.6332 C   0  0  0  0  0  0
  -16.7298  -28.6490   23.0341 C   0  0  0  0  0  0
  -26.4513  -31.6537   25.0702 C   0  0  0  0  0  0
  -25.3744  -31.3622   26.1413 C   0  0  0  0  0  0
  -27.0356  -30.2950   24.6164 C   0  0  0  0  0  0
  -27.6081  -32.4254   25.7462 C   0  0  0  0  0  0
  -27.5585  -37.1788   24.8456 C   0  0  0  0  0  0
  -21.4163  -29.3033   22.3616 N   0  0  0  0  0  0
  -26.4299  -37.3733   23.9395 N   0  0  0  0  0  0
  -24.6850  -31.0669   22.1013 N   0  0  0  0  0  0
  -23.4171  -28.8200   23.2942 O   0  0  0  0  0  0
  -28.3036  -26.4573   20.1453 O   0  0  0  0  0  0
  -26.5636  -34.8900   22.4675 O   0  0  0  0  0  0
  -23.5380  -32.1440   23.7392 O   0  0  0  0  0  0
  -27.9984  -20.7093   22.2815 C   0  0  0  0  0  0
  -28.5526  -21.3899   21.1757 C   0  0  0  0  0  0
  -26.8900  -21.1519   22.9966 C   0  0  0  0  0  0
  -28.0425  -22.7393   20.8941 C   0  0  0  0  0  0
  -26.2507  -22.3364   22.6100 C   0  0  0  0  0  0
  -26.8193  -23.1155   21.5616 C   0  0  0  0  0  0
  -29.6222  -20.5441   20.4374 C   0  0  0  0  0  0
  -28.7300  -18.0033   20.6435 C   0  0  0  0  0  0
  -31.2045  -18.3226   20.3876 C   0  0  0  0  0  0
  -29.0465  -16.4922   20.9591 C   0  0  0  0  0  0
  -30.9899  -17.0119   19.5573 C   0  0  0  0  0  0
  -29.8988  -19.0219   20.8780 C   0  0  0  0  0  0
  -26.3881  -20.2684   24.1261 C   0  0  0  0  0  0
  -24.9437  -22.7318   23.3101 C   0  0  0  0  0  0
  -26.0278  -24.3319   21.1365 C   0  0  0  0  0  0
  -28.8297  -23.7477   19.9549 C   0  0  0  0  0  0
  -28.3612  -25.1844   19.3826 C   0  0  0  0  0  0
  -30.2339  -15.9287   20.2728 N   0  0  0  0  0  0
  -30.2839  -21.0048   19.5054 O   0  0  0  0  0  0
  -31.4609  -12.4870   19.1054 H   0  0  0  0  0  0
  -30.3507  -11.4521   19.9495 H   0  0  0  0  0  0
  -29.7579  -11.6621   17.5173 H   0  0  0  0  0  0
  -29.6229  -13.3958   17.6729 H   0  0  0  0  0  0
  -27.8975  -11.2514   18.9438 H   0  0  0  0  0  0
  -27.3552  -12.4635   17.8141 H   0  0  0  0  0  0
  -27.6302  -14.2252   19.4202 H   0  0  0  0  0  0
  -28.7652  -12.2255   21.4447 H   0  0  0  0  0  0
  -28.4871  -13.9197   21.7506 H   0  0  0  0  0  0
  -25.2783   -9.5676   22.4782 H   0  0  0  0  0  0
  -24.0021   -7.4625   22.7483 H   0  0  0  0  0  0
  -21.0860   -8.8777   19.8962 H   0  0  0  0  0  0
  -22.3714  -10.9693   19.6184 H   0  0  0  0  0  0
  -21.2009   -7.6164   23.9713 H   0  0  0  0  0  0
  -21.1464   -6.0545   25.9087 H   0  0  0  0  0  0
  -22.0615   -2.7613   23.2843 H   0  0  0  0  0  0
  -22.4148  -11.9982   22.4847 H   0  0  0  0  0  0
  -21.1095  -13.1250   22.2483 H   0  0  0  0  0  0
  -24.6436  -15.8290   20.4933 H   0  0  0  0  0  0
  -26.2633  -15.6343   20.0555 H   0  0  0  0  0  0
  -26.7117  -32.5456   23.1055 H   0  0  0  0  0  0
  -24.9981  -33.9690   25.0365 H   0  0  0  0  0  0
  -22.7068  -31.3184   21.4088 H   0  0  0  0  0  0
  -23.3755  -35.9629   23.3275 H   0  0  0  0  0  0
  -24.3602  -36.8949   22.2065 H   0  0  0  0  0  0
  -23.7295  -37.6485   23.6705 H   0  0  0  0  0  0
  -26.1028  -31.5600   20.6208 H   0  0  0  0  0  0
  -26.8350  -30.8287   22.0216 H   0  0  0  0  0  0
  -28.0891  -28.9366   21.2209 H   0  0  0  0  0  0
  -25.9004  -26.0687   18.8067 H   0  0  0  0  0  0
  -23.9449  -27.3905   18.9567 H   0  0  0  0  0  0
  -23.7241  -30.6223   19.4029 H   0  0  0  0  0  0
  -22.7442  -29.2668   19.8712 H   0  0  0  0  0  0
  -25.1295  -36.1895   25.0795 H   0  0  0  0  0  0
  -21.0039  -28.3313   24.1380 H   0  0  0  0  0  0
  -20.5701  -26.2280   23.3627 H   0  0  0  0  0  0
  -21.6677  -26.7414   22.1227 H   0  0  0  0  0  0
  -19.6968  -25.6278   21.1265 H   0  0  0  0  0  0
  -19.6790  -27.3151   20.6721 H   0  0  0  0  0  0
  -17.4236  -26.6679   21.3984 H   0  0  0  0  0  0
  -18.0353  -26.0065   22.9008 H   0  0  0  0  0  0
  -19.7963  -30.7258   24.2283 H   0  0  0  0  0  0
  -17.5032  -31.6266   24.5115 H   0  0  0  0  0  0
  -15.5361  -30.2949   23.7670 H   0  0  0  0  0  0
  -15.8709  -28.0806   22.7053 H   0  0  0  0  0  0
  -24.5970  -30.6916   25.7711 H   0  0  0  0  0  0
  -24.8870  -32.2743   26.4859 H   0  0  0  0  0  0
  -25.8075  -30.8791   27.0181 H   0  0  0  0  0  0
  -26.2948  -29.6650   24.1229 H   0  0  0  0  0  0
  -27.4070  -29.7245   25.4684 H   0  0  0  0  0  0
  -27.8789  -30.4172   23.9364 H   0  0  0  0  0  0
  -27.2731  -33.3585   26.2017 H   0  0  0  0  0  0
  -28.3918  -32.6761   25.0284 H   0  0  0  0  0  0
  -28.0710  -31.8369   26.5403 H   0  0  0  0  0  0
  -28.2541  -38.0129   24.7509 H   0  0  0  0  0  0
  -28.1131  -36.2667   24.6264 H   0  0  0  0  0  0
  -27.2307  -37.1391   25.8849 H   0  0  0  0  0  0
  -20.9294  -29.8733   21.6837 H   0  0  0  0  0  0
  -26.0181  -38.2795   24.1402 H   0  0  0  0  0  0
  -28.3895  -19.7694   22.6199 H   0  0  0  0  0  0
  -27.8512  -18.2847   21.2172 H   0  0  0  0  0  0
  -28.4032  -18.0799   19.6061 H   0  0  0  0  0  0
  -31.8561  -19.0125   19.8501 H   0  0  0  0  0  0
  -31.7777  -18.0377   21.2726 H   0  0  0  0  0  0
  -28.1733  -15.9137   20.6777 H   0  0  0  0  0  0
  -29.1679  -16.3591   22.0350 H   0  0  0  0  0  0
  -31.9635  -16.6791   19.1944 H   0  0  0  0  0  0
  -30.4450  -17.2651   18.6449 H   0  0  0  0  0  0
  -30.0892  -19.0915   21.9473 H   0  0  0  0  0  0
  -27.1009  -19.4702   24.3396 H   0  0  0  0  0  0
  -25.4372  -19.8080   23.8581 H   0  0  0  0  0  0
  -26.2700  -20.8319   25.0503 H   0  0  0  0  0  0
  -24.8335  -22.3118   24.3076 H   0  0  0  0  0  0
  -24.0937  -22.3815   22.7242 H   0  0  0  0  0  0
  -24.8445  -23.8068   23.4462 H   0  0  0  0  0  0
  -26.0621  -24.4105   20.0623 H   0  0  0  0  0  0
  -26.3939  -25.2319   21.6356 H   0  0  0  0  0  0
  -24.9593  -24.2502   21.3313 H   0  0  0  0  0  0
  -29.0193  -23.1634   19.0550 H   0  0  0  0  0  0
  -29.8100  -23.8850   20.4118 H   0  0  0  0  0  0
  -27.5571  -25.0265   18.6741 H   0  0  0  0  0  0
  -29.1586  -25.4395   18.6829 H   0  0  0  0  0  0
  1 25  1  0  0  0
  1 30  2  0  0  0
  1 88  1  0  0  0
  2  3  1  0  0  0
  2 25  1  0  0  0
  2 90  1  0  0  0
  2 91  1  0  0  0
  3  4  1  0  0  0
  3 92  1  0  0  0
  3 93  1  0  0  0
  4  5  1  0  0  0
  4 94  1  0  0  0
  4 95  1  0  0  0
  5  6  1  0  0  0
  5 26  1  0  0  0
  5 96  1  0  0  0
  6 25  1  0  0  0
  6 97  1  0  0  0
  6 98  1  0  0  0
  7  8  2  0  0  0
  7 26  1  0  0  0
  7 29  1  0  0  0
  8  9  1  0  0  0
  8 22  1  0  0  0
  9 10  1  0  0  0
  9 27  2  0  0  0
 10 11  2  0  0  0
 10 15  1  0  0  0
 11 12  1  0  0  0
 11 99  1  0  0  0
 12 13  2  0  0  0
 12100  1  0  0  0
 13 14  1  0  0  0
 13 31  1  0  0  0
 14 15  2  0  0  0
 14101  1  0  0  0
 15102  1  0  0  0
 16 17  2  0  0  0
 16 21  1  0  0  0
 16 31  1  0  0  0
 17 18  1  0  0  0
 17103  1  0  0  0
 18 19  2  0  0  0
 18104  1  0  0  0
 19 20  1  0  0  0
 19 24  1  0  0  0
 20 21  2  0  0  0
 20105  1  0  0  0
 21 23  1  0  0  0
 22 28  1  0  0  0
 22 32  2  0  0  0
 26 27  1  0  0  0
 28106  1  0  0  0
 28107  1  0  0  0
 29108  1  0  0  0
 29109  1  0  0  0
 33 34  1  0  0  0
 33 66  1  0  0  0
 33 70  2  0  0  0
 34 36  1  0  0  0
 34 59  1  0  0  0
 34110  1  0  0  0
 35 44  2  0  0  0
 35 45  1  0  0  0
 35 68  1  0  0  0
 36 56  1  0  0  0
 36111  1  0  0  0
 37 39  1  0  0  0
 37 47  1  0  0  0
 37 66  1  0  0  0
 37112  1  0  0  0
 38 43  2  0  0  0
 38 46  1  0  0  0
 38 47  1  0  0  0
 39 64  1  0  0  0
 39 67  2  0  0  0
 40 52  1  0  0  0
 40 53  2  0  0  0
 40 58  1  0  0  0
 41113  1  0  0  0
 41114  1  0  0  0
 41115  1  0  0  0
 41 48  1  0  0  0
 42 43  1  0  0  0
 42 66  1  0  0  0
 42116  1  0  0  0
 42117  1  0  0  0
 43 44  1  0  0  0
 44118  1  0  0  0
 45 46  2  0  0  0
 45119  1  0  0  0
 46120  1  0  0  0
 47121  1  0  0  0
 47122  1  0  0  0
 48 56  1  0  0  0
 48 65  1  0  0  0
 48123  1  0  0  0
 49 50  1  0  0  0
 49 53  1  0  0  0
 49 64  1  0  0  0
 49124  1  0  0  0
 50 51  1  0  0  0
 50125  1  0  0  0
 50126  1  0  0  0
 51 52  1  0  0  0
 51127  1  0  0  0
 51128  1  0  0  0
 52129  1  0  0  0
 52130  1  0  0  0
 53 54  1  0  0  0
 54 55  2  0  0  0
 54131  1  0  0  0
 55 57  1  0  0  0
 55132  1  0  0  0
 56 69  2  0  0  0
 57 58  2  0  0  0
 57133  1  0  0  0
 58134  1  0  0  0
 59 60  1  0  0  0
 59 61  1  0  0  0
 59 62  1  0  0  0
 60135  1  0  0  0
 60136  1  0  0  0
 60137  1  0  0  0
 61138  1  0  0  0
 61139  1  0  0  0
 61140  1  0  0  0
 62141  1  0  0  0
 62142  1  0  0  0
 62143  1  0  0  0
 63 65  1  0  0  0
 63144  1  0  0  0
 63145  1  0  0  0
 63146  1  0  0  0
 64147  1  0  0  0
 65148  1  0  0  0
 68 87  1  0  0  0
 71 72  2  0  0  0
 71 73  1  0  0  0
 71149  1  0  0  0
 72 74  1  0  0  0
 72 77  1  0  0  0
 73 75  2  0  0  0
 73 83  1  0  0  0
 74 76  2  0  0  0
 74 86  1  0  0  0
 75 76  1  0  0  0
 75 84  1  0  0  0
 76 85  1  0  0  0
 77 89  2  0  0  0
 77 82  1  0  0  0
 78 80  1  0  0  0
 78 82  1  0  0  0
 78150  1  0  0  0
 78151  1  0  0  0
 79 81  1  0  0  0
 79 82  1  0  0  0
 79152  1  0  0  0
 79153  1  0  0  0
 80 88  1  0  0  0
 80154  1  0  0  0
 80155  1  0  0  0
 81 88  1  0  0  0
 81156  1  0  0  0
 81157  1  0  0  0
 82158  1  0  0  0
 83159  1  0  0  0
 83160  1  0  0  0
 83161  1  0  0  0
 84162  1  0  0  0
 84163  1  0  0  0
 84164  1  0  0  0
 85165  1  0  0  0
 85166  1  0  0  0
 85167  1  0  0  0
 86 87  1  0  0  0
 86168  1  0  0  0
 86169  1  0  0  0
 87170  1  0  0  0
 87171  1  0  0  0
M  ISO  4   1 100  68 101  87 101  88 100
M  END
> <chiral flag>
0

> <version>
0

> <s_m_source_file>
/data/baiqing/PycharmProjects/Reinvent-master-3.2/result/LINK_invent/BTK/process_docking_weight1_custom_sum_contain_oxygen_bond_distance_aromatic_linkinvent_7_9_3/rearranged_h_0161.sdf

> <i_m_source_file_index>
58

> <r_mmod_Potential_Energy-OPLS-2005>
527.309631347656

> <r_mmod_Stretch_Energy-OPLS-2005>
116.812408447266

> <r_mmod_Bend_Energy-OPLS-2005>
240.321624755859

> <r_mmod_Torsional_Energy-OPLS-2005>
346.823364257812

> <r_mmod_Improper_Torsional_Energy-OPLS-2005>
15.7674188613892

> <r_mmod_Van_der_Waal_Energy-OPLS-2005>
203.966827392578

> <r_mmod_Electrostatic_Energy-OPLS-2005>
-264.725830078125

> <r_mmod_Solvation_Energy-OPLS-2005>
-205.827209472656

> <b_mmod_Minimization_Converged-OPLS-2005>
0

> <r_mmod_RMS_Derivative-OPLS-2005>
5.68747138977051

$$$$
58
                    3D
 Structure written by MMmdl.
175184  0  0  1  0            999 V2000
  -30.6560  -14.6130   20.5137 C   0  0  0  0  0  0
  -30.4207  -12.3885   19.4472 C   0  0  0  0  0  0
  -29.4872  -12.4680   18.2224 C   0  0  0  0  0  0
  -28.0207  -12.2868   18.6494 C   0  0  0  0  0  0
  -27.6391  -13.1913   19.8473 C   0  0  2  0  0  0
  -28.6849  -13.0646   20.9802 C   0  0  0  0  0  0
  -25.2423  -13.8120   20.5552 C   0  0  0  0  0  0
  -24.1728  -13.0377   20.9230 C   0  0  0  0  0  0
  -24.6312  -11.6882   20.8786 C   0  0  0  0  0  0
  -23.8993  -10.4272   21.0440 C   0  0  0  0  0  0
  -24.3579   -9.4187   21.9200 C   0  0  0  0  0  0
  -23.6275   -8.2203   22.0742 C   0  0  0  0  0  0
  -22.4252   -8.0242   21.3516 C   0  0  0  0  0  0
  -21.9869   -9.0218   20.4612 C   0  0  0  0  0  0
  -22.7186  -10.2114   20.3055 C   0  0  0  0  0  0
  -21.6858   -6.0687   22.5263 C   0  0  0  0  0  0
  -21.4013   -6.5601   23.8200 C   0  0  0  0  0  0
  -21.3664   -5.6770   24.9176 C   0  0  0  0  0  0
  -21.6078   -4.3030   24.7241 C   0  0  0  0  0  0
  -21.8835   -3.8107   23.4365 C   0  0  0  0  0  0
  -21.9198   -4.6912   22.3401 C   0  0  0  0  0  0
  -22.7756  -13.5187   21.1893 C   0  0  0  0  0  0
  -22.1647   -4.2088   21.0972 F   0  0  0  0  0  0
  -21.5673   -3.4522   25.7761 F   0  0  0  0  0  0
  -29.9799  -13.4279   20.4017 N   0  0  0  0  0  0
  -26.2857  -12.9278   20.3223 N   0  0  0  0  0  0
  -25.9203  -11.6460   20.5721 N   0  0  0  0  0  0
  -22.0407  -12.8177   22.0482 N   0  0  0  0  0  0
  -25.3984  -15.1782   20.3679 N   0  0  0  0  0  0
  -31.8578  -14.6375   20.2260 O   0  0  0  0  0  0
  -21.6633   -6.8807   21.4218 O   0  0  0  0  0  0
  -22.3414  -14.5439   20.6671 O   0  0  0  0  0  0
  -24.6052  -31.8752   23.2134 C   0  0  0  0  0  0
  -25.8979  -32.4831   23.8398 C   0  0  1  0  0  0
  -27.2139  -27.4246   20.0912 C   0  0  0  0  0  0
  -25.5886  -33.8628   24.2337 N   0  0  0  0  0  0
  -23.3881  -30.5018   21.5604 C   0  0  2  0  0  0
  -24.8340  -28.9736   20.1195 C   0  0  0  0  0  0
  -22.7337  -29.4670   22.5069 C   0  0  0  0  0  0
  -18.0291  -28.1302   22.8471 C   0  0  0  0  0  0
  -24.1492  -36.7299   23.2656 C   0  0  0  0  0  0
  -25.9217  -30.8339   21.3706 C   0  0  0  0  0  0
  -25.9991  -29.4672   20.7257 C   0  0  0  0  0  0
  -27.1885  -28.6986   20.7175 C   0  0  0  0  0  0
  -26.0245  -26.9598   19.4785 C   0  0  0  0  0  0
  -24.8458  -27.7190   19.4977 C   0  0  0  0  0  0
  -23.5972  -29.8459   20.1732 C   0  0  0  0  0  0
  -25.4112  -36.3104   24.0356 C   0  0  1  0  0  0
  -20.5861  -28.3587   23.1377 C   0  0  2  0  0  0
  -20.6735  -26.9283   22.5481 C   0  0  0  0  0  0
  -19.5739  -26.6208   21.5252 C   0  0  0  0  0  0
  -18.1920  -26.7784   22.1679 C   0  0  0  0  0  0
  -19.1527  -28.8776   23.2911 C   0  0  0  0  0  0
  -18.9464  -30.1384   23.8898 C   0  0  0  0  0  0
  -17.6481  -30.6547   24.0506 C   0  0  0  0  0  0
  -25.9046  -34.9475   23.5147 C   0  0  0  0  0  0
  -16.5387  -29.9046   23.6263 C   0  0  0  0  0  0
  -16.7298  -28.6443   23.0344 C   0  0  0  0  0  0
  -26.4456  -31.6551   25.0652 C   0  0  0  0  0  0
  -25.3729  -31.3641   26.1390 C   0  0  0  0  0  0
  -27.0327  -30.3008   24.5973 C   0  0  0  0  0  0
  -27.6028  -32.4267   25.7408 C   0  0  0  0  0  0
  -27.5580  -37.1804   24.8473 C   0  0  0  0  0  0
  -21.4070  -29.2998   22.3786 N   0  0  0  0  0  0
  -26.4295  -37.3783   23.9414 N   0  0  0  0  0  0
  -24.6546  -31.0890   22.1036 N   0  0  0  0  0  0
  -23.4132  -28.8221   23.3089 O   0  0  0  0  0  0
  -28.3684  -26.6571   20.1397 O   0  0  0  0  0  0
  -26.5636  -34.8912   22.4713 O   0  0  0  0  0  0
  -23.5247  -32.1505   23.7572 O   0  0  0  0  0  0
  -27.7259  -23.5863   20.9028 C   0  0  0  0  0  0
  -29.3145  -23.0930   19.1120 C   0  0  0  0  0  0
  -27.7819  -22.2078   21.2902 C   0  0  0  0  0  0
  -29.4090  -21.7428   19.5733 C   0  0  0  0  0  0
  -28.5376  -24.0610   19.8224 C   0  0  0  0  0  0
  -28.8052  -21.3391   20.7945 C   0  0  0  0  0  0
  -30.8326  -18.1492   20.6746 C   0  0  0  0  0  0
  -28.3714  -17.7526   21.2183 C   0  0  0  0  0  0
  -30.5037  -16.9606   19.7353 C   0  0  0  0  0  0
  -28.7675  -16.2226   21.3052 C   0  0  0  0  0  0
  -29.5968  -18.6659   21.4550 C   0  0  0  0  0  0
  -26.7988  -24.5257   21.6852 C   0  0  0  0  0  0
  -30.0914  -23.5187   17.8549 C   0  0  0  0  0  0
  -26.6636  -21.6329   22.1632 C   0  0  0  0  0  0
  -30.0807  -20.6881   18.7063 C   0  0  0  0  0  0
  -29.1787  -20.4629   23.2198 C   0  0  0  0  0  0
  -28.5202  -25.5220   19.2623 C   0  0  0  0  0  0
  -29.4907  -20.2439   21.7188 C   0  0  2  0  0  0
  -29.9425  -15.8030   20.4763 N   0  0  0  0  0  0
  -31.4584  -12.5077   19.1303 H   0  0  0  0  0  0
  -30.3794  -11.4057   19.9151 H   0  0  0  0  0  0
  -29.7639  -11.7040   17.4925 H   0  0  0  0  0  0
  -29.6036  -13.4331   17.7276 H   0  0  0  0  0  0
  -27.8988  -11.2419   18.9352 H   0  0  0  0  0  0
  -27.3446  -12.4525   17.8076 H   0  0  0  0  0  0
  -27.6530  -14.2061   19.4552 H   0  0  0  0  0  0
  -28.7224  -12.0436   21.3590 H   0  0  0  0  0  0
  -28.4380  -13.6709   21.8481 H   0  0  0  0  0  0
  -25.2710   -9.5698   22.4789 H   0  0  0  0  0  0
  -23.9989   -7.4597   22.7466 H   0  0  0  0  0  0
  -21.0803   -8.8766   19.8897 H   0  0  0  0  0  0
  -22.3639  -10.9676   19.6182 H   0  0  0  0  0  0
  -21.1983   -7.6097   23.9683 H   0  0  0  0  0  0
  -21.1459   -6.0491   25.9077 H   0  0  0  0  0  0
  -22.0600   -2.7562   23.2887 H   0  0  0  0  0  0
  -22.4067  -11.9850   22.4840 H   0  0  0  0  0  0
  -21.1026  -13.1233   22.2690 H   0  0  0  0  0  0
  -24.6185  -15.8236   20.4369 H   0  0  0  0  0  0
  -26.2311  -15.6007   19.9765 H   0  0  0  0  0  0
  -26.7054  -32.5574   23.1182 H   0  0  0  0  0  0
  -25.0039  -33.9838   25.0481 H   0  0  0  0  0  0
  -22.6629  -31.3094   21.4369 H   0  0  0  0  0  0
  -23.3745  -35.9640   23.3310 H   0  0  0  0  0  0
  -24.3616  -36.8906   22.2075 H   0  0  0  0  0  0
  -23.7243  -37.6495   23.6679 H   0  0  0  0  0  0
  -26.0294  -31.5906   20.5927 H   0  0  0  0  0  0
  -26.8069  -30.8994   21.9883 H   0  0  0  0  0  0
  -28.0791  -29.0883   21.1964 H   0  0  0  0  0  0
  -25.9557  -26.0005   18.9936 H   0  0  0  0  0  0
  -23.9556  -27.3226   19.0279 H   0  0  0  0  0  0
  -23.7149  -30.6259   19.4220 H   0  0  0  0  0  0
  -22.7115  -29.2807   19.8698 H   0  0  0  0  0  0
  -25.1293  -36.1987   25.0856 H   0  0  0  0  0  0
  -20.9911  -28.3193   24.1516 H   0  0  0  0  0  0
  -20.5575  -26.2190   23.3704 H   0  0  0  0  0  0
  -21.6603  -26.7237   22.1342 H   0  0  0  0  0  0
  -19.6927  -25.6107   21.1318 H   0  0  0  0  0  0
  -19.6587  -27.3024   20.6784 H   0  0  0  0  0  0
  -17.4149  -26.6426   21.4159 H   0  0  0  0  0  0
  -18.0357  -25.9974   22.9138 H   0  0  0  0  0  0
  -19.7958  -30.7130   24.2372 H   0  0  0  0  0  0
  -17.5057  -31.6213   24.5137 H   0  0  0  0  0  0
  -15.5383  -30.2903   23.7632 H   0  0  0  0  0  0
  -15.8720  -28.0670   22.7157 H   0  0  0  0  0  0
  -24.5908  -30.7006   25.7684 H   0  0  0  0  0  0
  -24.8921  -32.2810   26.4798 H   0  0  0  0  0  0
  -25.8070  -30.8790   27.0142 H   0  0  0  0  0  0
  -26.2886  -29.6711   24.1069 H   0  0  0  0  0  0
  -27.4224  -29.7262   25.4391 H   0  0  0  0  0  0
  -27.8641  -30.4354   23.9044 H   0  0  0  0  0  0
  -27.2644  -33.3583   26.1951 H   0  0  0  0  0  0
  -28.3830  -32.6786   25.0213 H   0  0  0  0  0  0
  -28.0673  -31.8389   26.5330 H   0  0  0  0  0  0
  -28.2602  -38.0093   24.7504 H   0  0  0  0  0  0
  -28.1079  -36.2631   24.6326 H   0  0  0  0  0  0
  -27.2321  -37.1460   25.8882 H   0  0  0  0  0  0
  -20.9191  -29.8824   21.7141 H   0  0  0  0  0  0
  -26.0179  -38.2868   24.1374 H   0  0  0  0  0  0
  -31.3478  -18.9382   20.1334 H   0  0  0  0  0  0
  -31.5793  -17.7963   21.3849 H   0  0  0  0  0  0
  -27.9059  -17.9738   20.2558 H   0  0  0  0  0  0
  -27.5977  -17.9637   21.9591 H   0  0  0  0  0  0
  -29.7807  -17.2532   18.9706 H   0  0  0  0  0  0
  -31.4025  -16.7154   19.1689 H   0  0  0  0  0  0
  -27.8888  -15.6601   21.0210 H   0  0  0  0  0  0
  -28.9648  -15.9628   22.3486 H   0  0  0  0  0  0
  -29.8761  -18.3051   22.4461 H   0  0  0  0  0  0
  -27.2305  -25.5080   21.8347 H   0  0  0  0  0  0
  -26.6175  -24.1787   22.7022 H   0  0  0  0  0  0
  -25.8340  -24.6404   21.1924 H   0  0  0  0  0  0
  -30.5440  -22.7109   17.2890 H   0  0  0  0  0  0
  -30.9181  -24.1728   18.1329 H   0  0  0  0  0  0
  -29.4482  -24.0482   17.1472 H   0  0  0  0  0  0
  -25.6838  -21.9555   21.8032 H   0  0  0  0  0  0
  -26.7433  -21.9139   23.2124 H   0  0  0  0  0  0
  -26.6453  -20.5471   22.0878 H   0  0  0  0  0  0
  -31.1670  -20.7250   18.7988 H   0  0  0  0  0  0
  -29.8121  -20.7800   17.6541 H   0  0  0  0  0  0
  -29.6952  -19.6981   18.9445 H   0  0  0  0  0  0
  -28.2007  -20.0678   23.4855 H   0  0  0  0  0  0
  -29.2241  -21.5161   23.4981 H   0  0  0  0  0  0
  -29.8915  -19.9496   23.8628 H   0  0  0  0  0  0
  -27.8810  -25.5505   18.3801 H   0  0  0  0  0  0
  -29.5109  -25.7426   18.8722 H   0  0  0  0  0  0
  -30.5321  -20.5652   21.6491 H   0  0  0  0  0  0
  1 25  1  0  0  0
  1 30  2  0  0  0
  1 89  1  0  0  0
  2  3  1  0  0  0
  2 25  1  0  0  0
  2 90  1  0  0  0
  2 91  1  0  0  0
  3  4  1  0  0  0
  3 92  1  0  0  0
  3 93  1  0  0  0
  4  5  1  0  0  0
  4 94  1  0  0  0
  4 95  1  0  0  0
  5  6  1  0  0  0
  5 26  1  0  0  0
  5 96  1  0  0  0
  6 25  1  0  0  0
  6 97  1  0  0  0
  6 98  1  0  0  0
  7  8  2  0  0  0
  7 26  1  0  0  0
  7 29  1  0  0  0
  8  9  1  0  0  0
  8 22  1  0  0  0
  9 10  1  0  0  0
  9 27  2  0  0  0
 10 11  2  0  0  0
 10 15  1  0  0  0
 11 12  1  0  0  0
 11 99  1  0  0  0
 12 13  2  0  0  0
 12100  1  0  0  0
 13 14  1  0  0  0
 13 31  1  0  0  0
 14 15  2  0  0  0
 14101  1  0  0  0
 15102  1  0  0  0
 16 17  2  0  0  0
 16 21  1  0  0  0
 16 31  1  0  0  0
 17 18  1  0  0  0
 17103  1  0  0  0
 18 19  2  0  0  0
 18104  1  0  0  0
 19 20  1  0  0  0
 19 24  1  0  0  0
 20 21  2  0  0  0
 20105  1  0  0  0
 21 23  1  0  0  0
 22 28  1  0  0  0
 22 32  2  0  0  0
 26 27  1  0  0  0
 28106  1  0  0  0
 28107  1  0  0  0
 29108  1  0  0  0
 29109  1  0  0  0
 33 34  1  0  0  0
 33 66  1  0  0  0
 33 70  2  0  0  0
 34 36  1  0  0  0
 34 59  1  0  0  0
 34110  1  0  0  0
 35 44  2  0  0  0
 35 45  1  0  0  0
 35 68  1  0  0  0
 36 56  1  0  0  0
 36111  1  0  0  0
 37 39  1  0  0  0
 37 47  1  0  0  0
 37 66  1  0  0  0
 37112  1  0  0  0
 38 43  2  0  0  0
 38 46  1  0  0  0
 38 47  1  0  0  0
 39 64  1  0  0  0
 39 67  2  0  0  0
 40 52  1  0  0  0
 40 53  2  0  0  0
 40 58  1  0  0  0
 41113  1  0  0  0
 41114  1  0  0  0
 41115  1  0  0  0
 41 48  1  0  0  0
 42 43  1  0  0  0
 42 66  1  0  0  0
 42116  1  0  0  0
 42117  1  0  0  0
 43 44  1  0  0  0
 44118  1  0  0  0
 45 46  2  0  0  0
 45119  1  0  0  0
 46120  1  0  0  0
 47121  1  0  0  0
 47122  1  0  0  0
 48 56  1  0  0  0
 48 65  1  0  0  0
 48123  1  0  0  0
 49 50  1  0  0  0
 49 53  1  0  0  0
 49 64  1  0  0  0
 49124  1  0  0  0
 50 51  1  0  0  0
 50125  1  0  0  0
 50126  1  0  0  0
 51 52  1  0  0  0
 51127  1  0  0  0
 51128  1  0  0  0
 52129  1  0  0  0
 52130  1  0  0  0
 53 54  1  0  0  0
 54 55  2  0  0  0
 54131  1  0  0  0
 55 57  1  0  0  0
 55132  1  0  0  0
 56 69  2  0  0  0
 57 58  2  0  0  0
 57133  1  0  0  0
 58134  1  0  0  0
 59 60  1  0  0  0
 59 61  1  0  0  0
 59 62  1  0  0  0
 60135  1  0  0  0
 60136  1  0  0  0
 60137  1  0  0  0
 61138  1  0  0  0
 61139  1  0  0  0
 61140  1  0  0  0
 62141  1  0  0  0
 62142  1  0  0  0
 62143  1  0  0  0
 63 65  1  0  0  0
 63144  1  0  0  0
 63145  1  0  0  0
 63146  1  0  0  0
 64147  1  0  0  0
 65148  1  0  0  0
 68 87  1  0  0  0
 71 73  2  0  0  0
 71 75  1  0  0  0
 71 82  1  0  0  0
 72 74  1  0  0  0
 72 75  2  0  0  0
 72 83  1  0  0  0
 73 76  1  0  0  0
 73 84  1  0  0  0
 74 76  2  0  0  0
 74 85  1  0  0  0
 75 87  1  0  0  0
 76 88  1  0  0  0
 77 79  1  0  0  0
 77149  1  0  0  0
 77150  1  0  0  0
 77 81  1  0  0  0
 78 80  1  0  0  0
 78 81  1  0  0  0
 78151  1  0  0  0
 78152  1  0  0  0
 79 89  1  0  0  0
 79153  1  0  0  0
 79154  1  0  0  0
 80 89  1  0  0  0
 80155  1  0  0  0
 80156  1  0  0  0
 81 88  1  0  0  0
 81157  1  0  0  0
 82158  1  0  0  0
 82159  1  0  0  0
 82160  1  0  0  0
 83161  1  0  0  0
 83162  1  0  0  0
 83163  1  0  0  0
 84164  1  0  0  0
 84165  1  0  0  0
 84166  1  0  0  0
 85167  1  0  0  0
 85168  1  0  0  0
 85169  1  0  0  0
 86170  1  0  0  0
 86171  1  0  0  0
 86172  1  0  0  0
 86 88  1  0  0  0
 87173  1  0  0  0
 87174  1  0  0  0
 88175  1  0  0  0
M  ISO  4   1 100  68 101  87 101  89 100
M  END
> <chiral flag>
0

> <version>
0

> <s_m_source_file>
/data/baiqing/PycharmProjects/Reinvent-master-3.2/result/LINK_invent/BTK/process_docking_weight1_custom_sum_contain_oxygen_bond_distance_aromatic_linkinvent_7_9_3/rearranged_h_0161.sdf

> <i_m_source_file_index>
59

> <r_mmod_Potential_Energy-OPLS-2005>
464.794067382812

> <r_mmod_Stretch_Energy-OPLS-2005>
80.4554214477539

> <r_mmod_Bend_Energy-OPLS-2005>
208.411544799805

> <r_mmod_Torsional_Energy-OPLS-2005>
409.763397216797

> <r_mmod_Improper_Torsional_Energy-OPLS-2005>
19.0023002624512

> <r_mmod_Van_der_Waal_Energy-OPLS-2005>
208.449310302734

> <r_mmod_Electrostatic_Energy-OPLS-2005>
-312.454772949219

> <r_mmod_Solvation_Energy-OPLS-2005>
-184.889099121094

> <b_mmod_Minimization_Converged-OPLS-2005>
0

> <r_mmod_RMS_Derivative-OPLS-2005>
7.69469165802002

$$$$
59
                    3D
 Structure written by MMmdl.
177185  0  0  1  0            999 V2000
  -30.1426  -14.4799   20.9453 C   0  0  0  0  0  0
  -30.8902  -12.7423   19.0942 C   0  0  0  0  0  0
  -29.8712  -12.4558   17.8813 C   0  0  0  0  0  0
  -28.3536  -12.2659   18.1965 C   0  0  0  0  0  0
  -28.1962  -13.1395   19.3723 C   0  0  2  0  0  0
  -29.2359  -12.4985   20.4506 C   0  0  0  0  0  0
  -25.3289  -13.9092   20.8706 C   0  0  0  0  0  0
  -23.9742  -13.3701   21.2680 C   0  0  0  0  0  0
  -24.4500  -12.2060   21.6506 C   0  0  0  0  0  0
  -23.8926  -10.7401   21.3357 C   0  0  0  0  0  0
  -24.2957   -9.6222   22.1301 C   0  0  0  0  0  0
  -23.6393   -8.3570   22.1414 C   0  0  0  0  0  0
  -22.4949   -8.1238   21.3504 C   0  0  0  0  0  0
  -22.1226   -9.1603   20.4670 C   0  0  0  0  0  0
  -22.8097  -10.4152   20.4474 C   0  0  0  0  0  0
  -21.7134   -6.1176   22.5002 C   0  0  0  0  0  0
  -21.4236   -6.5916   23.8002 C   0  0  0  0  0  0
  -21.3784   -5.7028   24.8951 C   0  0  0  0  0  0
  -21.6071   -4.3264   24.7019 C   0  0  0  0  0  0
  -21.8727   -3.8420   23.4087 C   0  0  0  0  0  0
  -21.9249   -4.7315   22.3167 C   0  0  0  0  0  0
  -22.5082  -13.7141   21.2256 C   0  0  0  0  0  0
  -22.1704   -4.2402   21.0795 F   0  0  0  0  0  0
  -21.5632   -3.4737   25.7528 F   0  0  0  0  0  0
  -30.2535  -13.2870   20.3195 N   0  0  0  0  0  0
  -26.4708  -13.9046   19.8163 N   0  0  0  0  0  0
  -25.1152  -13.4586   21.1340 N   0  0  0  0  0  0
  -21.7448  -12.9599   22.0137 N   0  0  0  0  0  0
  -26.4440  -14.3981   19.5083 N   0  0  0  0  0  0
  -31.1502  -15.1816   20.6989 O   0  0  0  0  0  0
  -21.7402   -6.9554   21.3951 O   0  0  0  0  0  0
  -22.0620  -14.6426   20.5801 O   0  0  0  0  0  0
  -24.6814  -31.8030   23.1576 C   0  0  0  0  0  0
  -25.9434  -32.4462   23.8080 C   0  0  1  0  0  0
  -26.8882  -26.5559   20.3093 C   0  0  0  0  0  0
  -25.6020  -33.8305   24.1949 N   0  0  0  0  0  0
  -23.4946  -30.4257   21.5152 C   0  0  2  0  0  0
  -24.9005  -28.7755   20.0910 C   0  0  0  0  0  0
  -22.7732  -29.4344   22.4716 C   0  0  0  0  0  0
  -18.0336  -28.1426   22.8479 C   0  0  0  0  0  0
  -24.1502  -36.7162   23.2646 C   0  0  0  0  0  0
  -26.0762  -30.4844   21.4438 C   0  0  0  0  0  0
  -26.0808  -29.0473   20.7901 C   0  0  0  0  0  0
  -27.0870  -27.9512   20.8722 C   0  0  0  0  0  0
  -25.7804  -26.5560   19.4536 C   0  0  0  0  0  0
  -24.8056  -27.5747   19.3775 C   0  0  0  0  0  0
  -23.7346  -29.7638   20.1299 C   0  0  0  0  0  0
  -25.4159  -36.2911   24.0270 C   0  0  1  0  0  0
  -20.5962  -28.3757   23.1165 C   0  0  2  0  0  0
  -20.6809  -26.9431   22.5403 C   0  0  0  0  0  0
  -19.5767  -26.6363   21.5245 C   0  0  0  0  0  0
  -18.1948  -26.7954   22.1646 C   0  0  0  0  0  0
  -19.1604  -28.8923   23.2798 C   0  0  0  0  0  0
  -18.9497  -30.1513   23.8823 C   0  0  0  0  0  0
  -17.6483  -30.6600   24.0544 C   0  0  0  0  0  0
  -25.9150  -34.9287   23.4948 C   0  0  0  0  0  0
  -16.5372  -29.9075   23.6355 C   0  0  0  0  0  0
  -16.7309  -28.6507   23.0363 C   0  0  0  0  0  0
  -26.4584  -31.6533   25.0733 C   0  0  0  0  0  0
  -25.3591  -31.3884   26.1303 C   0  0  0  0  0  0
  -27.0516  -30.2846   24.6727 C   0  0  0  0  0  0
  -27.6063  -32.4384   25.7495 C   0  0  0  0  0  0
  -27.5578  -37.1756   24.8468 C   0  0  0  0  0  0
  -21.4388  -29.3020   22.3481 N   0  0  0  0  0  0
  -26.4293  -37.3661   23.9394 N   0  0  0  0  0  0
  -24.7774  -30.9425   22.0881 N   0  0  0  0  0  0
  -23.4237  -28.7899   23.2982 O   0  0  0  0  0  0
  -27.5202  -25.1601   20.5342 O   0  0  0  0  0  0
  -26.5774  -34.8855   22.4560 O   0  0  0  0  0  0
  -23.5848  -32.1174   23.6552 O   0  0  0  0  0  0
  -24.3844  -13.6546   18.7613 C   0  0  0  0  0  0
  -25.5529  -11.9442   19.4207 C   0  0  0  0  0  0
  -24.6024  -15.6587   19.6291 C   0  0  0  0  0  0
  -26.9440  -12.1808   21.1546 C   0  0  0  0  0  0
  -26.1581  -16.0543   21.0672 C   0  0  0  0  0  0
  -27.4047  -14.3321   21.7938 C   0  0  0  0  0  0
  -23.4528  -13.4501   17.5908 C   0  0  0  0  0  0
  -25.4321  -10.6090   18.7056 C   0  0  0  0  0  0
  -27.3839  -10.9139   21.9289 C   0  0  0  0  0  0
  -23.1686  -17.6983   20.1599 C   0  0  0  0  0  0
  -23.0936  -16.6958   17.8237 C   0  0  0  0  0  0
  -26.0037  -21.7758   22.2719 C   0  0  0  0  0  0
  -29.2315  -15.8136   22.7816 C   0  0  0  0  0  0
  -26.5818  -17.8899   21.3345 C   0  0  0  0  0  0
  -26.5183  -19.7159   20.5804 C   0  0  0  0  0  0
  -26.9308  -23.4685   20.3073 C   0  0  0  0  0  0
  -23.9369  -16.9215   19.0758 C   0  0  0  0  0  0
  -26.9054  -21.6140   21.0368 C   0  0  1  0  0  0
  -28.9524  -14.7543   21.8074 N   0  0  0  0  0  0
  -31.6513  -13.4470   18.7533 H   0  0  0  0  0  0
  -31.4437  -11.8359   19.3501 H   0  0  0  0  0  0
  -30.2295  -11.6048   17.3020 H   0  0  0  0  0  0
  -29.9519  -13.3039   17.1965 H   0  0  0  0  0  0
  -28.1312  -11.2272   18.4297 H   0  0  0  0  0  0
  -27.7230  -12.5809   17.3648 H   0  0  0  0  0  0
  -28.6505  -14.0457   18.9301 H   0  0  0  0  0  0
  -29.4639  -11.4507   20.2263 H   0  0  0  0  0  0
  -29.1587  -12.4453   21.5376 H   0  0  0  0  0  0
  -25.0497   -9.7708   22.8875 H   0  0  0  0  0  0
  -23.9842   -7.5999   22.8332 H   0  0  0  0  0  0
  -21.2691   -9.0083   19.8196 H   0  0  0  0  0  0
  -22.4326  -11.1843   19.7905 H   0  0  0  0  0  0
  -21.2345   -7.6443   23.9530 H   0  0  0  0  0  0
  -21.1692   -6.0816   25.8841 H   0  0  0  0  0  0
  -22.0302   -2.7878   23.2525 H   0  0  0  0  0  0
  -22.1353  -12.2042   22.5572 H   0  0  0  0  0  0
  -20.7548  -13.1419   22.0739 H   0  0  0  0  0  0
  -26.0016  -13.8007   18.8082 H   0  0  0  0  0  0
  -25.9886  -15.2955   19.3762 H   0  0  0  0  0  0
  -26.7489  -32.4844   23.0760 H   0  0  0  0  0  0
  -25.0085  -33.9343   25.0041 H   0  0  0  0  0  0
  -22.8175  -31.2667   21.3510 H   0  0  0  0  0  0
  -23.3791  -35.9467   23.3256 H   0  0  0  0  0  0
  -24.3564  -36.8881   22.2073 H   0  0  0  0  0  0
  -23.7231  -37.6311   23.6754 H   0  0  0  0  0  0
  -26.3126  -31.2038   20.6589 H   0  0  0  0  0  0
  -26.9248  -30.5311   22.1138 H   0  0  0  0  0  0
  -27.9480  -28.1136   21.5038 H   0  0  0  0  0  0
  -25.5667  -25.6439   18.9164 H   0  0  0  0  0  0
  -23.9227  -27.3865   18.7817 H   0  0  0  0  0  0
  -23.9310  -30.5396   19.3885 H   0  0  0  0  0  0
  -22.8259  -29.2621   19.7927 H   0  0  0  0  0  0
  -25.1372  -36.1695   25.0759 H   0  0  0  0  0  0
  -21.0042  -28.3380   24.1293 H   0  0  0  0  0  0
  -20.5720  -26.2374   23.3655 H   0  0  0  0  0  0
  -21.6657  -26.7405   22.1181 H   0  0  0  0  0  0
  -19.6894  -25.6259   21.1316 H   0  0  0  0  0  0
  -19.6696  -27.3139   20.6752 H   0  0  0  0  0  0
  -17.4217  -26.6720   21.4037 H   0  0  0  0  0  0
  -18.0299  -26.0118   22.9060 H   0  0  0  0  0  0
  -19.7951  -30.7368   24.2152 H   0  0  0  0  0  0
  -17.5005  -31.6268   24.5159 H   0  0  0  0  0  0
  -15.5356  -30.2930   23.7716 H   0  0  0  0  0  0
  -15.8722  -28.0781   22.7109 H   0  0  0  0  0  0
  -24.5760  -30.7300   25.7526 H   0  0  0  0  0  0
  -24.8795  -32.3121   26.4544 H   0  0  0  0  0  0
  -25.7661  -30.9086   27.0210 H   0  0  0  0  0  0
  -26.3233  -29.6405   24.1785 H   0  0  0  0  0  0
  -27.3946  -29.7376   25.5524 H   0  0  0  0  0  0
  -27.9234  -30.3943   24.0272 H   0  0  0  0  0  0
  -27.2683  -33.3809   26.1807 H   0  0  0  0  0  0
  -28.3964  -32.6741   25.0354 H   0  0  0  0  0  0
  -28.0625  -31.8680   26.5593 H   0  0  0  0  0  0
  -28.2573  -38.0073   24.7502 H   0  0  0  0  0  0
  -28.1097  -36.2589   24.6330 H   0  0  0  0  0  0
  -27.2276  -37.1435   25.8864 H   0  0  0  0  0  0
  -20.9666  -29.8726   21.6611 H   0  0  0  0  0  0
  -26.0133  -38.2724   24.1353 H   0  0  0  0  0  0
  -23.8564  -13.9104   16.6905 H   0  0  0  0  0  0
  -22.4804  -13.8873   17.8048 H   0  0  0  0  0  0
  -23.3149  -12.3883   17.4031 H   0  0  0  0  0  0
  -24.4138  -10.4199   18.3740 H   0  0  0  0  0  0
  -25.7315   -9.7917   19.3600 H   0  0  0  0  0  0
  -26.0642  -10.5857   17.8187 H   0  0  0  0  0  0
  -26.7258  -10.0916   21.6865 H   0  0  0  0  0  0
  -27.3620  -11.0966   23.0034 H   0  0  0  0  0  0
  -28.3576  -10.4920   21.6988 H   0  0  0  0  0  0
  -23.8059  -17.9686   20.9979 H   0  0  0  0  0  0
  -22.3295  -17.1355   20.5602 H   0  0  0  0  0  0
  -22.7709  -18.6280   19.7576 H   0  0  0  0  0  0
  -23.6857  -16.1875   17.0630 H   0  0  0  0  0  0
  -22.7689  -17.6487   17.4002 H   0  0  0  0  0  0
  -22.2037  -16.1071   18.0503 H   0  0  0  0  0  0
  -26.0993  -20.9226   22.9450 H   0  0  0  0  0  0
  -24.9537  -21.8374   21.9784 H   0  0  0  0  0  0
  -26.2382  -22.6775   22.8394 H   0  0  0  0  0  0
  -29.4505  -16.7573   22.2864 H   0  0  0  0  0  0
  -30.0928  -15.5693   23.4081 H   0  0  0  0  0  0
  -28.3896  -15.9814   23.4551 H   0  0  0  0  0  0
  -27.6462  -17.7994   21.5288 H   0  0  0  0  0  0
  -26.1601  -18.0318   22.3305 H   0  0  0  0  0  0
  -25.4815  -19.7763   20.2489 H   0  0  0  0  0  0
  -27.0709  -19.5908   19.6484 H   0  0  0  0  0  0
  -25.8683  -23.6534   20.1460 H   0  0  0  0  0  0
  -27.3026  -23.2883   19.2982 H   0  0  0  0  0  0
  -24.7651  -17.5672   18.7706 H   0  0  0  0  0  0
  -27.9244  -21.5289   21.4139 H   0  0  0  0  0  0
  1 25  1  0  0  0
  1 30  2  0  0  0
  1 89  1  0  0  0
  2  3  1  0  0  0
  2 25  1  0  0  0
  2 90  1  0  0  0
  2 91  1  0  0  0
  3  4  1  0  0  0
  3 92  1  0  0  0
  3 93  1  0  0  0
  4  5  1  0  0  0
  4 94  1  0  0  0
  4 95  1  0  0  0
  5  6  1  0  0  0
  5 26  1  0  0  0
  5 96  1  0  0  0
  6 25  1  0  0  0
  6 97  1  0  0  0
  6 98  1  0  0  0
  7  8  2  0  0  0
  7 26  1  0  0  0
  7 29  1  0  0  0
  8  9  1  0  0  0
  8 22  1  0  0  0
  9 10  1  0  0  0
  9 27  2  0  0  0
 10 11  2  0  0  0
 10 15  1  0  0  0
 11 12  1  0  0  0
 11 99  1  0  0  0
 12 13  2  0  0  0
 12100  1  0  0  0
 13 14  1  0  0  0
 13 31  1  0  0  0
 14 15  2  0  0  0
 14101  1  0  0  0
 15102  1  0  0  0
 16 17  2  0  0  0
 16 21  1  0  0  0
 16 31  1  0  0  0
 17 18  1  0  0  0
 17103  1  0  0  0
 18 19  2  0  0  0
 18104  1  0  0  0
 19 20  1  0  0  0
 19 24  1  0  0  0
 20 21  2  0  0  0
 20105  1  0  0  0
 21 23  1  0  0  0
 22 28  1  0  0  0
 22 32  2  0  0  0
 26 27  1  0  0  0
 28106  1  0  0  0
 28107  1  0  0  0
 29108  1  0  0  0
 29109  1  0  0  0
 33 34  1  0  0  0
 33 66  1  0  0  0
 33 70  2  0  0  0
 34 36  1  0  0  0
 34 59  1  0  0  0
 34110  1  0  0  0
 35 44  2  0  0  0
 35 45  1  0  0  0
 35 68  1  0  0  0
 36 56  1  0  0  0
 36111  1  0  0  0
 37 39  1  0  0  0
 37 47  1  0  0  0
 37 66  1  0  0  0
 37112  1  0  0  0
 38 43  2  0  0  0
 38 46  1  0  0  0
 38 47  1  0  0  0
 39 64  1  0  0  0
 39 67  2  0  0  0
 40 52  1  0  0  0
 40 53  2  0  0  0
 40 58  1  0  0  0
 41113  1  0  0  0
 41114  1  0  0  0
 41115  1  0  0  0
 41 48  1  0  0  0
 42 43  1  0  0  0
 42 66  1  0  0  0
 42116  1  0  0  0
 42117  1  0  0  0
 43 44  1  0  0  0
 44118  1  0  0  0
 45 46  2  0  0  0
 45119  1  0  0  0
 46120  1  0  0  0
 47121  1  0  0  0
 47122  1  0  0  0
 48 56  1  0  0  0
 48 65  1  0  0  0
 48123  1  0  0  0
 49 50  1  0  0  0
 49 53  1  0  0  0
 49 64  1  0  0  0
 49124  1  0  0  0
 50 51  1  0  0  0
 50125  1  0  0  0
 50126  1  0  0  0
 51 52  1  0  0  0
 51127  1  0  0  0
 51128  1  0  0  0
 52129  1  0  0  0
 52130  1  0  0  0
 53 54  1  0  0  0
 54 55  2  0  0  0
 54131  1  0  0  0
 55 57  1  0  0  0
 55132  1  0  0  0
 56 69  2  0  0  0
 57 58  2  0  0  0
 57133  1  0  0  0
 58134  1  0  0  0
 59 60  1  0  0  0
 59 61  1  0  0  0
 59 62  1  0  0  0
 60135  1  0  0  0
 60136  1  0  0  0
 60137  1  0  0  0
 61138  1  0  0  0
 61139  1  0  0  0
 61140  1  0  0  0
 62141  1  0  0  0
 62142  1  0  0  0
 62143  1  0  0  0
 63 65  1  0  0  0
 63144  1  0  0  0
 63145  1  0  0  0
 63146  1  0  0  0
 64147  1  0  0  0
 65148  1  0  0  0
 68 86  1  0  0  0
 71 72  2  0  0  0
 71 73  1  0  0  0
 71 77  1  0  0  0
 72 74  1  0  0  0
 72 78  1  0  0  0
 73 75  2  0  0  0
 73 87  1  0  0  0
 74 76  2  0  0  0
 74 79  1  0  0  0
 75 76  1  0  0  0
 75 84  1  0  0  0
 76 89  1  0  0  0
 77149  1  0  0  0
 77150  1  0  0  0
 77151  1  0  0  0
 78152  1  0  0  0
 78153  1  0  0  0
 78154  1  0  0  0
 79155  1  0  0  0
 79156  1  0  0  0
 79157  1  0  0  0
 80158  1  0  0  0
 80159  1  0  0  0
 80160  1  0  0  0
 80 87  1  0  0  0
 81 87  1  0  0  0
 81161  1  0  0  0
 81162  1  0  0  0
 81163  1  0  0  0
 82164  1  0  0  0
 82165  1  0  0  0
 82166  1  0  0  0
 82 88  1  0  0  0
 83 89  1  0  0  0
 83167  1  0  0  0
 83168  1  0  0  0
 83169  1  0  0  0
 84 85  1  0  0  0
 84170  1  0  0  0
 84171  1  0  0  0
 85 88  1  0  0  0
 85172  1  0  0  0
 85173  1  0  0  0
 86 88  1  0  0  0
 86174  1  0  0  0
 86175  1  0  0  0
 87176  1  0  0  0
 88177  1  0  0  0
M  ISO  4   1 100  68 101  86 101  89 100
M  END
> <chiral flag>
0

> <version>
0

> <s_m_source_file>
/data/baiqing/PycharmProjects/Reinvent-master-3.2/result/LINK_invent/BTK/process_docking_weight1_custom_sum_contain_oxygen_bond_distance_aromatic_linkinvent_7_9_3/rearranged_h_0161.sdf

> <i_m_source_file_index>
60

> <r_mmod_Potential_Energy-OPLS-2005>
20804.955078125

> <r_mmod_Stretch_Energy-OPLS-2005>
10792.1650390625

> <r_mmod_Bend_Energy-OPLS-2005>
3303.76489257812

> <r_mmod_Torsional_Energy-OPLS-2005>
664.727478027344

> <r_mmod_Improper_Torsional_Energy-OPLS-2005>
105.688438415527

> <r_mmod_Van_der_Waal_Energy-OPLS-2005>
4405.2109375

> <r_mmod_Electrostatic_Energy-OPLS-2005>
-331.329162597656

> <r_mmod_Solvation_Energy-OPLS-2005>
-170.541793823242

> <b_mmod_Minimization_Converged-OPLS-2005>
0

> <r_mmod_RMS_Derivative-OPLS-2005>
9.21719837188721

$$$$
60
                    3D
 Structure written by MMmdl.
163172  0  0  1  0            999 V2000
  -30.6537  -14.7257   20.4506 C   0  0  0  0  0  0
  -30.4257  -12.4424   19.4707 C   0  0  0  0  0  0
  -29.5069  -12.4994   18.2332 C   0  0  0  0  0  0
  -28.0350  -12.3271   18.6508 C   0  0  0  0  0  0
  -27.6417  -13.2354   19.8469 C   0  0  2  0  0  0
  -28.6890  -13.1887   20.9804 C   0  0  0  0  0  0
  -25.2513  -13.8199   20.5701 C   0  0  0  0  0  0
  -24.1802  -13.0437   20.9183 C   0  0  0  0  0  0
  -24.6401  -11.6918   20.8735 C   0  0  0  0  0  0
  -23.9077  -10.4292   21.0400 C   0  0  0  0  0  0
  -24.3625   -9.4201   21.9179 C   0  0  0  0  0  0
  -23.6286   -8.2243   22.0748 C   0  0  0  0  0  0
  -22.4270   -8.0289   21.3540 C   0  0  0  0  0  0
  -21.9914   -9.0262   20.4636 C   0  0  0  0  0  0
  -22.7249  -10.2138   20.3043 C   0  0  0  0  0  0
  -21.6851   -6.0741   22.5285 C   0  0  0  0  0  0
  -21.4023   -6.5642   23.8222 C   0  0  0  0  0  0
  -21.3661   -5.6790   24.9181 C   0  0  0  0  0  0
  -21.6042   -4.3053   24.7231 C   0  0  0  0  0  0
  -21.8813   -3.8147   23.4350 C   0  0  0  0  0  0
  -21.9185   -4.6966   22.3407 C   0  0  0  0  0  0
  -22.7819  -13.5213   21.1841 C   0  0  0  0  0  0
  -22.1643   -4.2151   21.0982 F   0  0  0  0  0  0
  -21.5618   -3.4536   25.7738 F   0  0  0  0  0  0
  -29.9901  -13.5199   20.3879 N   0  0  0  0  0  0
  -26.2948  -12.9417   20.3283 N   0  0  0  0  0  0
  -25.9339  -11.6559   20.5754 N   0  0  0  0  0  0
  -22.0475  -12.8220   22.0413 N   0  0  0  0  0  0
  -25.4196  -15.1934   20.4163 N   0  0  0  0  0  0
  -31.8500  -14.7769   20.1502 O   0  0  0  0  0  0
  -21.6626   -6.8895   21.4252 O   0  0  0  0  0  0
  -22.3495  -14.5518   20.6689 O   0  0  0  0  0  0
  -24.6338  -31.8563   23.1989 C   0  0  0  0  0  0
  -25.9160  -32.4758   23.8334 C   0  0  1  0  0  0
  -27.2149  -27.2585   20.1081 C   0  0  0  0  0  0
  -25.5955  -33.8556   24.2259 N   0  0  0  0  0  0
  -23.4312  -30.4822   21.5426 C   0  0  2  0  0  0
  -24.8780  -28.9343   20.1068 C   0  0  0  0  0  0
  -22.7513  -29.4624   22.4886 C   0  0  0  0  0  0
  -18.0293  -28.1398   22.8472 C   0  0  0  0  0  0
  -24.1490  -36.7281   23.2637 C   0  0  0  0  0  0
  -25.9807  -30.7632   21.3856 C   0  0  0  0  0  0
  -26.0529  -29.3870   20.7230 C   0  0  0  0  0  0
  -27.2262  -28.5604   20.7174 C   0  0  0  0  0  0
  -26.0262  -26.8982   19.4346 C   0  0  0  0  0  0
  -24.8696  -27.6962   19.4529 C   0  0  0  0  0  0
  -23.6505  -29.8235   20.1578 C   0  0  0  0  0  0
  -25.4117  -36.3068   24.0321 C   0  0  1  0  0  0
  -20.5904  -28.3725   23.1236 C   0  0  2  0  0  0
  -20.6789  -26.9437   22.5392 C   0  0  0  0  0  0
  -19.5763  -26.6395   21.5198 C   0  0  0  0  0  0
  -18.1942  -26.7937   22.1617 C   0  0  0  0  0  0
  -19.1550  -28.8871   23.2856 C   0  0  0  0  0  0
  -18.9475  -30.1461   23.8892 C   0  0  0  0  0  0
  -17.6480  -30.6599   24.0559 C   0  0  0  0  0  0
  -25.9063  -34.9439   23.5087 C   0  0  0  0  0  0
  -16.5367  -29.9098   23.6333 C   0  0  0  0  0  0
  -16.7281  -28.6511   23.0355 C   0  0  0  0  0  0
  -26.4518  -31.6578   25.0728 C   0  0  0  0  0  0
  -25.3732  -31.3730   26.1443 C   0  0  0  0  0  0
  -27.0366  -30.2984   24.6234 C   0  0  0  0  0  0
  -27.6067  -32.4325   25.7513 C   0  0  0  0  0  0
  -27.5575  -37.1803   24.8468 C   0  0  0  0  0  0
  -21.4221  -29.3076   22.3625 N   0  0  0  0  0  0
  -26.4291  -37.3768   23.9405 N   0  0  0  0  0  0
  -24.7010  -31.0517   22.0982 N   0  0  0  0  0  0
  -23.4195  -28.8143   23.2984 O   0  0  0  0  0  0
  -28.2677  -26.3089   20.1459 O   0  0  0  0  0  0
  -26.5630  -34.8913   22.4656 O   0  0  0  0  0  0
  -23.5482  -32.1395   23.7271 O   0  0  0  0  0  0
  -28.7061  -21.2217   19.4392 C   0  0  0  0  0  0
  -29.5041  -20.6728   20.4821 C   0  0  0  0  0  0
  -28.3037  -22.6016   19.3866 C   0  0  0  0  0  0
  -28.6628  -23.5540   20.3968 C   0  0  0  0  0  0
  -29.5444  -23.0350   21.3975 C   0  0  0  0  0  0
  -29.9341  -21.6443   21.4434 C   0  0  0  0  0  0
  -29.0936  -18.1787   21.4968 C   0  0  0  0  0  0
  -30.1712  -18.3008   19.2600 C   0  0  0  0  0  0
  -29.7150  -16.7296   21.6862 C   0  0  0  0  0  0
  -29.7963  -16.7515   19.2251 C   0  0  0  0  0  0
  -29.9215  -19.1168   20.5726 C   0  0  0  0  0  0
  -27.4193  -23.0239   18.2236 C   0  0  0  0  0  0
  -30.0510  -23.9699   22.4896 C   0  0  0  0  0  0
  -27.8574  -24.9298   20.5959 C   0  0  0  0  0  0
  -29.9133  -15.9100   20.4583 N   0  0  0  0  0  0
  -30.9325  -21.1164   22.7593 Cl  0  0  0  0  0  0
  -31.4680  -12.5465   19.1656 H   0  0  0  0  0  0
  -30.3540  -11.4716   19.9632 H   0  0  0  0  0  0
  -29.7864  -11.7265   17.5170 H   0  0  0  0  0  0
  -29.6347  -13.4551   17.7208 H   0  0  0  0  0  0
  -27.8940  -11.2804   18.9224 H   0  0  0  0  0  0
  -27.3746  -12.5099   17.8028 H   0  0  0  0  0  0
  -27.6311  -14.2548   19.4585 H   0  0  0  0  0  0
  -28.7190  -12.2026   21.4471 H   0  0  0  0  0  0
  -28.4308  -13.8978   21.7677 H   0  0  0  0  0  0
  -25.2778   -9.5664   22.4757 H   0  0  0  0  0  0
  -23.9985   -7.4630   22.7479 H   0  0  0  0  0  0
  -21.0830   -8.8786   19.8948 H   0  0  0  0  0  0
  -22.3705  -10.9675   19.6147 H   0  0  0  0  0  0
  -21.2032   -7.6154   23.9731 H   0  0  0  0  0  0
  -21.1478   -6.0518   25.9082 H   0  0  0  0  0  0
  -22.0590   -2.7609   23.2846 H   0  0  0  0  0  0
  -22.4083  -11.9893   22.4829 H   0  0  0  0  0  0
  -21.1091  -13.1243   22.2615 H   0  0  0  0  0  0
  -24.6563  -15.8491   20.5445 H   0  0  0  0  0  0
  -26.2844  -15.6412   20.1408 H   0  0  0  0  0  0
  -26.7222  -32.5409   23.1069 H   0  0  0  0  0  0
  -25.0108  -33.9681   25.0409 H   0  0  0  0  0  0
  -22.7288  -31.3063   21.3987 H   0  0  0  0  0  0
  -23.3754  -35.9616   23.3314 H   0  0  0  0  0  0
  -24.3575  -36.8895   22.2051 H   0  0  0  0  0  0
  -23.7245  -37.6484   23.6655 H   0  0  0  0  0  0
  -26.1278  -31.5261   20.6198 H   0  0  0  0  0  0
  -26.8541  -30.8067   22.0235 H   0  0  0  0  0  0
  -28.1226  -28.8982   21.2178 H   0  0  0  0  0  0
  -25.9693  -25.9717   18.8826 H   0  0  0  0  0  0
  -23.9785  -27.3524   18.9462 H   0  0  0  0  0  0
  -23.7808  -30.6042   19.4079 H   0  0  0  0  0  0
  -22.7670  -29.2637   19.8468 H   0  0  0  0  0  0
  -25.1300  -36.1916   25.0814 H   0  0  0  0  0  0
  -20.9995  -28.3322   24.1359 H   0  0  0  0  0  0
  -20.5686  -26.2343   23.3609 H   0  0  0  0  0  0
  -21.6654  -26.7465   22.1187 H   0  0  0  0  0  0
  -19.6935  -25.6301   21.1241 H   0  0  0  0  0  0
  -19.6693  -27.3191   20.6714 H   0  0  0  0  0  0
  -17.4206  -26.6660   21.4030 H   0  0  0  0  0  0
  -18.0362  -26.0084   22.9021 H   0  0  0  0  0  0
  -19.7951  -30.7265   24.2272 H   0  0  0  0  0  0
  -17.5038  -31.6277   24.5166 H   0  0  0  0  0  0
  -15.5365  -30.3006   23.7657 H   0  0  0  0  0  0
  -15.8675  -28.0825   22.7091 H   0  0  0  0  0  0
  -24.5913  -30.7075   25.7770 H   0  0  0  0  0  0
  -24.8915  -32.2904   26.4842 H   0  0  0  0  0  0
  -25.8041  -30.8927   27.0239 H   0  0  0  0  0  0
  -26.2953  -29.6738   24.1237 H   0  0  0  0  0  0
  -27.4007  -29.7246   25.4765 H   0  0  0  0  0  0
  -27.8857  -30.4238   23.9511 H   0  0  0  0  0  0
  -27.2666  -33.3631   26.2069 H   0  0  0  0  0  0
  -28.3894  -32.6884   25.0359 H   0  0  0  0  0  0
  -28.0717  -31.8467   26.5451 H   0  0  0  0  0  0
  -28.2601  -38.0090   24.7499 H   0  0  0  0  0  0
  -28.1057  -36.2623   24.6314 H   0  0  0  0  0  0
  -27.2288  -37.1475   25.8868 H   0  0  0  0  0  0
  -20.9408  -29.8799   21.6835 H   0  0  0  0  0  0
  -26.0172  -38.2842   24.1407 H   0  0  0  0  0  0
  -28.3551  -20.5591   18.6622 H   0  0  0  0  0  0
  -29.0005  -18.6455   22.4785 H   0  0  0  0  0  0
  -28.0771  -18.0973   21.1089 H   0  0  0  0  0  0
  -29.6357  -18.7658   18.4345 H   0  0  0  0  0  0
  -31.2233  -18.4138   18.9912 H   0  0  0  0  0  0
  -29.0817  -16.1601   22.3671 H   0  0  0  0  0  0
  -30.6799  -16.8224   22.1880 H   0  0  0  0  0  0
  -28.7493  -16.6743   18.9301 H   0  0  0  0  0  0
  -30.3414  -16.2850   18.4020 H   0  0  0  0  0  0
  -30.9083  -19.1382   21.0341 H   0  0  0  0  0  0
  -27.6048  -22.3999   17.3481 H   0  0  0  0  0  0
  -27.6162  -24.0550   17.9276 H   0  0  0  0  0  0
  -26.3652  -22.9296   18.4856 H   0  0  0  0  0  0
  -29.9239  -25.0209   22.2313 H   0  0  0  0  0  0
  -31.1201  -23.8289   22.6562 H   0  0  0  0  0  0
  -29.5279  -23.7769   23.4258 H   0  0  0  0  0  0
  -26.8560  -24.6834   20.2552 H   0  0  0  0  0  0
  -27.7054  -25.0326   21.6703 H   0  0  0  0  0  0
  1 25  1  0  0  0
  1 30  2  0  0  0
  1 85  1  0  0  0
  2  3  1  0  0  0
  2 25  1  0  0  0
  2 87  1  0  0  0
  2 88  1  0  0  0
  3  4  1  0  0  0
  3 89  1  0  0  0
  3 90  1  0  0  0
  4  5  1  0  0  0
  4 91  1  0  0  0
  4 92  1  0  0  0
  5  6  1  0  0  0
  5 26  1  0  0  0
  5 93  1  0  0  0
  6 25  1  0  0  0
  6 94  1  0  0  0
  6 95  1  0  0  0
  7  8  2  0  0  0
  7 26  1  0  0  0
  7 29  1  0  0  0
  8  9  1  0  0  0
  8 22  1  0  0  0
  9 10  1  0  0  0
  9 27  2  0  0  0
 10 11  2  0  0  0
 10 15  1  0  0  0
 11 12  1  0  0  0
 11 96  1  0  0  0
 12 13  2  0  0  0
 12 97  1  0  0  0
 13 14  1  0  0  0
 13 31  1  0  0  0
 14 15  2  0  0  0
 14 98  1  0  0  0
 15 99  1  0  0  0
 16 17  2  0  0  0
 16 21  1  0  0  0
 16 31  1  0  0  0
 17 18  1  0  0  0
 17100  1  0  0  0
 18 19  2  0  0  0
 18101  1  0  0  0
 19 20  1  0  0  0
 19 24  1  0  0  0
 20 21  2  0  0  0
 20102  1  0  0  0
 21 23  1  0  0  0
 22 28  1  0  0  0
 22 32  2  0  0  0
 26 27  1  0  0  0
 28103  1  0  0  0
 28104  1  0  0  0
 29105  1  0  0  0
 29106  1  0  0  0
 33 34  1  0  0  0
 33 66  1  0  0  0
 33 70  2  0  0  0
 34 36  1  0  0  0
 34 59  1  0  0  0
 34107  1  0  0  0
 35 44  2  0  0  0
 35 45  1  0  0  0
 35 68  1  0  0  0
 36 56  1  0  0  0
 36108  1  0  0  0
 37 39  1  0  0  0
 37 47  1  0  0  0
 37 66  1  0  0  0
 37109  1  0  0  0
 38 43  2  0  0  0
 38 46  1  0  0  0
 38 47  1  0  0  0
 39 64  1  0  0  0
 39 67  2  0  0  0
 40 52  1  0  0  0
 40 53  2  0  0  0
 40 58  1  0  0  0
 41110  1  0  0  0
 41111  1  0  0  0
 41112  1  0  0  0
 41 48  1  0  0  0
 42 43  1  0  0  0
 42 66  1  0  0  0
 42113  1  0  0  0
 42114  1  0  0  0
 43 44  1  0  0  0
 44115  1  0  0  0
 45 46  2  0  0  0
 45116  1  0  0  0
 46117  1  0  0  0
 47118  1  0  0  0
 47119  1  0  0  0
 48 56  1  0  0  0
 48 65  1  0  0  0
 48120  1  0  0  0
 49 50  1  0  0  0
 49 53  1  0  0  0
 49 64  1  0  0  0
 49121  1  0  0  0
 50 51  1  0  0  0
 50122  1  0  0  0
 50123  1  0  0  0
 51 52  1  0  0  0
 51124  1  0  0  0
 51125  1  0  0  0
 52126  1  0  0  0
 52127  1  0  0  0
 53 54  1  0  0  0
 54 55  2  0  0  0
 54128  1  0  0  0
 55 57  1  0  0  0
 55129  1  0  0  0
 56 69  2  0  0  0
 57 58  2  0  0  0
 57130  1  0  0  0
 58131  1  0  0  0
 59 60  1  0  0  0
 59 61  1  0  0  0
 59 62  1  0  0  0
 60132  1  0  0  0
 60133  1  0  0  0
 60134  1  0  0  0
 61135  1  0  0  0
 61136  1  0  0  0
 61137  1  0  0  0
 62138  1  0  0  0
 62139  1  0  0  0
 62140  1  0  0  0
 63 65  1  0  0  0
 63141  1  0  0  0
 63142  1  0  0  0
 63143  1  0  0  0
 64144  1  0  0  0
 65145  1  0  0  0
 68 84  1  0  0  0
 71 72  2  0  0  0
 71 73  1  0  0  0
 71146  1  0  0  0
 72 76  1  0  0  0
 72 81  1  0  0  0
 73 74  2  0  0  0
 73 82  1  0  0  0
 74 75  1  0  0  0
 74 84  1  0  0  0
 75 76  2  0  0  0
 75 83  1  0  0  0
 76 86  1  0  0  0
 77 79  1  0  0  0
 77 81  1  0  0  0
 77147  1  0  0  0
 77148  1  0  0  0
 78 80  1  0  0  0
 78 81  1  0  0  0
 78149  1  0  0  0
 78150  1  0  0  0
 79 85  1  0  0  0
 79151  1  0  0  0
 79152  1  0  0  0
 80 85  1  0  0  0
 80153  1  0  0  0
 80154  1  0  0  0
 81155  1  0  0  0
 82156  1  0  0  0
 82157  1  0  0  0
 82158  1  0  0  0
 83159  1  0  0  0
 83160  1  0  0  0
 83161  1  0  0  0
 84162  1  0  0  0
 84163  1  0  0  0
M  ISO  4   1 100  68 101  84 101  85 100
M  END
> <chiral flag>
0

> <version>
0

> <s_m_source_file>
/data/baiqing/PycharmProjects/Reinvent-master-3.2/result/LINK_invent/BTK/process_docking_weight1_custom_sum_contain_oxygen_bond_distance_aromatic_linkinvent_7_9_3/rearranged_h_0161.sdf

> <i_m_source_file_index>
61

> <r_mmod_Potential_Energy-OPLS-2005>
484.221069335938

> <r_mmod_Stretch_Energy-OPLS-2005>
122.335289001465

> <r_mmod_Bend_Energy-OPLS-2005>
184.967437744141

> <r_mmod_Torsional_Energy-OPLS-2005>
383.60107421875

> <r_mmod_Improper_Torsional_Energy-OPLS-2005>
15.1675434112549

> <r_mmod_Van_der_Waal_Energy-OPLS-2005>
150.084518432617

> <r_mmod_Electrostatic_Energy-OPLS-2005>
-273.368499755859

> <r_mmod_Solvation_Energy-OPLS-2005>
-187.324295043945

> <b_mmod_Minimization_Converged-OPLS-2005>
0

> <r_mmod_RMS_Derivative-OPLS-2005>
2.0066499710083

$$$$
61
                    3D
 Structure written by MMmdl.
168177  0  0  1  0            999 V2000
  -30.7710  -14.4384   20.5448 C   0  0  0  0  0  0
  -30.3908  -12.2830   19.4241 C   0  0  0  0  0  0
  -29.4772  -12.4917   18.2039 C   0  0  0  0  0  0
  -27.9992  -12.3530   18.6224 C   0  0  0  0  0  0
  -27.6463  -13.2067   19.8696 C   0  0  2  0  0  0
  -28.6981  -13.0414   20.9927 C   0  0  0  0  0  0
  -25.2475  -13.8117   20.5727 C   0  0  0  0  0  0
  -24.1738  -13.0368   20.9211 C   0  0  0  0  0  0
  -24.6315  -11.6851   20.8777 C   0  0  0  0  0  0
  -23.8991  -10.4236   21.0403 C   0  0  0  0  0  0
  -24.3562   -9.4190   21.9183 C   0  0  0  0  0  0
  -23.6240   -8.2225   22.0753 C   0  0  0  0  0  0
  -22.4250   -8.0256   21.3525 C   0  0  0  0  0  0
  -21.9872   -9.0219   20.4630 C   0  0  0  0  0  0
  -22.7169  -10.2094   20.3047 C   0  0  0  0  0  0
  -21.6840   -6.0707   22.5266 C   0  0  0  0  0  0
  -21.4006   -6.5616   23.8195 C   0  0  0  0  0  0
  -21.3676   -5.6789   24.9177 C   0  0  0  0  0  0
  -21.6049   -4.3053   24.7242 C   0  0  0  0  0  0
  -21.8832   -3.8133   23.4367 C   0  0  0  0  0  0
  -21.9178   -4.6935   22.3410 C   0  0  0  0  0  0
  -22.7778  -13.5193   21.1833 C   0  0  0  0  0  0
  -22.1657   -4.2118   21.0995 F   0  0  0  0  0  0
  -21.5623   -3.4551   25.7761 F   0  0  0  0  0  0
  -30.0306  -13.2999   20.4276 N   0  0  0  0  0  0
  -26.2916  -12.9297   20.3403 N   0  0  0  0  0  0
  -25.9264  -11.6450   20.5862 N   0  0  0  0  0  0
  -22.0415  -12.8212   22.0407 N   0  0  0  0  0  0
  -25.4087  -15.1833   20.4169 N   0  0  0  0  0  0
  -31.8983  -14.5441   20.0570 O   0  0  0  0  0  0
  -21.6618   -6.8861   21.4235 O   0  0  0  0  0  0
  -22.3462  -14.5455   20.6629 O   0  0  0  0  0  0
  -24.6120  -31.8772   23.2100 C   0  0  0  0  0  0
  -25.9027  -32.4863   23.8378 C   0  0  1  0  0  0
  -27.2294  -27.4553   20.0928 C   0  0  0  0  0  0
  -25.5901  -33.8648   24.2348 N   0  0  0  0  0  0
  -23.3969  -30.5003   21.5521 C   0  0  2  0  0  0
  -24.8366  -28.9682   20.1169 C   0  0  0  0  0  0
  -22.7432  -29.4734   22.5043 C   0  0  0  0  0  0
  -18.0293  -28.1401   22.8489 C   0  0  0  0  0  0
  -24.1489  -36.7356   23.2656 C   0  0  0  0  0  0
  -25.9275  -30.8443   21.3653 C   0  0  0  0  0  0
  -25.9956  -29.4826   20.7071 C   0  0  0  0  0  0
  -27.1900  -28.7337   20.6866 C   0  0  0  0  0  0
  -26.0500  -26.9488   19.4962 C   0  0  0  0  0  0
  -24.8586  -27.7005   19.5101 C   0  0  0  0  0  0
  -23.5991  -29.8338   20.1665 C   0  0  0  0  0  0
  -25.4123  -36.3173   24.0360 C   0  0  1  0  0  0
  -20.5875  -28.3673   23.1365 C   0  0  2  0  0  0
  -20.6755  -26.9402   22.5445 C   0  0  0  0  0  0
  -19.5720  -26.6376   21.5240 C   0  0  0  0  0  0
  -18.1912  -26.7948   22.1648 C   0  0  0  0  0  0
  -19.1535  -28.8854   23.2918 C   0  0  0  0  0  0
  -18.9449  -30.1463   23.8910 C   0  0  0  0  0  0
  -17.6440  -30.6578   24.0563 C   0  0  0  0  0  0
  -25.9044  -34.9507   23.5164 C   0  0  0  0  0  0
  -16.5340  -29.9079   23.6304 C   0  0  0  0  0  0
  -16.7284  -28.6511   23.0319 C   0  0  0  0  0  0
  -26.4430  -31.6653   25.0727 C   0  0  0  0  0  0
  -25.3684  -31.3693   26.1462 C   0  0  0  0  0  0
  -27.0274  -30.3123   24.6119 C   0  0  0  0  0  0
  -27.6046  -32.4375   25.7446 C   0  0  0  0  0  0
  -27.5603  -37.1843   24.8467 C   0  0  0  0  0  0
  -21.4172  -29.3063   22.3792 N   0  0  0  0  0  0
  -26.4325  -37.3845   23.9404 N   0  0  0  0  0  0
  -24.6635  -31.0904   22.0989 N   0  0  0  0  0  0
  -23.4254  -28.8303   23.3062 O   0  0  0  0  0  0
  -28.4293  -26.7774   20.1363 O   0  0  0  0  0  0
  -26.5596  -34.8912   22.4721 O   0  0  0  0  0  0
  -23.5327  -32.1511   23.7517 O   0  0  0  0  0  0
  -28.5273  -22.3606   19.2180 C   0  0  0  0  0  0
  -29.1911  -22.4419   21.5399 C   0  0  0  0  0  0
  -28.5057  -23.0174   20.4575 C   0  0  0  0  0  0
  -29.3502  -21.2255   19.0711 C   0  0  0  0  0  0
  -30.0805  -20.7674   20.1927 C   0  0  0  0  0  0
  -31.8219  -17.4876   21.1473 C   0  0  0  0  0  0
  -29.4406  -17.8442   20.4274 C   0  0  0  0  0  0
  -31.1116  -16.3708   21.9720 C   0  0  0  0  0  0
  -29.1700  -16.3095   20.4886 C   0  0  0  0  0  0
  -30.9166  -18.2008   20.0815 C   0  0  0  0  0  0
  -29.4961  -20.5941   17.6997 C   0  0  0  0  0  0
  -27.8410  -24.3819   20.5847 C   0  0  0  0  0  0
  -31.2191  -19.7461   20.0568 C   0  0  0  0  0  0
  -28.5306  -25.4300   19.6765 C   0  0  0  0  0  0
  -29.9554  -21.3348   21.4130 N   0  0  0  0  0  0
  -30.2270  -15.5205   21.1599 N   0  0  0  0  0  0
  -31.2515  -17.6717   18.7274 N   0  3  0  0  0  0
  -31.4385  -12.3222   19.1248 H   0  0  0  0  0  0
  -30.2459  -11.2806   19.8310 H   0  0  0  0  0  0
  -29.7149  -11.7565   17.4347 H   0  0  0  0  0  0
  -29.6594  -13.4719   17.7610 H   0  0  0  0  0  0
  -27.8241  -11.3021   18.8428 H   0  0  0  0  0  0
  -27.3435  -12.6008   17.7851 H   0  0  0  0  0  0
  -27.6576  -14.2406   19.5365 H   0  0  0  0  0  0
  -28.6621  -12.0248   21.3929 H   0  0  0  0  0  0
  -28.4734  -13.7016   21.8320 H   0  0  0  0  0  0
  -25.2733   -9.5695   22.4741 H   0  0  0  0  0  0
  -23.9962   -7.4648   22.7484 H   0  0  0  0  0  0
  -21.0807   -8.8703   19.8935 H   0  0  0  0  0  0
  -22.3609  -10.9617   19.6156 H   0  0  0  0  0  0
  -21.1989   -7.6137   23.9712 H   0  0  0  0  0  0
  -21.1507   -6.0512   25.9081 H   0  0  0  0  0  0
  -22.0581   -2.7587   23.2870 H   0  0  0  0  0  0
  -22.4026  -11.9913   22.4856 H   0  0  0  0  0  0
  -21.1026  -13.1221   22.2553 H   0  0  0  0  0  0
  -24.6442  -15.8311   20.5783 H   0  0  0  0  0  0
  -26.2640  -15.6358   20.1253 H   0  0  0  0  0  0
  -26.7102  -32.5538   23.1116 H   0  0  0  0  0  0
  -24.9923  -33.9748   25.0408 H   0  0  0  0  0  0
  -22.6827  -31.3155   21.4139 H   0  0  0  0  0  0
  -23.3751  -35.9689   23.3350 H   0  0  0  0  0  0
  -24.3598  -36.8917   22.2062 H   0  0  0  0  0  0
  -23.7156  -37.6549   23.6629 H   0  0  0  0  0  0
  -26.0448  -31.6192   20.6087 H   0  0  0  0  0  0
  -26.8183  -30.8925   21.9816 H   0  0  0  0  0  0
  -28.0913  -29.1296   21.1306 H   0  0  0  0  0  0
  -26.0236  -25.9768   19.0301 H   0  0  0  0  0  0
  -23.9623  -27.3035   19.0549 H   0  0  0  0  0  0
  -23.7156  -30.6095   19.4099 H   0  0  0  0  0  0
  -22.7208  -29.2592   19.8599 H   0  0  0  0  0  0
  -25.1270  -36.2107   25.0855 H   0  0  0  0  0  0
  -20.9945  -28.3174   24.1489 H   0  0  0  0  0  0
  -20.5685  -26.2248   23.3619 H   0  0  0  0  0  0
  -21.6620  -26.7438   22.1205 H   0  0  0  0  0  0
  -19.6880  -25.6282   21.1257 H   0  0  0  0  0  0
  -19.6655  -27.3179   20.6770 H   0  0  0  0  0  0
  -17.4181  -26.6710   21.4052 H   0  0  0  0  0  0
  -18.0307  -26.0104   22.9063 H   0  0  0  0  0  0
  -19.7915  -30.7296   24.2275 H   0  0  0  0  0  0
  -17.4981  -31.6249   24.5183 H   0  0  0  0  0  0
  -15.5336  -30.2980   23.7624 H   0  0  0  0  0  0
  -15.8700  -28.0838   22.7017 H   0  0  0  0  0  0
  -24.5870  -30.7057   25.7726 H   0  0  0  0  0  0
  -24.8807  -32.2793   26.4991 H   0  0  0  0  0  0
  -25.8017  -30.8764   27.0179 H   0  0  0  0  0  0
  -26.2793  -29.6866   24.1249 H   0  0  0  0  0  0
  -27.4112  -29.7407   25.4575 H   0  0  0  0  0  0
  -27.8606  -30.4458   23.9220 H   0  0  0  0  0  0
  -27.2728  -33.3673   26.2086 H   0  0  0  0  0  0
  -28.3790  -32.6966   25.0212 H   0  0  0  0  0  0
  -28.0826  -31.8479   26.5270 H   0  0  0  0  0  0
  -28.2663  -38.0109   24.7538 H   0  0  0  0  0  0
  -28.1062  -36.2643   24.6309 H   0  0  0  0  0  0
  -27.2331  -37.1510   25.8871 H   0  0  0  0  0  0
  -20.9385  -29.8750   21.6951 H   0  0  0  0  0  0
  -26.0270  -38.2973   24.1317 H   0  0  0  0  0  0
  -27.9968  -22.7713   18.3691 H   0  0  0  0  0  0
  -29.1875  -22.9189   22.5094 H   0  0  0  0  0  0
  -32.7300  -17.0991   20.6763 H   0  0  0  0  0  0
  -32.2033  -18.1895   21.8917 H   0  0  0  0  0  0
  -29.1994  -18.2796   21.3986 H   0  0  0  0  0  0
  -28.7401  -18.3052   19.7305 H   0  0  0  0  0  0
  -30.5130  -16.8164   22.7661 H   0  0  0  0  0  0
  -31.8590  -15.7690   22.4962 H   0  0  0  0  0  0
  -29.0415  -15.9593   19.4634 H   0  0  0  0  0  0
  -28.2173  -16.1224   20.9885 H   0  0  0  0  0  0
  -28.7951  -21.0144   16.9732 H   0  0  0  0  0  0
  -29.3187  -19.5212   17.7504 H   0  0  0  0  0  0
  -30.5096  -20.7557   17.3375 H   0  0  0  0  0  0
  -27.8640  -24.6946   21.6276 H   0  0  0  0  0  0
  -26.7898  -24.2946   20.3156 H   0  0  0  0  0  0
  -31.9274  -19.9920   20.8476 H   0  0  0  0  0  0
  -31.7768  -20.0186   19.1620 H   0  0  0  0  0  0
  -28.2192  -25.3469   18.6336 H   0  0  0  0  0  0
  -29.6028  -25.2183   19.6812 H   0  0  0  0  0  0
  -30.5751  -17.9362   18.0297 H   0  0  0  0  0  0
  -31.3206  -16.6690   18.7343 H   0  0  0  0  0  0
  -32.1434  -18.0228   18.4198 H   0  0  0  0  0  0
  1 25  1  0  0  0
  1 30  2  0  0  0
  1 86  1  0  0  0
  2  3  1  0  0  0
  2 25  1  0  0  0
  2 88  1  0  0  0
  2 89  1  0  0  0
  3  4  1  0  0  0
  3 90  1  0  0  0
  3 91  1  0  0  0
  4  5  1  0  0  0
  4 92  1  0  0  0
  4 93  1  0  0  0
  5  6  1  0  0  0
  5 26  1  0  0  0
  5 94  1  0  0  0
  6 25  1  0  0  0
  6 95  1  0  0  0
  6 96  1  0  0  0
  7  8  2  0  0  0
  7 26  1  0  0  0
  7 29  1  0  0  0
  8  9  1  0  0  0
  8 22  1  0  0  0
  9 10  1  0  0  0
  9 27  2  0  0  0
 10 11  2  0  0  0
 10 15  1  0  0  0
 11 12  1  0  0  0
 11 97  1  0  0  0
 12 13  2  0  0  0
 12 98  1  0  0  0
 13 14  1  0  0  0
 13 31  1  0  0  0
 14 15  2  0  0  0
 14 99  1  0  0  0
 15100  1  0  0  0
 16 17  2  0  0  0
 16 21  1  0  0  0
 16 31  1  0  0  0
 17 18  1  0  0  0
 17101  1  0  0  0
 18 19  2  0  0  0
 18102  1  0  0  0
 19 20  1  0  0  0
 19 24  1  0  0  0
 20 21  2  0  0  0
 20103  1  0  0  0
 21 23  1  0  0  0
 22 28  1  0  0  0
 22 32  2  0  0  0
 26 27  1  0  0  0
 28104  1  0  0  0
 28105  1  0  0  0
 29106  1  0  0  0
 29107  1  0  0  0
 33 34  1  0  0  0
 33 66  1  0  0  0
 33 70  2  0  0  0
 34 36  1  0  0  0
 34 59  1  0  0  0
 34108  1  0  0  0
 35 44  2  0  0  0
 35 45  1  0  0  0
 35 68  1  0  0  0
 36 56  1  0  0  0
 36109  1  0  0  0
 37 39  1  0  0  0
 37 47  1  0  0  0
 37 66  1  0  0  0
 37110  1  0  0  0
 38 43  2  0  0  0
 38 46  1  0  0  0
 38 47  1  0  0  0
 39 64  1  0  0  0
 39 67  2  0  0  0
 40 52  1  0  0  0
 40 53  2  0  0  0
 40 58  1  0  0  0
 41111  1  0  0  0
 41112  1  0  0  0
 41113  1  0  0  0
 41 48  1  0  0  0
 42 43  1  0  0  0
 42 66  1  0  0  0
 42114  1  0  0  0
 42115  1  0  0  0
 43 44  1  0  0  0
 44116  1  0  0  0
 45 46  2  0  0  0
 45117  1  0  0  0
 46118  1  0  0  0
 47119  1  0  0  0
 47120  1  0  0  0
 48 56  1  0  0  0
 48 65  1  0  0  0
 48121  1  0  0  0
 49 50  1  0  0  0
 49 53  1  0  0  0
 49 64  1  0  0  0
 49122  1  0  0  0
 50 51  1  0  0  0
 50123  1  0  0  0
 50124  1  0  0  0
 51 52  1  0  0  0
 51125  1  0  0  0
 51126  1  0  0  0
 52127  1  0  0  0
 52128  1  0  0  0
 53 54  1  0  0  0
 54 55  2  0  0  0
 54129  1  0  0  0
 55 57  1  0  0  0
 55130  1  0  0  0
 56 69  2  0  0  0
 57 58  2  0  0  0
 57131  1  0  0  0
 58132  1  0  0  0
 59 60  1  0  0  0
 59 61  1  0  0  0
 59 62  1  0  0  0
 60133  1  0  0  0
 60134  1  0  0  0
 60135  1  0  0  0
 61136  1  0  0  0
 61137  1  0  0  0
 61138  1  0  0  0
 62139  1  0  0  0
 62140  1  0  0  0
 62141  1  0  0  0
 63 65  1  0  0  0
 63142  1  0  0  0
 63143  1  0  0  0
 63144  1  0  0  0
 64145  1  0  0  0
 65146  1  0  0  0
 68 84  1  0  0  0
 71 73  2  0  0  0
 71 74  1  0  0  0
 71147  1  0  0  0
 72 73  1  0  0  0
 72 85  2  0  0  0
 72148  1  0  0  0
 73 82  1  0  0  0
 74 75  2  0  0  0
 74 81  1  0  0  0
 75 83  1  0  0  0
 75 85  1  0  0  0
 76 78  1  0  0  0
 76 80  1  0  0  0
 76149  1  0  0  0
 76150  1  0  0  0
 77 79  1  0  0  0
 77 80  1  0  0  0
 77151  1  0  0  0
 77152  1  0  0  0
 78 86  1  0  0  0
 78153  1  0  0  0
 78154  1  0  0  0
 79 86  1  0  0  0
 79155  1  0  0  0
 79156  1  0  0  0
 80 83  1  0  0  0
 80 87  1  0  0  0
 81157  1  0  0  0
 81158  1  0  0  0
 81159  1  0  0  0
 82 84  1  0  0  0
 82160  1  0  0  0
 82161  1  0  0  0
 83162  1  0  0  0
 83163  1  0  0  0
 84164  1  0  0  0
 84165  1  0  0  0
 87166  1  0  0  0
 87167  1  0  0  0
 87168  1  0  0  0
M  CHG  1  87   1
M  ISO  4   1 100  68 101  84 101  86 100
M  END
> <chiral flag>
0

> <version>
0

> <s_m_source_file>
/data/baiqing/PycharmProjects/Reinvent-master-3.2/result/LINK_invent/BTK/process_docking_weight1_custom_sum_contain_oxygen_bond_distance_aromatic_linkinvent_7_9_3/rearranged_h_0161.sdf

> <i_m_source_file_index>
62

> <r_mmod_Potential_Energy-OPLS-2005>
-111.879364013672

> <r_mmod_Stretch_Energy-OPLS-2005>
43.5726089477539

> <r_mmod_Bend_Energy-OPLS-2005>
129.782241821289

> <r_mmod_Torsional_Energy-OPLS-2005>
348.835327148438

> <r_mmod_Improper_Torsional_Energy-OPLS-2005>
6.33774662017822

> <r_mmod_Van_der_Waal_Energy-OPLS-2005>
170.912231445312

> <r_mmod_Electrostatic_Energy-OPLS-2005>
-354.139404296875

> <r_mmod_Solvation_Energy-OPLS-2005>
-473.50537109375

> <b_mmod_Minimization_Converged-OPLS-2005>
0

> <r_mmod_RMS_Derivative-OPLS-2005>
6.59443807601929

$$$$
62
                    3D
 Structure written by MMmdl.
171181  0  0  1  0            999 V2000
  -30.7289  -14.5431   20.5893 C   0  0  0  0  0  0
  -30.4170  -12.3620   19.4423 C   0  0  0  0  0  0
  -29.4923  -12.5004   18.2161 C   0  0  0  0  0  0
  -28.0209  -12.3158   18.6306 C   0  0  0  0  0  0
  -27.6497  -13.1865   19.8548 C   0  0  2  0  0  0
  -28.6955  -13.0331   20.9908 C   0  0  0  0  0  0
  -25.2568  -13.8105   20.5645 C   0  0  0  0  0  0
  -24.1819  -13.0411   20.9190 C   0  0  0  0  0  0
  -24.6356  -11.6874   20.8759 C   0  0  0  0  0  0
  -23.9026  -10.4275   21.0429 C   0  0  0  0  0  0
  -24.3591   -9.4193   21.9199 C   0  0  0  0  0  0
  -23.6276   -8.2225   22.0759 C   0  0  0  0  0  0
  -22.4261   -8.0266   21.3546 C   0  0  0  0  0  0
  -21.9889   -9.0238   20.4650 C   0  0  0  0  0  0
  -22.7208  -10.2121   20.3066 C   0  0  0  0  0  0
  -21.6842   -6.0728   22.5281 C   0  0  0  0  0  0
  -21.4007   -6.5636   23.8214 C   0  0  0  0  0  0
  -21.3659   -5.6790   24.9177 C   0  0  0  0  0  0
  -21.6043   -4.3053   24.7228 C   0  0  0  0  0  0
  -21.8820   -3.8144   23.4350 C   0  0  0  0  0  0
  -21.9191   -4.6958   22.3405 C   0  0  0  0  0  0
  -22.7852  -13.5234   21.1858 C   0  0  0  0  0  0
  -22.1660   -4.2145   21.0982 F   0  0  0  0  0  0
  -21.5632   -3.4537   25.7742 F   0  0  0  0  0  0
  -30.0154  -13.3781   20.4418 N   0  0  0  0  0  0
  -26.2956  -12.9222   20.3270 N   0  0  0  0  0  0
  -25.9264  -11.6414   20.5758 N   0  0  0  0  0  0
  -22.0483  -12.8238   22.0414 N   0  0  0  0  0  0
  -25.4290  -15.1818   20.4013 N   0  0  0  0  0  0
  -31.8423  -14.6502   20.0642 O   0  0  0  0  0  0
  -21.6627   -6.8865   21.4239 O   0  0  0  0  0  0
  -22.3551  -14.5546   20.6708 O   0  0  0  0  0  0
  -24.6180  -31.8659   23.2082 C   0  0  0  0  0  0
  -25.9063  -32.4812   23.8386 C   0  0  1  0  0  0
  -27.2318  -27.4018   20.1029 C   0  0  0  0  0  0
  -25.5910  -33.8610   24.2318 N   0  0  0  0  0  0
  -23.4075  -30.4906   21.5492 C   0  0  2  0  0  0
  -24.8538  -28.9560   20.1120 C   0  0  0  0  0  0
  -22.7431  -29.4654   22.4971 C   0  0  0  0  0  0
  -18.0278  -28.1379   22.8492 C   0  0  0  0  0  0
  -24.1487  -36.7309   23.2638 C   0  0  0  0  0  0
  -25.9405  -30.8233   21.3654 C   0  0  0  0  0  0
  -26.0174  -29.4568   20.7090 C   0  0  0  0  0  0
  -27.2099  -28.6900   20.6961 C   0  0  0  0  0  0
  -26.0466  -26.9301   19.4901 C   0  0  0  0  0  0
  -24.8657  -27.6942   19.4965 C   0  0  0  0  0  0
  -23.6172  -29.8253   20.1633 C   0  0  0  0  0  0
  -25.4109  -36.3106   24.0337 C   0  0  1  0  0  0
  -20.5871  -28.3672   23.1308 C   0  0  2  0  0  0
  -20.6768  -26.9404   22.5415 C   0  0  0  0  0  0
  -19.5747  -26.6385   21.5212 C   0  0  0  0  0  0
  -18.1925  -26.7926   22.1622 C   0  0  0  0  0  0
  -19.1527  -28.8841   23.2898 C   0  0  0  0  0  0
  -18.9453  -30.1445   23.8909 C   0  0  0  0  0  0
  -17.6455  -30.6585   24.0563 C   0  0  0  0  0  0
  -25.9039  -34.9472   23.5126 C   0  0  0  0  0  0
  -16.5346  -29.9087   23.6326 C   0  0  0  0  0  0
  -16.7266  -28.6502   23.0348 C   0  0  0  0  0  0
  -26.4479  -31.6595   25.0722 C   0  0  0  0  0  0
  -25.3739  -31.3704   26.1466 C   0  0  0  0  0  0
  -27.0310  -30.3035   24.6109 C   0  0  0  0  0  0
  -27.6054  -32.4314   25.7487 C   0  0  0  0  0  0
  -27.5581  -37.1809   24.8464 C   0  0  0  0  0  0
  -21.4154  -29.3037   22.3713 N   0  0  0  0  0  0
  -26.4293  -37.3793   23.9410 N   0  0  0  0  0  0
  -24.6739  -31.0743   22.0993 N   0  0  0  0  0  0
  -23.4191  -28.8192   23.3020 O   0  0  0  0  0  0
  -28.3826  -26.6261   20.1438 O   0  0  0  0  0  0
  -26.5599  -34.8926   22.4686 O   0  0  0  0  0  0
  -23.5366  -32.1421   23.7462 O   0  0  0  0  0  0
  -29.9884  -20.4222   19.8765 C   0  0  0  0  0  0
  -29.7058  -20.0338   21.2021 C   0  0  0  0  0  0
  -29.4938  -22.7997   20.3654 C   0  0  0  0  0  0
  -29.8889  -21.7731   19.4601 C   0  0  0  0  0  0
  -29.2452  -22.4160   21.7128 C   0  0  0  0  0  0
  -29.3215  -21.0512   22.1150 C   0  0  0  0  0  0
  -28.8428  -17.6072   20.8887 C   0  0  0  0  0  0
  -31.2150  -17.9254   21.5340 C   0  0  0  0  0  0
  -28.4640  -24.6284   18.7548 C   0  0  0  0  0  0
  -28.9138  -16.1540   21.4312 C   0  0  0  0  0  0
  -31.2290  -16.4672   22.0799 C   0  0  0  0  0  0
  -29.8072  -18.5465   21.6339 C   0  0  0  0  0  0
  -29.3934  -24.2631   19.8998 C   0  0  1  0  0  0
  -28.1871  -25.1900   20.1224 C   0  0  1  0  0  0
  -30.2361  -22.0951   18.0153 C   0  0  0  0  0  0
  -28.9082  -23.4741   22.7567 C   0  0  0  0  0  0
  -27.6600  -20.4558   23.6400 C   0  0  0  0  0  0
  -30.2734  -15.5668   21.3882 N   0  0  0  0  0  0
  -29.0386  -20.7191   23.4149 O   0  0  0  0  0  0
  -31.4594  -12.4532   19.1331 H   0  0  0  0  0  0
  -30.3341  -11.3617   19.8707 H   0  0  0  0  0  0
  -29.7606  -11.7653   17.4562 H   0  0  0  0  0  0
  -29.6284  -13.4809   17.7573 H   0  0  0  0  0  0
  -27.8688  -11.2614   18.8653 H   0  0  0  0  0  0
  -27.3601  -12.5392   17.7920 H   0  0  0  0  0  0
  -27.6613  -14.2002   19.4640 H   0  0  0  0  0  0
  -28.7067  -12.0026   21.3488 H   0  0  0  0  0  0
  -28.4389  -13.6237   21.8689 H   0  0  0  0  0  0
  -25.2737   -9.5670   22.4773 H   0  0  0  0  0  0
  -23.9988   -7.4610   22.7471 H   0  0  0  0  0  0
  -21.0824   -8.8753   19.8952 H   0  0  0  0  0  0
  -22.3672  -10.9661   19.6176 H   0  0  0  0  0  0
  -21.1993   -7.6144   23.9715 H   0  0  0  0  0  0
  -21.1482   -6.0522   25.9080 H   0  0  0  0  0  0
  -22.0601   -2.7606   23.2850 H   0  0  0  0  0  0
  -22.4080  -11.9888   22.4797 H   0  0  0  0  0  0
  -21.1109  -13.1285   22.2626 H   0  0  0  0  0  0
  -24.6623  -15.8361   20.5126 H   0  0  0  0  0  0
  -26.2770  -15.6193   20.0664 H   0  0  0  0  0  0
  -26.7135  -32.5512   23.1148 H   0  0  0  0  0  0
  -25.0071  -33.9768   25.0471 H   0  0  0  0  0  0
  -22.6976  -31.3087   21.4102 H   0  0  0  0  0  0
  -23.3748  -35.9642   23.3306 H   0  0  0  0  0  0
  -24.3582  -36.8916   22.2051 H   0  0  0  0  0  0
  -23.7240  -37.6516   23.6647 H   0  0  0  0  0  0
  -26.0582  -31.5900   20.5982 H   0  0  0  0  0  0
  -26.8266  -30.8741   21.9865 H   0  0  0  0  0  0
  -28.1059  -29.0715   21.1656 H   0  0  0  0  0  0
  -26.0145  -25.9666   19.0026 H   0  0  0  0  0  0
  -23.9731  -27.3049   19.0262 H   0  0  0  0  0  0
  -23.7276  -30.6015   19.4052 H   0  0  0  0  0  0
  -22.7401  -29.2476   19.8659 H   0  0  0  0  0  0
  -25.1286  -36.1968   25.0831 H   0  0  0  0  0  0
  -20.9966  -28.3236   24.1428 H   0  0  0  0  0  0
  -20.5671  -26.2278   23.3603 H   0  0  0  0  0  0
  -21.6638  -26.7446   22.1205 H   0  0  0  0  0  0
  -19.6909  -25.6299   21.1234 H   0  0  0  0  0  0
  -19.6689  -27.3201   20.6748 H   0  0  0  0  0  0
  -17.4198  -26.6679   21.4020 H   0  0  0  0  0  0
  -18.0323  -26.0063   22.9013 H   0  0  0  0  0  0
  -19.7929  -30.7256   24.2287 H   0  0  0  0  0  0
  -17.5011  -31.6266   24.5160 H   0  0  0  0  0  0
  -15.5348  -30.2993   23.7644 H   0  0  0  0  0  0
  -15.8664  -28.0826   22.7059 H   0  0  0  0  0  0
  -24.5915  -30.7050   25.7798 H   0  0  0  0  0  0
  -24.8925  -32.2858   26.4916 H   0  0  0  0  0  0
  -25.8088  -30.8870   27.0222 H   0  0  0  0  0  0
  -26.2859  -29.6799   24.1157 H   0  0  0  0  0  0
  -27.4070  -29.7271   25.4571 H   0  0  0  0  0  0
  -27.8698  -30.4350   23.9270 H   0  0  0  0  0  0
  -27.2675  -33.3607   26.2086 H   0  0  0  0  0  0
  -28.3855  -32.6884   25.0310 H   0  0  0  0  0  0
  -28.0732  -31.8422   26.5385 H   0  0  0  0  0  0
  -28.2601  -38.0106   24.7513 H   0  0  0  0  0  0
  -28.1076  -36.2638   24.6285 H   0  0  0  0  0  0
  -27.2301  -37.1453   25.8867 H   0  0  0  0  0  0
  -20.9316  -29.8765   21.6940 H   0  0  0  0  0  0
  -26.0181  -38.2871   24.1409 H   0  0  0  0  0  0
  -30.2879  -19.6656   19.1647 H   0  0  0  0  0  0
  -27.8224  -17.9788   20.9910 H   0  0  0  0  0  0
  -29.0633  -17.6118   19.8205 H   0  0  0  0  0  0
  -31.5631  -17.9374   20.5003 H   0  0  0  0  0  0
  -31.9214  -18.5310   22.1033 H   0  0  0  0  0  0
  -27.7661  -23.8754   18.3947 H   0  0  0  0  0  0
  -28.8438  -25.3113   17.9979 H   0  0  0  0  0  0
  -28.1957  -15.5864   20.8651 H   0  0  0  0  0  0
  -28.5614  -16.1278   22.4633 H   0  0  0  0  0  0
  -30.9702  -16.4769   23.1396 H   0  0  0  0  0  0
  -32.2490  -16.0797   22.0466 H   0  0  0  0  0  0
  -29.5329  -18.4947   22.6869 H   0  0  0  0  0  0
  -30.3779  -24.7269   19.9128 H   0  0  0  0  0  0
  -27.3392  -24.8215   20.6981 H   0  0  0  0  0  0
  -30.8088  -21.2888   17.5559 H   0  0  0  0  0  0
  -30.8408  -22.9994   17.9450 H   0  0  0  0  0  0
  -29.3303  -22.2353   17.4256 H   0  0  0  0  0  0
  -29.4405  -24.4066   22.5703 H   0  0  0  0  0  0
  -29.1912  -23.1548   23.7597 H   0  0  0  0  0  0
  -27.8381  -23.6793   22.7609 H   0  0  0  0  0  0
  -27.5074  -20.1635   24.6788 H   0  0  0  0  0  0
  -27.3003  -19.6429   23.0079 H   0  0  0  0  0  0
  -27.0479  -21.3376   23.4477 H   0  0  0  0  0  0
  1 25  1  0  0  0
  1 30  2  0  0  0
  1 88  1  0  0  0
  2  3  1  0  0  0
  2 25  1  0  0  0
  2 90  1  0  0  0
  2 91  1  0  0  0
  3  4  1  0  0  0
  3 92  1  0  0  0
  3 93  1  0  0  0
  4  5  1  0  0  0
  4 94  1  0  0  0
  4 95  1  0  0  0
  5  6  1  0  0  0
  5 26  1  0  0  0
  5 96  1  0  0  0
  6 25  1  0  0  0
  6 97  1  0  0  0
  6 98  1  0  0  0
  7  8  2  0  0  0
  7 26  1  0  0  0
  7 29  1  0  0  0
  8  9  1  0  0  0
  8 22  1  0  0  0
  9 10  1  0  0  0
  9 27  2  0  0  0
 10 11  2  0  0  0
 10 15  1  0  0  0
 11 12  1  0  0  0
 11 99  1  0  0  0
 12 13  2  0  0  0
 12100  1  0  0  0
 13 14  1  0  0  0
 13 31  1  0  0  0
 14 15  2  0  0  0
 14101  1  0  0  0
 15102  1  0  0  0
 16 17  2  0  0  0
 16 21  1  0  0  0
 16 31  1  0  0  0
 17 18  1  0  0  0
 17103  1  0  0  0
 18 19  2  0  0  0
 18104  1  0  0  0
 19 20  1  0  0  0
 19 24  1  0  0  0
 20 21  2  0  0  0
 20105  1  0  0  0
 21 23  1  0  0  0
 22 28  1  0  0  0
 22 32  2  0  0  0
 26 27  1  0  0  0
 28106  1  0  0  0
 28107  1  0  0  0
 29108  1  0  0  0
 29109  1  0  0  0
 33 34  1  0  0  0
 33 66  1  0  0  0
 33 70  2  0  0  0
 34 36  1  0  0  0
 34 59  1  0  0  0
 34110  1  0  0  0
 35 44  2  0  0  0
 35 45  1  0  0  0
 35 68  1  0  0  0
 36 56  1  0  0  0
 36111  1  0  0  0
 37 39  1  0  0  0
 37 47  1  0  0  0
 37 66  1  0  0  0
 37112  1  0  0  0
 38 43  2  0  0  0
 38 46  1  0  0  0
 38 47  1  0  0  0
 39 64  1  0  0  0
 39 67  2  0  0  0
 40 52  1  0  0  0
 40 53  2  0  0  0
 40 58  1  0  0  0
 41113  1  0  0  0
 41114  1  0  0  0
 41115  1  0  0  0
 41 48  1  0  0  0
 42 43  1  0  0  0
 42 66  1  0  0  0
 42116  1  0  0  0
 42117  1  0  0  0
 43 44  1  0  0  0
 44118  1  0  0  0
 45 46  2  0  0  0
 45119  1  0  0  0
 46120  1  0  0  0
 47121  1  0  0  0
 47122  1  0  0  0
 48 56  1  0  0  0
 48 65  1  0  0  0
 48123  1  0  0  0
 49 50  1  0  0  0
 49 53  1  0  0  0
 49 64  1  0  0  0
 49124  1  0  0  0
 50 51  1  0  0  0
 50125  1  0  0  0
 50126  1  0  0  0
 51 52  1  0  0  0
 51127  1  0  0  0
 51128  1  0  0  0
 52129  1  0  0  0
 52130  1  0  0  0
 53 54  1  0  0  0
 54 55  2  0  0  0
 54131  1  0  0  0
 55 57  1  0  0  0
 55132  1  0  0  0
 56 69  2  0  0  0
 57 58  2  0  0  0
 57133  1  0  0  0
 58134  1  0  0  0
 59 60  1  0  0  0
 59 61  1  0  0  0
 59 62  1  0  0  0
 60135  1  0  0  0
 60136  1  0  0  0
 60137  1  0  0  0
 61138  1  0  0  0
 61139  1  0  0  0
 61140  1  0  0  0
 62141  1  0  0  0
 62142  1  0  0  0
 62143  1  0  0  0
 63 65  1  0  0  0
 63144  1  0  0  0
 63145  1  0  0  0
 63146  1  0  0  0
 64147  1  0  0  0
 65148  1  0  0  0
 68 84  1  0  0  0
 71 72  2  0  0  0
 71 74  1  0  0  0
 71149  1  0  0  0
 72 76  1  0  0  0
 72 82  1  0  0  0
 73 74  2  0  0  0
 73 75  1  0  0  0
 73 83  1  0  0  0
 74 85  1  0  0  0
 75 76  2  0  0  0
 75 86  1  0  0  0
 76 89  1  0  0  0
 77 80  1  0  0  0
 77 82  1  0  0  0
 77150  1  0  0  0
 77151  1  0  0  0
 78 81  1  0  0  0
 78 82  1  0  0  0
 78152  1  0  0  0
 78153  1  0  0  0
 79 83  1  0  0  0
 79 84  1  0  0  0
 79154  1  0  0  0
 79155  1  0  0  0
 80 88  1  0  0  0
 80156  1  0  0  0
 80157  1  0  0  0
 81 88  1  0  0  0
 81158  1  0  0  0
 81159  1  0  0  0
 82160  1  0  0  0
 83 84  1  0  0  0
 83161  1  0  0  0
 84162  1  0  0  0
 85163  1  0  0  0
 85164  1  0  0  0
 85165  1  0  0  0
 86166  1  0  0  0
 86167  1  0  0  0
 86168  1  0  0  0
 87 89  1  0  0  0
 87169  1  0  0  0
 87170  1  0  0  0
 87171  1  0  0  0
M  ISO  4   1 100  68 101  84 101  88 100
M  END
> <chiral flag>
0

> <version>
0

> <s_m_source_file>
/data/baiqing/PycharmProjects/Reinvent-master-3.2/result/LINK_invent/BTK/process_docking_weight1_custom_sum_contain_oxygen_bond_distance_aromatic_linkinvent_7_9_3/rearranged_h_0161.sdf

> <i_m_source_file_index>
63

> <r_mmod_Potential_Energy-OPLS-2005>
214.566802978516

> <r_mmod_Stretch_Energy-OPLS-2005>
55.9177207946777

> <r_mmod_Bend_Energy-OPLS-2005>
129.903121948242

> <r_mmod_Torsional_Energy-OPLS-2005>
352.222198486328

> <r_mmod_Improper_Torsional_Energy-OPLS-2005>
2.90637850761414

> <r_mmod_Van_der_Waal_Energy-OPLS-2005>
164.315780639648

> <r_mmod_Electrostatic_Energy-OPLS-2005>
-313.395843505859

> <r_mmod_Solvation_Energy-OPLS-2005>
-199.817153930664

> <b_mmod_Minimization_Converged-OPLS-2005>
0

> <r_mmod_RMS_Derivative-OPLS-2005>
0.315338581800461

$$$$
63
                    3D
 Structure written by MMmdl.
169178  0  0  1  0            999 V2000
  -30.7063  -14.7326   20.4918 C   0  0  0  0  0  0
  -30.4068  -12.4549   19.5031 C   0  0  0  0  0  0
  -29.5081  -12.5150   18.2526 C   0  0  0  0  0  0
  -28.0362  -12.3383   18.6592 C   0  0  0  0  0  0
  -27.6360  -13.2516   19.8489 C   0  0  2  0  0  0
  -28.6772  -13.2407   20.9929 C   0  0  0  0  0  0
  -25.2443  -13.8193   20.5712 C   0  0  0  0  0  0
  -24.1779  -13.0426   20.9225 C   0  0  0  0  0  0
  -24.6412  -11.6917   20.8763 C   0  0  0  0  0  0
  -23.9091  -10.4289   21.0402 C   0  0  0  0  0  0
  -24.3632   -9.4204   21.9185 C   0  0  0  0  0  0
  -23.6305   -8.2245   22.0748 C   0  0  0  0  0  0
  -22.4286   -8.0279   21.3537 C   0  0  0  0  0  0
  -21.9924   -9.0252   20.4637 C   0  0  0  0  0  0
  -22.7260  -10.2134   20.3049 C   0  0  0  0  0  0
  -21.6867   -6.0731   22.5278 C   0  0  0  0  0  0
  -21.4025   -6.5626   23.8215 C   0  0  0  0  0  0
  -21.3669   -5.6773   24.9174 C   0  0  0  0  0  0
  -21.6049   -4.3032   24.7222 C   0  0  0  0  0  0
  -21.8819   -3.8132   23.4342 C   0  0  0  0  0  0
  -21.9200   -4.6957   22.3399 C   0  0  0  0  0  0
  -22.7796  -13.5188   21.1883 C   0  0  0  0  0  0
  -22.1667   -4.2137   21.0981 F   0  0  0  0  0  0
  -21.5637   -3.4517   25.7743 F   0  0  0  0  0  0
  -29.9886  -13.5537   20.4157 N   0  0  0  0  0  0
  -26.2913  -12.9477   20.3294 N   0  0  0  0  0  0
  -25.9344  -11.6593   20.5758 N   0  0  0  0  0  0
  -22.0441  -12.8197   22.0432 N   0  0  0  0  0  0
  -25.4048  -15.1918   20.4114 N   0  0  0  0  0  0
  -31.8666  -14.7239   20.0702 O   0  0  0  0  0  0
  -21.6646   -6.8876   21.4237 O   0  0  0  0  0  0
  -22.3483  -14.5494   20.6717 O   0  0  0  0  0  0
  -24.6291  -31.8582   23.2009 C   0  0  0  0  0  0
  -25.9114  -32.4772   23.8367 C   0  0  1  0  0  0
  -27.2197  -27.2763   20.1332 C   0  0  0  0  0  0
  -25.5917  -33.8578   24.2300 N   0  0  0  0  0  0
  -23.4262  -30.4804   21.5433 C   0  0  2  0  0  0
  -24.8711  -28.9319   20.1076 C   0  0  0  0  0  0
  -22.7511  -29.4592   22.4915 C   0  0  0  0  0  0
  -18.0295  -28.1363   22.8488 C   0  0  0  0  0  0
  -24.1482  -36.7283   23.2642 C   0  0  0  0  0  0
  -25.9703  -30.7711   21.3834 C   0  0  0  0  0  0
  -26.0399  -29.3970   20.7226 C   0  0  0  0  0  0
  -27.2131  -28.5820   20.7233 C   0  0  0  0  0  0
  -26.0263  -26.8738   19.4894 C   0  0  0  0  0  0
  -24.8700  -27.6774   19.4794 C   0  0  0  0  0  0
  -23.6450  -29.8230   20.1563 C   0  0  0  0  0  0
  -25.4110  -36.3093   24.0347 C   0  0  1  0  0  0
  -20.5899  -28.3658   23.1268 C   0  0  2  0  0  0
  -20.6791  -26.9376   22.5404 C   0  0  0  0  0  0
  -19.5761  -26.6358   21.5210 C   0  0  0  0  0  0
  -18.1937  -26.7909   22.1611 C   0  0  0  0  0  0
  -19.1554  -28.8834   23.2868 C   0  0  0  0  0  0
  -18.9470  -30.1439   23.8878 C   0  0  0  0  0  0
  -17.6469  -30.6574   24.0552 C   0  0  0  0  0  0
  -25.9040  -34.9461   23.5128 C   0  0  0  0  0  0
  -16.5362  -29.9073   23.6317 C   0  0  0  0  0  0
  -16.7284  -28.6484   23.0346 C   0  0  0  0  0  0
  -26.4496  -31.6584   25.0742 C   0  0  0  0  0  0
  -25.3739  -31.3690   26.1474 C   0  0  0  0  0  0
  -27.0362  -30.3017   24.6224 C   0  0  0  0  0  0
  -27.6080  -32.4313   25.7482 C   0  0  0  0  0  0
  -27.5584  -37.1796   24.8474 C   0  0  0  0  0  0
  -21.4211  -29.3013   22.3669 N   0  0  0  0  0  0
  -26.4301  -37.3788   23.9412 N   0  0  0  0  0  0
  -24.6936  -31.0554   22.0983 N   0  0  0  0  0  0
  -23.4230  -28.8148   23.3016 O   0  0  0  0  0  0
  -28.3497  -26.4346   20.2188 O   0  0  0  0  0  0
  -26.5618  -34.8926   22.4704 O   0  0  0  0  0  0
  -23.5433  -32.1400   23.7291 O   0  0  0  0  0  0
  -28.5144  -19.6694   20.3741 C   0  0  0  0  0  0
  -27.4237  -19.5401   19.4509 C   0  0  0  0  0  0
  -28.7922  -21.0525   20.8005 C   0  0  0  0  0  0
  -26.7016  -20.6749   18.9770 C   0  0  0  0  0  0
  -26.9653  -21.9778   19.4681 C   0  0  0  0  0  0
  -28.0794  -22.2344   20.3075 C   0  0  0  0  0  0
  -30.7891  -18.3300   21.0270 C   0  0  0  0  0  0
  -31.1408  -16.9256   21.5827 C   0  0  0  0  0  0
  -29.0939  -16.8085   20.5193 C   0  0  0  0  0  0
  -29.2630  -18.3512   20.9912 C   0  0  2  0  0  0
  -26.9141  -18.1655   19.0330 C   0  0  0  0  0  0
  -29.7889  -21.2932   21.9258 C   0  0  0  0  0  0
  -25.5660  -20.5062   17.9584 C   0  0  0  0  0  0
  -25.9389  -23.0764   19.1854 C   0  0  0  0  0  0
  -28.3408  -23.7552   20.7848 C   0  0  0  0  0  0
  -28.3819  -25.0107   19.7551 C   0  0  0  0  0  0
  -30.2001  -15.9222   21.0319 N   0  0  0  0  0  0
  -31.4551  -12.5137   19.2096 H   0  0  0  0  0  0
  -30.3025  -11.4911   20.0031 H   0  0  0  0  0  0
  -29.7965  -11.7482   17.5342 H   0  0  0  0  0  0
  -29.6421  -13.4738   17.7497 H   0  0  0  0  0  0
  -27.8927  -11.2926   18.9288 H   0  0  0  0  0  0
  -27.3827  -12.5239   17.8060 H   0  0  0  0  0  0
  -27.6098  -14.2629   19.4425 H   0  0  0  0  0  0
  -28.7027  -12.2729   21.4941 H   0  0  0  0  0  0
  -28.4086  -13.9758   21.7532 H   0  0  0  0  0  0
  -25.2775   -9.5691   22.4749 H   0  0  0  0  0  0
  -24.0021   -7.4630   22.7453 H   0  0  0  0  0  0
  -21.0866   -8.8768   19.8927 H   0  0  0  0  0  0
  -22.3716  -10.9670   19.6155 H   0  0  0  0  0  0
  -21.2009   -7.6134   23.9726 H   0  0  0  0  0  0
  -21.1500   -6.0495   25.9087 H   0  0  0  0  0  0
  -22.0592   -2.7588   23.2843 H   0  0  0  0  0  0
  -22.4083  -11.9918   22.4915 H   0  0  0  0  0  0
  -21.1040  -13.1226   22.2570 H   0  0  0  0  0  0
  -24.6263  -15.8312   20.5170 H   0  0  0  0  0  0
  -26.2456  -15.6372   20.0744 H   0  0  0  0  0  0
  -26.7174  -32.5429   23.1101 H   0  0  0  0  0  0
  -25.0109  -33.9738   25.0475 H   0  0  0  0  0  0
  -22.7174  -31.2989   21.3997 H   0  0  0  0  0  0
  -23.3773  -35.9590   23.3302 H   0  0  0  0  0  0
  -24.3577  -36.8894   22.2058 H   0  0  0  0  0  0
  -23.7200  -37.6474   23.6655 H   0  0  0  0  0  0
  -26.1192  -31.5335   20.6183 H   0  0  0  0  0  0
  -26.8447  -30.8084   22.0218 H   0  0  0  0  0  0
  -28.1064  -28.9362   21.2160 H   0  0  0  0  0  0
  -25.9375  -25.9234   18.9920 H   0  0  0  0  0  0
  -23.9758  -27.3171   18.9873 H   0  0  0  0  0  0
  -23.7784  -30.6058   19.4088 H   0  0  0  0  0  0
  -22.7622  -29.2639   19.8438 H   0  0  0  0  0  0
  -25.1265  -36.1972   25.0840 H   0  0  0  0  0  0
  -20.9973  -28.3239   24.1391 H   0  0  0  0  0  0
  -20.5672  -26.2272   23.3607 H   0  0  0  0  0  0
  -21.6667  -26.7401   22.1198 H   0  0  0  0  0  0
  -19.6924  -25.6266   21.1240 H   0  0  0  0  0  0
  -19.6711  -27.3183   20.6751 H   0  0  0  0  0  0
  -17.4210  -26.6663   21.4004 H   0  0  0  0  0  0
  -18.0315  -26.0038   22.8987 H   0  0  0  0  0  0
  -19.7956  -30.7260   24.2237 H   0  0  0  0  0  0
  -17.5029  -31.6254   24.5161 H   0  0  0  0  0  0
  -15.5361  -30.2973   23.7643 H   0  0  0  0  0  0
  -15.8673  -28.0806   22.7053 H   0  0  0  0  0  0
  -24.5964  -30.6962   25.7823 H   0  0  0  0  0  0
  -24.8853  -32.2807   26.4910 H   0  0  0  0  0  0
  -25.8079  -30.8899   27.0261 H   0  0  0  0  0  0
  -26.2955  -29.6742   24.1251 H   0  0  0  0  0  0
  -27.4055  -29.7294   25.4746 H   0  0  0  0  0  0
  -27.8820  -30.4299   23.9471 H   0  0  0  0  0  0
  -27.2750  -33.3653   26.2034 H   0  0  0  0  0  0
  -28.3893  -32.6812   25.0283 H   0  0  0  0  0  0
  -28.0761  -31.8446   26.5399 H   0  0  0  0  0  0
  -28.2610  -38.0089   24.7549 H   0  0  0  0  0  0
  -28.1069  -36.2625   24.6272 H   0  0  0  0  0  0
  -27.2301  -37.1415   25.8878 H   0  0  0  0  0  0
  -20.9393  -29.8749   21.6883 H   0  0  0  0  0  0
  -26.0186  -38.2863   24.1434 H   0  0  0  0  0  0
  -31.1840  -18.4452   20.0157 H   0  0  0  0  0  0
  -31.2483  -19.1061   21.6334 H   0  0  0  0  0  0
  -31.0211  -16.9227   22.6685 H   0  0  0  0  0  0
  -32.1944  -16.7125   21.3960 H   0  0  0  0  0  0
  -29.1426  -16.7311   19.4339 H   0  0  0  0  0  0
  -28.1602  -16.3795   20.8731 H   0  0  0  0  0  0
  -28.9341  -18.3585   22.0320 H   0  0  0  0  0  0
  -26.7719  -17.5585   19.9169 H   0  0  0  0  0  0
  -27.5869  -17.6910   18.3215 H   0  0  0  0  0  0
  -25.9212  -18.1386   18.5978 H   0  0  0  0  0  0
  -29.8814  -20.4328   22.5835 H   0  0  0  0  0  0
  -29.4492  -22.0867   22.5894 H   0  0  0  0  0  0
  -30.7700  -21.5653   21.5354 H   0  0  0  0  0  0
  -24.6224  -20.3093   18.4713 H   0  0  0  0  0  0
  -25.7483  -19.7122   17.2352 H   0  0  0  0  0  0
  -25.4363  -21.3916   17.3372 H   0  0  0  0  0  0
  -26.1361  -23.5761   18.2385 H   0  0  0  0  0  0
  -25.8936  -23.8127   19.9854 H   0  0  0  0  0  0
  -24.9234  -22.6888   19.1373 H   0  0  0  0  0  0
  -29.2879  -23.8074   21.3149 H   0  0  0  0  0  0
  -27.5951  -23.9697   21.5503 H   0  0  0  0  0  0
  -27.6953  -24.8841   18.9334 H   0  0  0  0  0  0
  -29.3400  -24.9291   19.2436 H   0  0  0  0  0  0
  1 25  1  0  0  0
  1 30  2  0  0  0
  1 87  1  0  0  0
  2  3  1  0  0  0
  2 25  1  0  0  0
  2 88  1  0  0  0
  2 89  1  0  0  0
  3  4  1  0  0  0
  3 90  1  0  0  0
  3 91  1  0  0  0
  4  5  1  0  0  0
  4 92  1  0  0  0
  4 93  1  0  0  0
  5  6  1  0  0  0
  5 26  1  0  0  0
  5 94  1  0  0  0
  6 25  1  0  0  0
  6 95  1  0  0  0
  6 96  1  0  0  0
  7  8  2  0  0  0
  7 26  1  0  0  0
  7 29  1  0  0  0
  8  9  1  0  0  0
  8 22  1  0  0  0
  9 10  1  0  0  0
  9 27  2  0  0  0
 10 11  2  0  0  0
 10 15  1  0  0  0
 11 12  1  0  0  0
 11 97  1  0  0  0
 12 13  2  0  0  0
 12 98  1  0  0  0
 13 14  1  0  0  0
 13 31  1  0  0  0
 14 15  2  0  0  0
 14 99  1  0  0  0
 15100  1  0  0  0
 16 17  2  0  0  0
 16 21  1  0  0  0
 16 31  1  0  0  0
 17 18  1  0  0  0
 17101  1  0  0  0
 18 19  2  0  0  0
 18102  1  0  0  0
 19 20  1  0  0  0
 19 24  1  0  0  0
 20 21  2  0  0  0
 20103  1  0  0  0
 21 23  1  0  0  0
 22 28  1  0  0  0
 22 32  2  0  0  0
 26 27  1  0  0  0
 28104  1  0  0  0
 28105  1  0  0  0
 29106  1  0  0  0
 29107  1  0  0  0
 33 34  1  0  0  0
 33 66  1  0  0  0
 33 70  2  0  0  0
 34 36  1  0  0  0
 34 59  1  0  0  0
 34108  1  0  0  0
 35 44  2  0  0  0
 35 45  1  0  0  0
 35 68  1  0  0  0
 36 56  1  0  0  0
 36109  1  0  0  0
 37 39  1  0  0  0
 37 47  1  0  0  0
 37 66  1  0  0  0
 37110  1  0  0  0
 38 43  2  0  0  0
 38 46  1  0  0  0
 38 47  1  0  0  0
 39 64  1  0  0  0
 39 67  2  0  0  0
 40 52  1  0  0  0
 40 53  2  0  0  0
 40 58  1  0  0  0
 41111  1  0  0  0
 41112  1  0  0  0
 41113  1  0  0  0
 41 48  1  0  0  0
 42 43  1  0  0  0
 42 66  1  0  0  0
 42114  1  0  0  0
 42115  1  0  0  0
 43 44  1  0  0  0
 44116  1  0  0  0
 45 46  2  0  0  0
 45117  1  0  0  0
 46118  1  0  0  0
 47119  1  0  0  0
 47120  1  0  0  0
 48 56  1  0  0  0
 48 65  1  0  0  0
 48121  1  0  0  0
 49 50  1  0  0  0
 49 53  1  0  0  0
 49 64  1  0  0  0
 49122  1  0  0  0
 50 51  1  0  0  0
 50123  1  0  0  0
 50124  1  0  0  0
 51 52  1  0  0  0
 51125  1  0  0  0
 51126  1  0  0  0
 52127  1  0  0  0
 52128  1  0  0  0
 53 54  1  0  0  0
 54 55  2  0  0  0
 54129  1  0  0  0
 55 57  1  0  0  0
 55130  1  0  0  0
 56 69  2  0  0  0
 57 58  2  0  0  0
 57131  1  0  0  0
 58132  1  0  0  0
 59 60  1  0  0  0
 59 61  1  0  0  0
 59 62  1  0  0  0
 60133  1  0  0  0
 60134  1  0  0  0
 60135  1  0  0  0
 61136  1  0  0  0
 61137  1  0  0  0
 61138  1  0  0  0
 62139  1  0  0  0
 62140  1  0  0  0
 62141  1  0  0  0
 63 65  1  0  0  0
 63142  1  0  0  0
 63143  1  0  0  0
 63144  1  0  0  0
 64145  1  0  0  0
 65146  1  0  0  0
 68 86  1  0  0  0
 71 72  2  0  0  0
 71 73  1  0  0  0
 71 80  1  0  0  0
 72 74  1  0  0  0
 72 81  1  0  0  0
 73 76  2  0  0  0
 73 82  1  0  0  0
 74 75  2  0  0  0
 74 83  1  0  0  0
 75 76  1  0  0  0
 75 84  1  0  0  0
 76 85  1  0  0  0
 77 78  1  0  0  0
 77 80  1  0  0  0
 77147  1  0  0  0
 77148  1  0  0  0
 78 87  1  0  0  0
 78149  1  0  0  0
 78150  1  0  0  0
 79 80  1  0  0  0
 79 87  1  0  0  0
 79151  1  0  0  0
 79152  1  0  0  0
 80153  1  0  0  0
 81154  1  0  0  0
 81155  1  0  0  0
 81156  1  0  0  0
 82157  1  0  0  0
 82158  1  0  0  0
 82159  1  0  0  0
 83160  1  0  0  0
 83161  1  0  0  0
 83162  1  0  0  0
 84163  1  0  0  0
 84164  1  0  0  0
 84165  1  0  0  0
 85 86  1  0  0  0
 85166  1  0  0  0
 85167  1  0  0  0
 86168  1  0  0  0
 86169  1  0  0  0
M  ISO  4   1 100  68 101  86 101  87 100
M  END
> <chiral flag>
0

> <version>
0

> <s_m_source_file>
/data/baiqing/PycharmProjects/Reinvent-master-3.2/result/LINK_invent/BTK/process_docking_weight1_custom_sum_contain_oxygen_bond_distance_aromatic_linkinvent_7_9_3/rearranged_h_0161.sdf

> <i_m_source_file_index>
64

> <r_mmod_Potential_Energy-OPLS-2005>
445.779479980469

> <r_mmod_Stretch_Energy-OPLS-2005>
150.917953491211

> <r_mmod_Bend_Energy-OPLS-2005>
256.235687255859

> <r_mmod_Torsional_Energy-OPLS-2005>
314.968719482422

> <r_mmod_Improper_Torsional_Energy-OPLS-2005>
7.41109895706177

> <r_mmod_Van_der_Waal_Energy-OPLS-2005>
181.907287597656

> <r_mmod_Electrostatic_Energy-OPLS-2005>
-343.021789550781

> <r_mmod_Solvation_Energy-OPLS-2005>
-202.767990112305

> <b_mmod_Minimization_Converged-OPLS-2005>
0

> <r_mmod_RMS_Derivative-OPLS-2005>
3.44055032730103

$$$$
64
                    3D
 Structure written by MMmdl.
168177  0  0  1  0            999 V2000
  -30.6842  -14.7809   20.4473 C   0  0  0  0  0  0
  -30.4101  -12.4876   19.4793 C   0  0  0  0  0  0
  -29.4985  -12.5013   18.2368 C   0  0  0  0  0  0
  -28.0304  -12.3111   18.6566 C   0  0  0  0  0  0
  -27.6282  -13.2324   19.8377 C   0  0  2  0  0  0
  -28.6791  -13.2414   20.9731 C   0  0  0  0  0  0
  -25.2451  -13.8181   20.5693 C   0  0  0  0  0  0
  -24.1764  -13.0425   20.9236 C   0  0  0  0  0  0
  -24.6369  -11.6908   20.8776 C   0  0  0  0  0  0
  -23.9053  -10.4285   21.0421 C   0  0  0  0  0  0
  -24.3610   -9.4203   21.9197 C   0  0  0  0  0  0
  -23.6292   -8.2232   22.0753 C   0  0  0  0  0  0
  -22.4278   -8.0267   21.3536 C   0  0  0  0  0  0
  -21.9911   -9.0243   20.4641 C   0  0  0  0  0  0
  -22.7230  -10.2127   20.3063 C   0  0  0  0  0  0
  -21.6847   -6.0728   22.5281 C   0  0  0  0  0  0
  -21.4005   -6.5634   23.8215 C   0  0  0  0  0  0
  -21.3661   -5.6787   24.9178 C   0  0  0  0  0  0
  -21.6051   -4.3051   24.7223 C   0  0  0  0  0  0
  -21.8819   -3.8140   23.4343 C   0  0  0  0  0  0
  -21.9188   -4.6956   22.3403 C   0  0  0  0  0  0
  -22.7791  -13.5219   21.1877 C   0  0  0  0  0  0
  -22.1662   -4.2143   21.0979 F   0  0  0  0  0  0
  -21.5632   -3.4536   25.7734 F   0  0  0  0  0  0
  -29.9667  -13.5970   20.3667 N   0  0  0  0  0  0
  -26.2872  -12.9390   20.3268 N   0  0  0  0  0  0
  -25.9301  -11.6536   20.5789 N   0  0  0  0  0  0
  -22.0418  -12.8228   22.0427 N   0  0  0  0  0  0
  -25.4086  -15.1898   20.4046 N   0  0  0  0  0  0
  -31.8889  -14.7184   20.1822 O   0  0  0  0  0  0
  -21.6636   -6.8870   21.4241 O   0  0  0  0  0  0
  -22.3494  -14.5528   20.6711 O   0  0  0  0  0  0
  -24.6328  -31.8542   23.1994 C   0  0  0  0  0  0
  -25.9155  -32.4741   23.8336 C   0  0  1  0  0  0
  -27.2067  -27.2496   20.1394 C   0  0  0  0  0  0
  -25.5941  -33.8548   24.2248 N   0  0  0  0  0  0
  -23.4305  -30.4786   21.5423 C   0  0  2  0  0  0
  -24.8794  -28.9308   20.1048 C   0  0  0  0  0  0
  -22.7516  -29.4601   22.4903 C   0  0  0  0  0  0
  -18.0292  -28.1388   22.8480 C   0  0  0  0  0  0
  -24.1492  -36.7283   23.2638 C   0  0  0  0  0  0
  -25.9788  -30.7633   21.3846 C   0  0  0  0  0  0
  -26.0520  -29.3872   20.7230 C   0  0  0  0  0  0
  -27.2237  -28.5590   20.7312 C   0  0  0  0  0  0
  -26.0241  -26.8780   19.4663 C   0  0  0  0  0  0
  -24.8720  -27.6846   19.4620 C   0  0  0  0  0  0
  -23.6498  -29.8169   20.1568 C   0  0  0  0  0  0
  -25.4119  -36.3058   24.0322 C   0  0  1  0  0  0
  -20.5899  -28.3703   23.1260 C   0  0  2  0  0  0
  -20.6784  -26.9418   22.5407 C   0  0  0  0  0  0
  -19.5758  -26.6383   21.5211 C   0  0  0  0  0  0
  -18.1938  -26.7934   22.1619 C   0  0  0  0  0  0
  -19.1548  -28.8866   23.2863 C   0  0  0  0  0  0
  -18.9465  -30.1465   23.8877 C   0  0  0  0  0  0
  -17.6465  -30.6589   24.0558 C   0  0  0  0  0  0
  -25.9062  -34.9430   23.5084 C   0  0  0  0  0  0
  -16.5354  -29.9079   23.6337 C   0  0  0  0  0  0
  -16.7280  -28.6500   23.0356 C   0  0  0  0  0  0
  -26.4518  -31.6575   25.0738 C   0  0  0  0  0  0
  -25.3735  -31.3729   26.1453 C   0  0  0  0  0  0
  -27.0381  -30.2982   24.6265 C   0  0  0  0  0  0
  -27.6051  -32.4340   25.7518 C   0  0  0  0  0  0
  -27.5582  -37.1794   24.8460 C   0  0  0  0  0  0
  -21.4220  -29.3044   22.3646 N   0  0  0  0  0  0
  -26.4286  -37.3766   23.9409 N   0  0  0  0  0  0
  -24.6993  -31.0501   22.0977 N   0  0  0  0  0  0
  -23.4211  -28.8142   23.3006 O   0  0  0  0  0  0
  -28.2321  -26.2760   20.2143 O   0  0  0  0  0  0
  -26.5639  -34.8903   22.4654 O   0  0  0  0  0  0
  -23.5476  -32.1371   23.7284 O   0  0  0  0  0  0
  -29.1524  -22.9425   19.7393 C   0  0  0  0  0  0
  -27.9663  -22.5309   21.7906 C   0  0  0  0  0  0
  -28.3714  -23.4977   20.8020 C   0  0  0  0  0  0
  -29.4632  -21.5213   19.6577 C   0  0  0  0  0  0
  -28.3326  -21.1299   21.7456 C   0  0  0  0  0  0
  -29.0681  -20.5581   20.6549 C   0  0  0  0  0  0
  -30.5409  -18.6024   21.3093 C   0  0  0  0  0  0
  -28.3517  -18.0913   20.4606 C   0  0  0  0  0  0
  -31.0754  -17.2153   20.7960 C   0  0  0  0  0  0
  -28.7820  -16.5570   20.2573 C   0  0  0  0  0  0
  -29.6459  -23.8942   18.6549 C   0  0  0  0  0  0
  -27.0943  -23.0099   22.9618 C   0  0  0  0  0  0
  -30.2471  -21.0173   18.4465 C   0  0  0  0  0  0
  -27.9101  -20.2421   22.9185 C   0  0  0  0  0  0
  -27.8270  -25.0205   20.9456 C   0  0  0  0  0  0
  -29.4057  -19.1311   20.5435 N   0  0  0  0  0  0
  -30.1273  -16.0589   20.6790 N   0  0  0  0  0  0
  -31.4524  -12.5747   19.1683 H   0  0  0  0  0  0
  -30.3417  -11.5295   19.9977 H   0  0  0  0  0  0
  -29.7944  -11.7172   17.5384 H   0  0  0  0  0  0
  -29.6127  -13.4467   17.7049 H   0  0  0  0  0  0
  -27.9026  -11.2665   18.9423 H   0  0  0  0  0  0
  -27.3681  -12.4765   17.8056 H   0  0  0  0  0  0
  -27.5925  -14.2293   19.4054 H   0  0  0  0  0  0
  -28.7385  -12.2658   21.4585 H   0  0  0  0  0  0
  -28.4118  -13.9526   21.7547 H   0  0  0  0  0  0
  -25.2740   -9.5690   22.4793 H   0  0  0  0  0  0
  -23.9991   -7.4626   22.7483 H   0  0  0  0  0  0
  -21.0835   -8.8772   19.8957 H   0  0  0  0  0  0
  -22.3681  -10.9678   19.6188 H   0  0  0  0  0  0
  -21.2000   -7.6141   23.9718 H   0  0  0  0  0  0
  -21.1486   -6.0514   25.9084 H   0  0  0  0  0  0
  -22.0598   -2.7600   23.2839 H   0  0  0  0  0  0
  -22.3998  -11.9885   22.4832 H   0  0  0  0  0  0
  -21.1039  -13.1283   22.2613 H   0  0  0  0  0  0
  -24.6362  -15.8378   20.5138 H   0  0  0  0  0  0
  -26.2446  -15.6265   20.0419 H   0  0  0  0  0  0
  -26.7225  -32.5386   23.1076 H   0  0  0  0  0  0
  -25.0070  -33.9681   25.0383 H   0  0  0  0  0  0
  -22.7266  -31.3010   21.3978 H   0  0  0  0  0  0
  -23.3753  -35.9616   23.3283 H   0  0  0  0  0  0
  -24.3580  -36.8932   22.2056 H   0  0  0  0  0  0
  -23.7248  -37.6477   23.6682 H   0  0  0  0  0  0
  -26.1256  -31.5261   20.6187 H   0  0  0  0  0  0
  -26.8530  -30.8058   22.0228 H   0  0  0  0  0  0
  -28.1151  -28.8950   21.2426 H   0  0  0  0  0  0
  -25.9726  -25.9176   18.9718 H   0  0  0  0  0  0
  -23.9779  -27.3331   18.9649 H   0  0  0  0  0  0
  -23.7716  -30.5949   19.4025 H   0  0  0  0  0  0
  -22.7680  -29.2505   19.8517 H   0  0  0  0  0  0
  -25.1301  -36.1896   25.0816 H   0  0  0  0  0  0
  -20.9989  -28.3284   24.1382 H   0  0  0  0  0  0
  -20.5688  -26.2311   23.3615 H   0  0  0  0  0  0
  -21.6649  -26.7447   22.1192 H   0  0  0  0  0  0
  -19.6917  -25.6292   21.1249 H   0  0  0  0  0  0
  -19.6695  -27.3185   20.6734 H   0  0  0  0  0  0
  -17.4213  -26.6687   21.4016 H   0  0  0  0  0  0
  -18.0326  -26.0073   22.9008 H   0  0  0  0  0  0
  -19.7942  -30.7291   24.2232 H   0  0  0  0  0  0
  -17.5017  -31.6267   24.5158 H   0  0  0  0  0  0
  -15.5355  -30.2971   23.7676 H   0  0  0  0  0  0
  -15.8679  -28.0813   22.7079 H   0  0  0  0  0  0
  -24.5898  -30.7095   25.7777 H   0  0  0  0  0  0
  -24.8945  -32.2901   26.4890 H   0  0  0  0  0  0
  -25.8048  -30.8889   27.0227 H   0  0  0  0  0  0
  -26.2983  -29.6710   24.1273 H   0  0  0  0  0  0
  -27.4019  -29.7269   25.4819 H   0  0  0  0  0  0
  -27.8883  -30.4237   23.9552 H   0  0  0  0  0  0
  -27.2628  -33.3635   26.2083 H   0  0  0  0  0  0
  -28.3866  -32.6921   25.0357 H   0  0  0  0  0  0
  -28.0718  -31.8485   26.5450 H   0  0  0  0  0  0
  -28.2580  -38.0109   24.7519 H   0  0  0  0  0  0
  -28.1092  -36.2637   24.6261 H   0  0  0  0  0  0
  -27.2298  -37.1413   25.8861 H   0  0  0  0  0  0
  -20.9412  -29.8753   21.6834 H   0  0  0  0  0  0
  -26.0157  -38.2836   24.1415 H   0  0  0  0  0  0
  -31.3518  -19.3320   21.2764 H   0  0  0  0  0  0
  -30.2776  -18.5018   22.3610 H   0  0  0  0  0  0
  -27.7446  -18.1359   21.3623 H   0  0  0  0  0  0
  -27.6655  -18.3693   19.6589 H   0  0  0  0  0  0
  -31.8930  -16.9276   21.4600 H   0  0  0  0  0  0
  -31.5314  -17.3687   19.8161 H   0  0  0  0  0  0
  -28.6942  -16.3290   19.1935 H   0  0  0  0  0  0
  -28.0302  -15.9552   20.7605 H   0  0  0  0  0  0
  -29.8494  -24.8839   19.0573 H   0  0  0  0  0  0
  -28.8999  -23.9929   17.8665 H   0  0  0  0  0  0
  -30.5842  -23.5717   18.2064 H   0  0  0  0  0  0
  -26.4023  -23.8049   22.6940 H   0  0  0  0  0  0
  -27.7224  -23.3707   23.7768 H   0  0  0  0  0  0
  -26.4418  -22.2340   23.3568 H   0  0  0  0  0  0
  -29.8871  -21.4773   17.5265 H   0  0  0  0  0  0
  -30.1604  -19.9426   18.2945 H   0  0  0  0  0  0
  -31.3053  -21.2510   18.5615 H   0  0  0  0  0  0
  -28.0617  -20.7478   23.8718 H   0  0  0  0  0  0
  -28.4760  -19.3222   23.0051 H   0  0  0  0  0  0
  -26.8573  -19.9724   22.8275 H   0  0  0  0  0  0
  -27.9960  -25.2944   21.9877 H   0  0  0  0  0  0
  -26.7481  -24.9043   20.8562 H   0  0  0  0  0  0
  1 25  1  0  0  0
  1 30  2  0  0  0
  1 87  1  0  0  0
  2  3  1  0  0  0
  2 25  1  0  0  0
  2 88  1  0  0  0
  2 89  1  0  0  0
  3  4  1  0  0  0
  3 90  1  0  0  0
  3 91  1  0  0  0
  4  5  1  0  0  0
  4 92  1  0  0  0
  4 93  1  0  0  0
  5  6  1  0  0  0
  5 26  1  0  0  0
  5 94  1  0  0  0
  6 25  1  0  0  0
  6 95  1  0  0  0
  6 96  1  0  0  0
  7  8  2  0  0  0
  7 26  1  0  0  0
  7 29  1  0  0  0
  8  9  1  0  0  0
  8 22  1  0  0  0
  9 10  1  0  0  0
  9 27  2  0  0  0
 10 11  2  0  0  0
 10 15  1  0  0  0
 11 12  1  0  0  0
 11 97  1  0  0  0
 12 13  2  0  0  0
 12 98  1  0  0  0
 13 14  1  0  0  0
 13 31  1  0  0  0
 14 15  2  0  0  0
 14 99  1  0  0  0
 15100  1  0  0  0
 16 17  2  0  0  0
 16 21  1  0  0  0
 16 31  1  0  0  0
 17 18  1  0  0  0
 17101  1  0  0  0
 18 19  2  0  0  0
 18102  1  0  0  0
 19 20  1  0  0  0
 19 24  1  0  0  0
 20 21  2  0  0  0
 20103  1  0  0  0
 21 23  1  0  0  0
 22 28  1  0  0  0
 22 32  2  0  0  0
 26 27  1  0  0  0
 28104  1  0  0  0
 28105  1  0  0  0
 29106  1  0  0  0
 29107  1  0  0  0
 33 34  1  0  0  0
 33 66  1  0  0  0
 33 70  2  0  0  0
 34 36  1  0  0  0
 34 59  1  0  0  0
 34108  1  0  0  0
 35 44  2  0  0  0
 35 45  1  0  0  0
 35 68  1  0  0  0
 36 56  1  0  0  0
 36109  1  0  0  0
 37 39  1  0  0  0
 37 47  1  0  0  0
 37 66  1  0  0  0
 37110  1  0  0  0
 38 43  2  0  0  0
 38 46  1  0  0  0
 38 47  1  0  0  0
 39 64  1  0  0  0
 39 67  2  0  0  0
 40 52  1  0  0  0
 40 53  2  0  0  0
 40 58  1  0  0  0
 41111  1  0  0  0
 41112  1  0  0  0
 41113  1  0  0  0
 41 48  1  0  0  0
 42 43  1  0  0  0
 42 66  1  0  0  0
 42114  1  0  0  0
 42115  1  0  0  0
 43 44  1  0  0  0
 44116  1  0  0  0
 45 46  2  0  0  0
 45117  1  0  0  0
 46118  1  0  0  0
 47119  1  0  0  0
 47120  1  0  0  0
 48 56  1  0  0  0
 48 65  1  0  0  0
 48121  1  0  0  0
 49 50  1  0  0  0
 49 53  1  0  0  0
 49 64  1  0  0  0
 49122  1  0  0  0
 50 51  1  0  0  0
 50123  1  0  0  0
 50124  1  0  0  0
 51 52  1  0  0  0
 51125  1  0  0  0
 51126  1  0  0  0
 52127  1  0  0  0
 52128  1  0  0  0
 53 54  1  0  0  0
 54 55  2  0  0  0
 54129  1  0  0  0
 55 57  1  0  0  0
 55130  1  0  0  0
 56 69  2  0  0  0
 57 58  2  0  0  0
 57131  1  0  0  0
 58132  1  0  0  0
 59 60  1  0  0  0
 59 61  1  0  0  0
 59 62  1  0  0  0
 60133  1  0  0  0
 60134  1  0  0  0
 60135  1  0  0  0
 61136  1  0  0  0
 61137  1  0  0  0
 61138  1  0  0  0
 62139  1  0  0  0
 62140  1  0  0  0
 62141  1  0  0  0
 63 65  1  0  0  0
 63142  1  0  0  0
 63143  1  0  0  0
 63144  1  0  0  0
 64145  1  0  0  0
 65146  1  0  0  0
 68 85  1  0  0  0
 71 73  2  0  0  0
 71 74  1  0  0  0
 71 81  1  0  0  0
 72 73  1  0  0  0
 72 75  2  0  0  0
 72 82  1  0  0  0
 73 85  1  0  0  0
 74 76  2  0  0  0
 74 83  1  0  0  0
 75 76  1  0  0  0
 75 84  1  0  0  0
 76 86  1  0  0  0
 77 79  1  0  0  0
 77 86  1  0  0  0
 77147  1  0  0  0
 77148  1  0  0  0
 78 80  1  0  0  0
 78 86  1  0  0  0
 78149  1  0  0  0
 78150  1  0  0  0
 79 87  1  0  0  0
 79151  1  0  0  0
 79152  1  0  0  0
 80 87  1  0  0  0
 80153  1  0  0  0
 80154  1  0  0  0
 81155  1  0  0  0
 81156  1  0  0  0
 81157  1  0  0  0
 82158  1  0  0  0
 82159  1  0  0  0
 82160  1  0  0  0
 83161  1  0  0  0
 83162  1  0  0  0
 83163  1  0  0  0
 84164  1  0  0  0
 84165  1  0  0  0
 84166  1  0  0  0
 85167  1  0  0  0
 85168  1  0  0  0
M  ISO  4   1 100  68 101  85 101  87 100
M  END
> <chiral flag>
0

> <version>
0

> <s_m_source_file>
/data/baiqing/PycharmProjects/Reinvent-master-3.2/result/LINK_invent/BTK/process_docking_weight1_custom_sum_contain_oxygen_bond_distance_aromatic_linkinvent_7_9_3/rearranged_h_0161.sdf

> <i_m_source_file_index>
65

> <r_mmod_Potential_Energy-OPLS-2005>
484.810302734375

> <r_mmod_Stretch_Energy-OPLS-2005>
142.623458862305

> <r_mmod_Bend_Energy-OPLS-2005>
236.468170166016

> <r_mmod_Torsional_Energy-OPLS-2005>
382.280303955078

> <r_mmod_Improper_Torsional_Energy-OPLS-2005>
8.2242956161499

> <r_mmod_Van_der_Waal_Energy-OPLS-2005>
176.872909545898

> <r_mmod_Electrostatic_Energy-OPLS-2005>
-368.127777099609

> <r_mmod_Solvation_Energy-OPLS-2005>
-204.880096435547

> <b_mmod_Minimization_Converged-OPLS-2005>
0

> <r_mmod_RMS_Derivative-OPLS-2005>
1.11748886108398

$$$$
65
                    3D
 Structure written by MMmdl.
166175  0  0  1  0            999 V2000
  -30.6326  -14.6922   20.4874 C   0  0  0  0  0  0
  -30.4310  -12.4253   19.4671 C   0  0  0  0  0  0
  -29.5094  -12.5089   18.2318 C   0  0  0  0  0  0
  -28.0305  -12.3567   18.6382 C   0  0  0  0  0  0
  -27.6485  -13.2310   19.8631 C   0  0  2  0  0  0
  -28.6934  -13.1265   20.9950 C   0  0  0  0  0  0
  -25.2539  -13.8209   20.5710 C   0  0  0  0  0  0
  -24.1821  -13.0454   20.9175 C   0  0  0  0  0  0
  -24.6404  -11.6931   20.8733 C   0  0  0  0  0  0
  -23.9085  -10.4300   21.0389 C   0  0  0  0  0  0
  -24.3624   -9.4218   21.9180 C   0  0  0  0  0  0
  -23.6295   -8.2262   22.0763 C   0  0  0  0  0  0
  -22.4280   -8.0295   21.3550 C   0  0  0  0  0  0
  -21.9919   -9.0267   20.4639 C   0  0  0  0  0  0
  -22.7254  -10.2141   20.3038 C   0  0  0  0  0  0
  -21.6853   -6.0745   22.5271 C   0  0  0  0  0  0
  -21.4020   -6.5641   23.8209 C   0  0  0  0  0  0
  -21.3667   -5.6794   24.9172 C   0  0  0  0  0  0
  -21.6045   -4.3058   24.7219 C   0  0  0  0  0  0
  -21.8817   -3.8148   23.4336 C   0  0  0  0  0  0
  -21.9187   -4.6972   22.3392 C   0  0  0  0  0  0
  -22.7844  -13.5229   21.1834 C   0  0  0  0  0  0
  -22.1655   -4.2157   21.0975 F   0  0  0  0  0  0
  -21.5626   -3.4541   25.7729 F   0  0  0  0  0  0
  -29.9958  -13.4749   20.4154 N   0  0  0  0  0  0
  -26.2978  -12.9413   20.3340 N   0  0  0  0  0  0
  -25.9343  -11.6554   20.5769 N   0  0  0  0  0  0
  -22.0491  -12.8216   22.0380 N   0  0  0  0  0  0
  -25.4276  -15.1942   20.4176 N   0  0  0  0  0  0
  -31.8017  -14.7936   20.0999 O   0  0  0  0  0  0
  -21.6643   -6.8893   21.4238 O   0  0  0  0  0  0
  -22.3521  -14.5547   20.6693 O   0  0  0  0  0  0
  -24.6322  -31.8571   23.1989 C   0  0  0  0  0  0
  -25.9153  -32.4774   23.8330 C   0  0  1  0  0  0
  -27.2070  -27.2805   20.1306 C   0  0  0  0  0  0
  -25.5958  -33.8569   24.2263 N   0  0  0  0  0  0
  -23.4265  -30.4800   21.5438 C   0  0  2  0  0  0
  -24.8723  -28.9311   20.1087 C   0  0  0  0  0  0
  -22.7506  -29.4610   22.4935 C   0  0  0  0  0  0
  -18.0273  -28.1387   22.8486 C   0  0  0  0  0  0
  -24.1495  -36.7292   23.2637 C   0  0  0  0  0  0
  -25.9695  -30.7798   21.3703 C   0  0  0  0  0  0
  -26.0441  -29.4012   20.7180 C   0  0  0  0  0  0
  -27.2204  -28.5867   20.7192 C   0  0  0  0  0  0
  -26.0218  -26.8774   19.4830 C   0  0  0  0  0  0
  -24.8646  -27.6780   19.4784 C   0  0  0  0  0  0
  -23.6413  -29.8137   20.1601 C   0  0  0  0  0  0
  -25.4125  -36.3080   24.0314 C   0  0  1  0  0  0
  -20.5880  -28.3709   23.1275 C   0  0  2  0  0  0
  -20.6779  -26.9436   22.5400 C   0  0  0  0  0  0
  -19.5741  -26.6379   21.5219 C   0  0  0  0  0  0
  -18.1906  -26.7934   22.1605 C   0  0  0  0  0  0
  -19.1527  -28.8865   23.2861 C   0  0  0  0  0  0
  -18.9456  -30.1462   23.8882 C   0  0  0  0  0  0
  -17.6463  -30.6610   24.0545 C   0  0  0  0  0  0
  -25.9050  -34.9445   23.5077 C   0  0  0  0  0  0
  -16.5348  -29.9107   23.6331 C   0  0  0  0  0  0
  -16.7259  -28.6508   23.0378 C   0  0  0  0  0  0
  -26.4518  -31.6607   25.0722 C   0  0  0  0  0  0
  -25.3733  -31.3707   26.1425 C   0  0  0  0  0  0
  -27.0415  -30.3067   24.6161 C   0  0  0  0  0  0
  -27.6041  -32.4380   25.7530 C   0  0  0  0  0  0
  -27.5576  -37.1817   24.8462 C   0  0  0  0  0  0
  -21.4210  -29.3073   22.3708 N   0  0  0  0  0  0
  -26.4295  -37.3782   23.9393 N   0  0  0  0  0  0
  -24.6960  -31.0554   22.0957 N   0  0  0  0  0  0
  -23.4210  -28.8109   23.2997 O   0  0  0  0  0  0
  -28.2579  -26.3469   20.1778 O   0  0  0  0  0  0
  -26.5596  -34.8913   22.4627 O   0  0  0  0  0  0
  -23.5477  -32.1383   23.7291 O   0  0  0  0  0  0
  -29.0033  -23.2611   19.3381 C   0  0  0  0  0  0
  -28.4538  -23.6409   20.5849 C   0  0  0  0  0  0
  -29.4052  -21.9049   19.0878 C   0  0  0  0  0  0
  -28.3002  -22.5471   21.5010 C   0  0  0  0  0  0
  -29.2596  -20.9054   20.0954 C   0  0  0  0  0  0
  -29.7445  -17.9695   21.9061 C   0  0  0  0  0  0
  -29.6276  -16.4172   22.0032 C   0  0  0  0  0  0
  -29.8877  -17.0340   19.7626 C   0  0  0  0  0  0
  -29.3150  -18.3218   20.4824 C   0  0  2  0  0  0
  -27.6468  -22.7553   22.8554 C   0  0  0  0  0  0
  -30.9225  -22.5454   17.1260 C   0  0  0  0  0  0
  -28.8140  -21.1809   16.7441 C   0  0  0  0  0  0
  -27.9467  -25.1093   20.9532 C   0  0  0  0  0  0
  -29.9583  -21.5061   17.7170 C   0  0  0  0  0  0
  -28.6910  -21.2479   21.2752 N   0  0  0  0  0  0
  -29.8632  -15.8350   20.6704 N   0  0  0  0  0  0
  -29.7783  -19.5964   19.8921 O   0  0  0  0  0  0
  -31.4726  -12.5423   19.1634 H   0  0  0  0  0  0
  -30.3688  -11.4416   19.9349 H   0  0  0  0  0  0
  -29.7793  -11.7405   17.5062 H   0  0  0  0  0  0
  -29.6532  -13.4678   17.7306 H   0  0  0  0  0  0
  -27.8544  -11.3050   18.8639 H   0  0  0  0  0  0
  -27.3840  -12.5965   17.7938 H   0  0  0  0  0  0
  -27.6559  -14.2634   19.5129 H   0  0  0  0  0  0
  -28.7196  -12.1171   21.4089 H   0  0  0  0  0  0
  -28.4391  -13.7891   21.8229 H   0  0  0  0  0  0
  -25.2772   -9.5700   22.4753 H   0  0  0  0  0  0
  -24.0008   -7.4659   22.7493 H   0  0  0  0  0  0
  -21.0857   -8.8782   19.8939 H   0  0  0  0  0  0
  -22.3725  -10.9672   19.6137 H   0  0  0  0  0  0
  -21.2030   -7.6154   23.9714 H   0  0  0  0  0  0
  -21.1488   -6.0523   25.9071 H   0  0  0  0  0  0
  -22.0588   -2.7609   23.2831 H   0  0  0  0  0  0
  -22.4109  -11.9848   22.4712 H   0  0  0  0  0  0
  -21.1118  -13.1241   22.2610 H   0  0  0  0  0  0
  -24.6712  -15.8576   20.5478 H   0  0  0  0  0  0
  -26.2947  -15.6324   20.1325 H   0  0  0  0  0  0
  -26.7214  -32.5453   23.1077 H   0  0  0  0  0  0
  -25.0240  -33.9702   25.0501 H   0  0  0  0  0  0
  -22.7202  -31.2998   21.3970 H   0  0  0  0  0  0
  -23.3768  -35.9617   23.3295 H   0  0  0  0  0  0
  -24.3573  -36.8945   22.2053 H   0  0  0  0  0  0
  -23.7253  -37.6483   23.6683 H   0  0  0  0  0  0
  -26.0866  -31.5342   20.5913 H   0  0  0  0  0  0
  -26.8558  -30.8447   21.9902 H   0  0  0  0  0  0
  -28.1168  -28.9324   21.2139 H   0  0  0  0  0  0
  -25.9768  -25.9081   19.0044 H   0  0  0  0  0  0
  -23.9674  -27.3153   18.9962 H   0  0  0  0  0  0
  -23.7575  -30.5861   19.3995 H   0  0  0  0  0  0
  -22.7604  -29.2416   19.8626 H   0  0  0  0  0  0
  -25.1319  -36.1923   25.0814 H   0  0  0  0  0  0
  -20.9922  -28.3287   24.1413 H   0  0  0  0  0  0
  -20.5732  -26.2316   23.3596 H   0  0  0  0  0  0
  -21.6641  -26.7493   22.1167 H   0  0  0  0  0  0
  -19.6903  -25.6275   21.1294 H   0  0  0  0  0  0
  -19.6679  -27.3152   20.6718 H   0  0  0  0  0  0
  -17.4192  -26.6706   21.3988 H   0  0  0  0  0  0
  -18.0254  -26.0067   22.8981 H   0  0  0  0  0  0
  -19.7930  -30.7273   24.2264 H   0  0  0  0  0  0
  -17.5024  -31.6301   24.5126 H   0  0  0  0  0  0
  -15.5353  -30.3017   23.7666 H   0  0  0  0  0  0
  -15.8644  -28.0836   22.7129 H   0  0  0  0  0  0
  -24.5918  -30.7052   25.7739 H   0  0  0  0  0  0
  -24.8889  -32.2842   26.4870 H   0  0  0  0  0  0
  -25.8044  -30.8870   27.0196 H   0  0  0  0  0  0
  -26.3007  -29.6788   24.1193 H   0  0  0  0  0  0
  -27.4183  -29.7351   25.4653 H   0  0  0  0  0  0
  -27.8823  -30.4435   23.9358 H   0  0  0  0  0  0
  -27.2652  -33.3744   26.1979 H   0  0  0  0  0  0
  -28.3927  -32.6849   25.0412 H   0  0  0  0  0  0
  -28.0607  -31.8584   26.5565 H   0  0  0  0  0  0
  -28.2573  -38.0135   24.7550 H   0  0  0  0  0  0
  -28.1101  -36.2660   24.6281 H   0  0  0  0  0  0
  -27.2257  -37.1458   25.8853 H   0  0  0  0  0  0
  -20.9391  -29.8918   21.7021 H   0  0  0  0  0  0
  -26.0174  -38.2859   24.1400 H   0  0  0  0  0  0
  -29.1026  -24.0152   18.5721 H   0  0  0  0  0  0
  -30.7840  -18.2650   22.0575 H   0  0  0  0  0  0
  -29.1452  -18.4785   22.6616 H   0  0  0  0  0  0
  -28.6172  -16.1467   22.3103 H   0  0  0  0  0  0
  -30.3128  -16.0145   22.7525 H   0  0  0  0  0  0
  -30.9235  -17.2207   19.4728 H   0  0  0  0  0  0
  -29.3384  -16.8237   18.8439 H   0  0  0  0  0  0
  -28.2253  -18.2951   20.4275 H   0  0  0  0  0  0
  -28.3518  -23.2065   23.5533 H   0  0  0  0  0  0
  -27.3076  -21.8087   23.2769 H   0  0  0  0  0  0
  -26.7716  -23.4005   22.7865 H   0  0  0  0  0  0
  -31.6979  -22.8112   17.8444 H   0  0  0  0  0  0
  -30.4146  -23.4614   16.8225 H   0  0  0  0  0  0
  -31.4225  -22.1489   16.2414 H   0  0  0  0  0  0
  -28.1883  -20.3759   17.1294 H   0  0  0  0  0  0
  -29.1953  -20.8555   15.7754 H   0  0  0  0  0  0
  -28.1721  -22.0455   16.5708 H   0  0  0  0  0  0
  -28.3269  -25.3164   21.9542 H   0  0  0  0  0  0
  -26.8683  -25.0208   21.0927 H   0  0  0  0  0  0
  -30.5440  -20.5933   17.8382 H   0  0  0  0  0  0
  1 25  1  0  0  0
  1 30  2  0  0  0
  1 86  1  0  0  0
  2  3  1  0  0  0
  2 25  1  0  0  0
  2 88  1  0  0  0
  2 89  1  0  0  0
  3  4  1  0  0  0
  3 90  1  0  0  0
  3 91  1  0  0  0
  4  5  1  0  0  0
  4 92  1  0  0  0
  4 93  1  0  0  0
  5  6  1  0  0  0
  5 26  1  0  0  0
  5 94  1  0  0  0
  6 25  1  0  0  0
  6 95  1  0  0  0
  6 96  1  0  0  0
  7  8  2  0  0  0
  7 26  1  0  0  0
  7 29  1  0  0  0
  8  9  1  0  0  0
  8 22  1  0  0  0
  9 10  1  0  0  0
  9 27  2  0  0  0
 10 11  2  0  0  0
 10 15  1  0  0  0
 11 12  1  0  0  0
 11 97  1  0  0  0
 12 13  2  0  0  0
 12 98  1  0  0  0
 13 14  1  0  0  0
 13 31  1  0  0  0
 14 15  2  0  0  0
 14 99  1  0  0  0
 15100  1  0  0  0
 16 17  2  0  0  0
 16 21  1  0  0  0
 16 31  1  0  0  0
 17 18  1  0  0  0
 17101  1  0  0  0
 18 19  2  0  0  0
 18102  1  0  0  0
 19 20  1  0  0  0
 19 24  1  0  0  0
 20 21  2  0  0  0
 20103  1  0  0  0
 21 23  1  0  0  0
 22 28  1  0  0  0
 22 32  2  0  0  0
 26 27  1  0  0  0
 28104  1  0  0  0
 28105  1  0  0  0
 29106  1  0  0  0
 29107  1  0  0  0
 33 34  1  0  0  0
 33 66  1  0  0  0
 33 70  2  0  0  0
 34 36  1  0  0  0
 34 59  1  0  0  0
 34108  1  0  0  0
 35 44  2  0  0  0
 35 45  1  0  0  0
 35 68  1  0  0  0
 36 56  1  0  0  0
 36109  1  0  0  0
 37 39  1  0  0  0
 37 47  1  0  0  0
 37 66  1  0  0  0
 37110  1  0  0  0
 38 43  2  0  0  0
 38 46  1  0  0  0
 38 47  1  0  0  0
 39 64  1  0  0  0
 39 67  2  0  0  0
 40 52  1  0  0  0
 40 53  2  0  0  0
 40 58  1  0  0  0
 41111  1  0  0  0
 41112  1  0  0  0
 41113  1  0  0  0
 41 48  1  0  0  0
 42 43  1  0  0  0
 42 66  1  0  0  0
 42114  1  0  0  0
 42115  1  0  0  0
 43 44  1  0  0  0
 44116  1  0  0  0
 45 46  2  0  0  0
 45117  1  0  0  0
 46118  1  0  0  0
 47119  1  0  0  0
 47120  1  0  0  0
 48 56  1  0  0  0
 48 65  1  0  0  0
 48121  1  0  0  0
 49 50  1  0  0  0
 49 53  1  0  0  0
 49 64  1  0  0  0
 49122  1  0  0  0
 50 51  1  0  0  0
 50123  1  0  0  0
 50124  1  0  0  0
 51 52  1  0  0  0
 51125  1  0  0  0
 51126  1  0  0  0
 52127  1  0  0  0
 52128  1  0  0  0
 53 54  1  0  0  0
 54 55  2  0  0  0
 54129  1  0  0  0
 55 57  1  0  0  0
 55130  1  0  0  0
 56 69  2  0  0  0
 57 58  2  0  0  0
 57131  1  0  0  0
 58132  1  0  0  0
 59 60  1  0  0  0
 59 61  1  0  0  0
 59 62  1  0  0  0
 60133  1  0  0  0
 60134  1  0  0  0
 60135  1  0  0  0
 61136  1  0  0  0
 61137  1  0  0  0
 61138  1  0  0  0
 62139  1  0  0  0
 62140  1  0  0  0
 62141  1  0  0  0
 63 65  1  0  0  0
 63142  1  0  0  0
 63143  1  0  0  0
 63144  1  0  0  0
 64145  1  0  0  0
 65146  1  0  0  0
 68 83  1  0  0  0
 71 72  2  0  0  0
 71 73  1  0  0  0
 71147  1  0  0  0
 72 74  1  0  0  0
 72 83  1  0  0  0
 73 75  2  0  0  0
 73 84  1  0  0  0
 74 80  1  0  0  0
 74 85  2  0  0  0
 75 85  1  0  0  0
 75 87  1  0  0  0
 76 77  1  0  0  0
 76 79  1  0  0  0
 76148  1  0  0  0
 76149  1  0  0  0
 77 86  1  0  0  0
 77150  1  0  0  0
 77151  1  0  0  0
 78 79  1  0  0  0
 78 86  1  0  0  0
 78152  1  0  0  0
 78153  1  0  0  0
 79 87  1  0  0  0
 79154  1  0  0  0
 80155  1  0  0  0
 80156  1  0  0  0
 80157  1  0  0  0
 81158  1  0  0  0
 81159  1  0  0  0
 81160  1  0  0  0
 81 84  1  0  0  0
 82 84  1  0  0  0
 82161  1  0  0  0
 82162  1  0  0  0
 82163  1  0  0  0
 83164  1  0  0  0
 83165  1  0  0  0
 84166  1  0  0  0
M  ISO  4   1 100  68 101  83 101  86 100
M  END
> <chiral flag>
0

> <version>
0

> <s_m_source_file>
/data/baiqing/PycharmProjects/Reinvent-master-3.2/result/LINK_invent/BTK/process_docking_weight1_custom_sum_contain_oxygen_bond_distance_aromatic_linkinvent_7_9_3/rearranged_h_0161.sdf

> <i_m_source_file_index>
66

> <r_mmod_Potential_Energy-OPLS-2005>
212.438003540039

> <r_mmod_Stretch_Energy-OPLS-2005>
98.1783294677734

> <r_mmod_Bend_Energy-OPLS-2005>
201.518249511719

> <r_mmod_Torsional_Energy-OPLS-2005>
350.084777832031

> <r_mmod_Improper_Torsional_Energy-OPLS-2005>
12.161003112793

> <r_mmod_Van_der_Waal_Energy-OPLS-2005>
133.350769042969

> <r_mmod_Electrostatic_Energy-OPLS-2005>
-455.357879638672

> <r_mmod_Solvation_Energy-OPLS-2005>
-199.495986938477

> <b_mmod_Minimization_Converged-OPLS-2005>
0

> <r_mmod_RMS_Derivative-OPLS-2005>
2.12965655326843

$$$$
66
                    3D
 Structure written by MMmdl.
167176  0  0  1  0            999 V2000
  -30.5484  -14.8598   20.5283 C   0  0  0  0  0  0
  -30.4664  -12.5649   19.4970 C   0  0  0  0  0  0
  -29.5056  -12.4682   18.2884 C   0  0  0  0  0  0
  -28.0572  -12.2215   18.7476 C   0  0  0  0  0  0
  -27.6453  -13.1624   19.8995 C   0  0  2  0  0  0
  -28.7008  -13.1561   21.0312 C   0  0  0  0  0  0
  -25.2476  -13.7944   20.5569 C   0  0  0  0  0  0
  -24.1743  -13.0289   20.9282 C   0  0  0  0  0  0
  -24.6345  -11.6814   20.9008 C   0  0  0  0  0  0
  -23.9010  -10.4214   21.0548 C   0  0  0  0  0  0
  -24.3595   -9.4103   21.9255 C   0  0  0  0  0  0
  -23.6259   -8.2139   22.0765 C   0  0  0  0  0  0
  -22.4228   -8.0251   21.3533 C   0  0  0  0  0  0
  -21.9909   -9.0233   20.4625 C   0  0  0  0  0  0
  -22.7250  -10.2106   20.3109 C   0  0  0  0  0  0
  -21.6824   -6.0730   22.5262 C   0  0  0  0  0  0
  -21.3991   -6.5640   23.8201 C   0  0  0  0  0  0
  -21.3639   -5.6783   24.9151 C   0  0  0  0  0  0
  -21.6060   -4.3051   24.7199 C   0  0  0  0  0  0
  -21.8834   -3.8160   23.4312 C   0  0  0  0  0  0
  -21.9185   -4.6969   22.3376 C   0  0  0  0  0  0
  -22.7809  -13.5199   21.1808 C   0  0  0  0  0  0
  -22.1664   -4.2188   21.0940 F   0  0  0  0  0  0
  -21.5637   -3.4527   25.7693 F   0  0  0  0  0  0
  -29.9521  -13.6140   20.4204 N   0  0  0  0  0  0
  -26.2934  -12.9034   20.3660 N   0  0  0  0  0  0
  -25.9282  -11.6276   20.6248 N   0  0  0  0  0  0
  -22.0486  -12.8194   22.0425 N   0  0  0  0  0  0
  -25.3991  -15.1523   20.3292 N   0  0  0  0  0  0
  -31.7566  -14.9280   20.2710 O   0  0  0  0  0  0
  -21.6587   -6.8853   21.4207 O   0  0  0  0  0  0
  -22.3517  -14.5479   20.6630 O   0  0  0  0  0  0
  -24.6237  -31.8605   23.2073 C   0  0  0  0  0  0
  -25.9088  -32.4779   23.8386 C   0  0  1  0  0  0
  -27.1908  -27.2925   20.1033 C   0  0  0  0  0  0
  -25.5906  -33.8576   24.2305 N   0  0  0  0  0  0
  -23.4159  -30.4873   21.5570 C   0  0  2  0  0  0
  -24.8502  -28.9440   20.1237 C   0  0  0  0  0  0
  -22.7438  -29.4586   22.4984 C   0  0  0  0  0  0
  -18.0234  -28.1232   22.8400 C   0  0  0  0  0  0
  -24.1517  -36.7305   23.2629 C   0  0  0  0  0  0
  -25.9617  -30.7766   21.3872 C   0  0  0  0  0  0
  -26.0307  -29.4103   20.7173 C   0  0  0  0  0  0
  -27.2088  -28.5977   20.6915 C   0  0  0  0  0  0
  -25.9743  -26.8891   19.5016 C   0  0  0  0  0  0
  -24.8221  -27.6865   19.5171 C   0  0  0  0  0  0
  -23.6277  -29.8333   20.1743 C   0  0  0  0  0  0
  -25.4142  -36.3077   24.0323 C   0  0  1  0  0  0
  -20.5833  -28.3552   23.1202 C   0  0  2  0  0  0
  -20.6742  -26.9280   22.5331 C   0  0  0  0  0  0
  -19.5779  -26.6259   21.5046 C   0  0  0  0  0  0
  -18.1935  -26.7786   22.1469 C   0  0  0  0  0  0
  -19.1491  -28.8710   23.2785 C   0  0  0  0  0  0
  -18.9477  -30.1315   23.8819 C   0  0  0  0  0  0
  -17.6507  -30.6507   24.0450 C   0  0  0  0  0  0
  -25.9075  -34.9440   23.5130 C   0  0  0  0  0  0
  -16.5373  -29.9002   23.6261 C   0  0  0  0  0  0
  -16.7228  -28.6359   23.0347 C   0  0  0  0  0  0
  -26.4465  -31.6618   25.0785 C   0  0  0  0  0  0
  -25.3677  -31.3840   26.1536 C   0  0  0  0  0  0
  -27.0348  -30.3049   24.6268 C   0  0  0  0  0  0
  -27.6018  -32.4390   25.7552 C   0  0  0  0  0  0
  -27.5627  -37.1801   24.8456 C   0  0  0  0  0  0
  -21.4158  -29.2990   22.3716 N   0  0  0  0  0  0
  -26.4329  -37.3774   23.9427 N   0  0  0  0  0  0
  -24.6848  -31.0630   22.1040 N   0  0  0  0  0  0
  -23.4146  -28.8026   23.3000 O   0  0  0  0  0  0
  -28.2936  -26.4135   20.1402 O   0  0  0  0  0  0
  -26.5626  -34.8870   22.4676 O   0  0  0  0  0  0
  -23.5393  -32.1383   23.7432 O   0  0  0  0  0  0
  -29.3368  -21.2411   20.3516 C   0  0  0  0  0  0
  -29.2545  -21.6041   23.0946 C   0  0  0  0  0  0
  -29.3690  -20.0569   21.1781 C   0  0  0  0  0  0
  -29.1914  -22.5909   20.8555 C   0  0  0  0  0  0
  -29.1493  -22.7442   22.2625 C   0  0  0  0  0  0
  -29.3040  -20.2742   22.5842 C   0  0  0  0  0  0
  -28.0562  -17.8407   20.6152 C   0  0  0  0  0  0
  -28.4001  -16.3332   20.4535 C   0  0  0  0  0  0
  -30.3548  -17.4264   21.0935 C   0  0  0  0  0  0
  -29.3872  -18.5806   20.5602 C   0  0  2  0  0  0
  -28.9466  -24.1148   22.9044 C   0  0  0  0  0  0
  -30.5279  -24.4674   19.6720 C   0  0  0  0  0  0
  -29.4154  -19.2649   24.8075 C   0  0  0  0  0  0
  -28.0053  -24.9573   20.0050 C   0  0  0  0  0  0
  -29.1431  -23.8424   19.8871 C   0  0  1  0  0  0
  -29.8106  -16.0436   20.7884 N   0  0  0  0  0  0
  -29.2249  -19.1571   23.3961 O   0  0  0  0  0  0
  -31.4626  -12.8116   19.1255 H   0  0  0  0  0  0
  -30.5771  -11.6164   20.0239 H   0  0  0  0  0  0
  -29.8214  -11.6590   17.6297 H   0  0  0  0  0  0
  -29.5530  -13.3870   17.7037 H   0  0  0  0  0  0
  -27.9933  -11.1856   19.0928 H   0  0  0  0  0  0
  -27.3596  -12.3140   17.9150 H   0  0  0  0  0  0
  -27.6182  -14.1343   19.4366 H   0  0  0  0  0  0
  -28.8314  -12.1587   21.4566 H   0  0  0  0  0  0
  -28.4235  -13.7853   21.8780 H   0  0  0  0  0  0
  -25.2737   -9.5543   22.4863 H   0  0  0  0  0  0
  -23.9977   -7.4488   22.7471 H   0  0  0  0  0  0
  -21.0875   -8.8757   19.8892 H   0  0  0  0  0  0
  -22.3754  -10.9670   19.6257 H   0  0  0  0  0  0
  -21.1979   -7.6160   23.9711 H   0  0  0  0  0  0
  -21.1457   -6.0507   25.9056 H   0  0  0  0  0  0
  -22.0652   -2.7642   23.2771 H   0  0  0  0  0  0
  -22.4123  -11.9818   22.4694 H   0  0  0  0  0  0
  -21.1170  -13.1262   22.2754 H   0  0  0  0  0  0
  -24.6249  -15.8058   20.3486 H   0  0  0  0  0  0
  -26.2032  -15.5092   19.8298 H   0  0  0  0  0  0
  -26.7122  -32.5398   23.1087 H   0  0  0  0  0  0
  -25.0098  -33.9721   25.0482 H   0  0  0  0  0  0
  -22.7033  -31.3017   21.4230 H   0  0  0  0  0  0
  -23.3784  -35.9656   23.3272 H   0  0  0  0  0  0
  -24.3599  -36.8941   22.2042 H   0  0  0  0  0  0
  -23.7264  -37.6492   23.6668 H   0  0  0  0  0  0
  -26.1155  -31.5380   20.6221 H   0  0  0  0  0  0
  -26.8290  -30.8055   22.0331 H   0  0  0  0  0  0
  -28.1157  -28.9476   21.1669 H   0  0  0  0  0  0
  -25.8315  -25.9376   19.0209 H   0  0  0  0  0  0
  -23.9122  -27.3029   19.0757 H   0  0  0  0  0  0
  -23.7660  -30.6127   19.4268 H   0  0  0  0  0  0
  -22.7379  -29.2858   19.8618 H   0  0  0  0  0  0
  -25.1311  -36.1947   25.0817 H   0  0  0  0  0  0
  -20.9858  -28.3110   24.1329 H   0  0  0  0  0  0
  -20.5468  -26.2190   23.3538 H   0  0  0  0  0  0
  -21.6643  -26.7240   22.1248 H   0  0  0  0  0  0
  -19.6999  -25.6127   21.1148 H   0  0  0  0  0  0
  -19.6776  -27.2977   20.6498 H   0  0  0  0  0  0
  -17.4207  -26.6354   21.3895 H   0  0  0  0  0  0
  -18.0467  -25.9894   22.8854 H   0  0  0  0  0  0
  -19.8013  -30.7003   24.2235 H   0  0  0  0  0  0
  -17.5138  -31.6193   24.5025 H   0  0  0  0  0  0
  -15.5391  -30.2913   23.7690 H   0  0  0  0  0  0
  -15.8578  -28.0675   22.7212 H   0  0  0  0  0  0
  -24.5822  -30.7170   25.7951 H   0  0  0  0  0  0
  -24.8867  -32.3038   26.4885 H   0  0  0  0  0  0
  -25.7948  -30.9117   27.0394 H   0  0  0  0  0  0
  -26.2974  -29.6784   24.1240 H   0  0  0  0  0  0
  -27.3989  -29.7301   25.4796 H   0  0  0  0  0  0
  -27.8844  -30.4378   23.9578 H   0  0  0  0  0  0
  -27.2634  -33.3729   26.2072 H   0  0  0  0  0  0
  -28.3845  -32.6907   25.0375 H   0  0  0  0  0  0
  -28.0670  -31.8568   26.5495 H   0  0  0  0  0  0
  -28.2581  -38.0159   24.7557 H   0  0  0  0  0  0
  -28.1160  -36.2663   24.6222 H   0  0  0  0  0  0
  -27.2327  -37.1388   25.8849 H   0  0  0  0  0  0
  -20.9304  -29.8873   21.7099 H   0  0  0  0  0  0
  -26.0192  -38.2852   24.1444 H   0  0  0  0  0  0
  -29.3981  -21.1048   19.2793 H   0  0  0  0  0  0
  -29.2549  -21.7884   24.1573 H   0  0  0  0  0  0
  -27.5747  -18.0053   21.5800 H   0  0  0  0  0  0
  -27.3654  -18.2009   19.8439 H   0  0  0  0  0  0
  -28.2333  -16.0974   19.4030 H   0  0  0  0  0  0
  -27.7359  -15.7616   21.0970 H   0  0  0  0  0  0
  -30.4314  -17.4954   22.1792 H   0  0  0  0  0  0
  -31.3623  -17.5527   20.6989 H   0  0  0  0  0  0
  -29.6044  -18.7061   19.4966 H   0  0  0  0  0  0
  -27.9333  -24.4590   22.7003 H   0  0  0  0  0  0
  -29.6373  -24.8620   22.5067 H   0  0  0  0  0  0
  -29.0526  -24.1156   23.9917 H   0  0  0  0  0  0
  -30.8258  -25.0699   20.5282 H   0  0  0  0  0  0
  -30.5308  -25.1101   18.7869 H   0  0  0  0  0  0
  -31.2756  -23.6891   19.5197 H   0  0  0  0  0  0
  -29.0112  -18.3827   25.3072 H   0  0  0  0  0  0
  -28.9250  -20.1137   25.2789 H   0  0  0  0  0  0
  -30.4798  -19.2825   25.0323 H   0  0  0  0  0  0
  -27.4826  -24.8328   19.0601 H   0  0  0  0  0  0
  -27.2633  -24.6687   20.7450 H   0  0  0  0  0  0
  -28.9092  -23.3676   18.9321 H   0  0  0  0  0  0
  1 25  1  0  0  0
  1 30  2  0  0  0
  1 86  1  0  0  0
  2  3  1  0  0  0
  2 25  1  0  0  0
  2 88  1  0  0  0
  2 89  1  0  0  0
  3  4  1  0  0  0
  3 90  1  0  0  0
  3 91  1  0  0  0
  4  5  1  0  0  0
  4 92  1  0  0  0
  4 93  1  0  0  0
  5  6  1  0  0  0
  5 26  1  0  0  0
  5 94  1  0  0  0
  6 25  1  0  0  0
  6 95  1  0  0  0
  6 96  1  0  0  0
  7  8  2  0  0  0
  7 26  1  0  0  0
  7 29  1  0  0  0
  8  9  1  0  0  0
  8 22  1  0  0  0
  9 10  1  0  0  0
  9 27  2  0  0  0
 10 11  2  0  0  0
 10 15  1  0  0  0
 11 12  1  0  0  0
 11 97  1  0  0  0
 12 13  2  0  0  0
 12 98  1  0  0  0
 13 14  1  0  0  0
 13 31  1  0  0  0
 14 15  2  0  0  0
 14 99  1  0  0  0
 15100  1  0  0  0
 16 17  2  0  0  0
 16 21  1  0  0  0
 16 31  1  0  0  0
 17 18  1  0  0  0
 17101  1  0  0  0
 18 19  2  0  0  0
 18102  1  0  0  0
 19 20  1  0  0  0
 19 24  1  0  0  0
 20 21  2  0  0  0
 20103  1  0  0  0
 21 23  1  0  0  0
 22 28  1  0  0  0
 22 32  2  0  0  0
 26 27  1  0  0  0
 28104  1  0  0  0
 28105  1  0  0  0
 29106  1  0  0  0
 29107  1  0  0  0
 33 34  1  0  0  0
 33 66  1  0  0  0
 33 70  2  0  0  0
 34 36  1  0  0  0
 34 59  1  0  0  0
 34108  1  0  0  0
 35 44  2  0  0  0
 35 45  1  0  0  0
 35 68  1  0  0  0
 36 56  1  0  0  0
 36109  1  0  0  0
 37 39  1  0  0  0
 37 47  1  0  0  0
 37 66  1  0  0  0
 37110  1  0  0  0
 38 43  2  0  0  0
 38 46  1  0  0  0
 38 47  1  0  0  0
 39 64  1  0  0  0
 39 67  2  0  0  0
 40 52  1  0  0  0
 40 53  2  0  0  0
 40 58  1  0  0  0
 41111  1  0  0  0
 41112  1  0  0  0
 41113  1  0  0  0
 41 48  1  0  0  0
 42 43  1  0  0  0
 42 66  1  0  0  0
 42114  1  0  0  0
 42115  1  0  0  0
 43 44  1  0  0  0
 44116  1  0  0  0
 45 46  2  0  0  0
 45117  1  0  0  0
 46118  1  0  0  0
 47119  1  0  0  0
 47120  1  0  0  0
 48 56  1  0  0  0
 48 65  1  0  0  0
 48121  1  0  0  0
 49 50  1  0  0  0
 49 53  1  0  0  0
 49 64  1  0  0  0
 49122  1  0  0  0
 50 51  1  0  0  0
 50123  1  0  0  0
 50124  1  0  0  0
 51 52  1  0  0  0
 51125  1  0  0  0
 51126  1  0  0  0
 52127  1  0  0  0
 52128  1  0  0  0
 53 54  1  0  0  0
 54 55  2  0  0  0
 54129  1  0  0  0
 55 57  1  0  0  0
 55130  1  0  0  0
 56 69  2  0  0  0
 57 58  2  0  0  0
 57131  1  0  0  0
 58132  1  0  0  0
 59 60  1  0  0  0
 59 61  1  0  0  0
 59 62  1  0  0  0
 60133  1  0  0  0
 60134  1  0  0  0
 60135  1  0  0  0
 61136  1  0  0  0
 61137  1  0  0  0
 61138  1  0  0  0
 62139  1  0  0  0
 62140  1  0  0  0
 62141  1  0  0  0
 63 65  1  0  0  0
 63142  1  0  0  0
 63143  1  0  0  0
 63144  1  0  0  0
 64145  1  0  0  0
 65146  1  0  0  0
 68 84  1  0  0  0
 71 73  2  0  0  0
 71 74  1  0  0  0
 71147  1  0  0  0
 72 75  1  0  0  0
 72 76  2  0  0  0
 72148  1  0  0  0
 73 76  1  0  0  0
 73 80  1  0  0  0
 74 75  2  0  0  0
 74 85  1  0  0  0
 75 81  1  0  0  0
 76 87  1  0  0  0
 77 78  1  0  0  0
 77 80  1  0  0  0
 77149  1  0  0  0
 77150  1  0  0  0
 78 86  1  0  0  0
 78151  1  0  0  0
 78152  1  0  0  0
 79 80  1  0  0  0
 79 86  1  0  0  0
 79153  1  0  0  0
 79154  1  0  0  0
 80155  1  0  0  0
 81156  1  0  0  0
 81157  1  0  0  0
 81158  1  0  0  0
 82159  1  0  0  0
 82160  1  0  0  0
 82161  1  0  0  0
 82 85  1  0  0  0
 83 87  1  0  0  0
 83162  1  0  0  0
 83163  1  0  0  0
 83164  1  0  0  0
 84 85  1  0  0  0
 84165  1  0  0  0
 84166  1  0  0  0
 85167  1  0  0  0
M  ISO  4   1 100  68 101  84 101  86 100
M  END
> <chiral flag>
0

> <version>
0

> <s_m_source_file>
/data/baiqing/PycharmProjects/Reinvent-master-3.2/result/LINK_invent/BTK/process_docking_weight1_custom_sum_contain_oxygen_bond_distance_aromatic_linkinvent_7_9_3/rearranged_h_0161.sdf

> <i_m_source_file_index>
67

> <r_mmod_Potential_Energy-OPLS-2005>
450.592376708984

> <r_mmod_Stretch_Energy-OPLS-2005>
115.66268157959

> <r_mmod_Bend_Energy-OPLS-2005>
215.951095581055

> <r_mmod_Torsional_Energy-OPLS-2005>
341.532928466797

> <r_mmod_Improper_Torsional_Energy-OPLS-2005>
5.06707668304443

> <r_mmod_Van_der_Waal_Energy-OPLS-2005>
163.935424804688

> <r_mmod_Electrostatic_Energy-OPLS-2005>
-308.865783691406

> <r_mmod_Solvation_Energy-OPLS-2005>
-199.68505859375

> <b_mmod_Minimization_Converged-OPLS-2005>
0

> <r_mmod_RMS_Derivative-OPLS-2005>
9.41666126251221

$$$$
67
                    3D
 Structure written by MMmdl.
173182  0  0  1  0            999 V2000
  -30.7014  -14.4511   20.6324 C   0  0  0  0  0  0
  -30.4244  -12.3103   19.4174 C   0  0  0  0  0  0
  -29.4962  -12.5273   18.2048 C   0  0  0  0  0  0
  -28.0181  -12.3697   18.6155 C   0  0  0  0  0  0
  -27.6621  -13.2010   19.8769 C   0  0  2  0  0  0
  -28.6986  -12.9618   20.9962 C   0  0  0  0  0  0
  -25.2605  -13.8154   20.5676 C   0  0  0  0  0  0
  -24.1829  -13.0440   20.9136 C   0  0  0  0  0  0
  -24.6369  -11.6906   20.8700 C   0  0  0  0  0  0
  -23.9027  -10.4308   21.0409 C   0  0  0  0  0  0
  -24.3587   -9.4224   21.9186 C   0  0  0  0  0  0
  -23.6270   -8.2259   22.0757 C   0  0  0  0  0  0
  -22.4249   -8.0289   21.3548 C   0  0  0  0  0  0
  -21.9876   -9.0255   20.4643 C   0  0  0  0  0  0
  -22.7202  -10.2138   20.3058 C   0  0  0  0  0  0
  -21.6861   -6.0715   22.5274 C   0  0  0  0  0  0
  -21.4031   -6.5621   23.8207 C   0  0  0  0  0  0
  -21.3679   -5.6775   24.9170 C   0  0  0  0  0  0
  -21.6052   -4.3035   24.7221 C   0  0  0  0  0  0
  -21.8825   -3.8127   23.4346 C   0  0  0  0  0  0
  -21.9189   -4.6941   22.3401 C   0  0  0  0  0  0
  -22.7870  -13.5268   21.1830 C   0  0  0  0  0  0
  -22.1645   -4.2115   21.0980 F   0  0  0  0  0  0
  -21.5641   -3.4528   25.7741 F   0  0  0  0  0  0
  -30.0315  -13.2790   20.4513 N   0  0  0  0  0  0
  -26.3021  -12.9304   20.3359 N   0  0  0  0  0  0
  -25.9294  -11.6465   20.5735 N   0  0  0  0  0  0
  -22.0504  -12.8268   22.0390 N   0  0  0  0  0  0
  -25.4365  -15.1866   20.4132 N   0  0  0  0  0  0
  -31.7814  -14.6697   20.0775 O   0  0  0  0  0  0
  -21.6651   -6.8854   21.4231 O   0  0  0  0  0  0
  -22.3568  -14.5572   20.6683 O   0  0  0  0  0  0
  -24.6153  -31.8694   23.2090 C   0  0  0  0  0  0
  -25.9057  -32.4816   23.8392 C   0  0  1  0  0  0
  -27.2290  -27.4331   20.1016 C   0  0  0  0  0  0
  -25.5911  -33.8606   24.2325 N   0  0  0  0  0  0
  -23.3982  -30.4946   21.5485 C   0  0  2  0  0  0
  -24.8407  -28.9563   20.1125 C   0  0  0  0  0  0
  -22.7398  -29.4693   22.4988 C   0  0  0  0  0  0
  -18.0281  -28.1381   22.8472 C   0  0  0  0  0  0
  -24.1470  -36.7314   23.2637 C   0  0  0  0  0  0
  -25.9245  -30.8375   21.3557 C   0  0  0  0  0  0
  -25.9992  -29.4689   20.7077 C   0  0  0  0  0  0
  -27.1924  -28.7156   20.6981 C   0  0  0  0  0  0
  -26.0503  -26.9307   19.5014 C   0  0  0  0  0  0
  -24.8624  -27.6871   19.5072 C   0  0  0  0  0  0
  -23.6044  -29.8250   20.1620 C   0  0  0  0  0  0
  -25.4093  -36.3110   24.0343 C   0  0  1  0  0  0
  -20.5865  -28.3682   23.1310 C   0  0  2  0  0  0
  -20.6812  -26.9435   22.5354 C   0  0  0  0  0  0
  -19.5766  -26.6344   21.5197 C   0  0  0  0  0  0
  -18.1946  -26.7920   22.1597 C   0  0  0  0  0  0
  -19.1520  -28.8827   23.2899 C   0  0  0  0  0  0
  -18.9450  -30.1412   23.8952 C   0  0  0  0  0  0
  -17.6455  -30.6558   24.0610 C   0  0  0  0  0  0
  -25.9030  -34.9471   23.5127 C   0  0  0  0  0  0
  -16.5355  -29.9079   23.6336 C   0  0  0  0  0  0
  -16.7270  -28.6516   23.0322 C   0  0  0  0  0  0
  -26.4474  -31.6593   25.0715 C   0  0  0  0  0  0
  -25.3754  -31.3707   26.1471 C   0  0  0  0  0  0
  -27.0292  -30.3041   24.6087 C   0  0  0  0  0  0
  -27.6052  -32.4305   25.7483 C   0  0  0  0  0  0
  -27.5565  -37.1814   24.8470 C   0  0  0  0  0  0
  -21.4117  -29.3097   22.3767 N   0  0  0  0  0  0
  -26.4277  -37.3804   23.9411 N   0  0  0  0  0  0
  -24.6642  -31.0821   22.0967 N   0  0  0  0  0  0
  -23.4190  -28.8234   23.2992 O   0  0  0  0  0  0
  -28.4244  -26.7449   20.1351 O   0  0  0  0  0  0
  -26.5578  -34.8938   22.4681 O   0  0  0  0  0  0
  -23.5352  -32.1434   23.7507 O   0  0  0  0  0  0
  -28.9573  -17.6260   21.5810 C   0  0  0  0  0  0
  -28.7346  -18.7027   20.7119 C   0  0  0  0  0  0
  -28.4701  -17.6775   22.9083 C   0  0  0  0  0  0
  -28.0257  -19.8791   21.0897 C   0  0  0  0  0  0
  -27.7334  -18.8242   23.3189 C   0  0  0  0  0  0
  -27.5457  -19.9360   22.4365 C   0  0  0  0  0  0
  -29.7097  -16.5379   20.8936 C   0  0  0  0  0  0
  -29.3533  -18.4290   19.3601 C   0  0  0  0  0  0
  -30.0248  -17.0531   19.4918 C   0  0  0  0  0  0
  -28.7449  -16.5229   23.8749 C   0  0  0  0  0  0
  -27.1290  -18.8380   24.7237 C   0  0  0  0  0  0
  -26.8365  -21.1712   22.9877 C   0  0  0  0  0  0
  -26.2605  -21.3114   19.7877 C   0  0  0  0  0  0
  -27.8581  -24.4068   20.8300 C   0  0  0  0  0  0
  -28.7239  -22.1848   19.9467 C   0  0  0  0  0  0
  -28.4885  -25.3577   19.7776 C   0  0  0  0  0  0
  -27.7499  -20.9687   20.0107 C   0  0  1  0  0  0
  -30.0133  -15.3912   21.3932 N   0  0  0  0  0  0
  -28.6412  -23.1553   21.0642 N   0  3  0  0  0  0
  -31.4707  -12.4084   19.1233 H   0  0  0  0  0  0
  -30.3174  -11.2924   19.7992 H   0  0  0  0  0  0
  -29.7419  -11.8241   17.4076 H   0  0  0  0  0  0
  -29.6558  -13.5267   17.7972 H   0  0  0  0  0  0
  -27.8397  -11.3107   18.8084 H   0  0  0  0  0  0
  -27.3644  -12.6451   17.7873 H   0  0  0  0  0  0
  -27.7123  -14.2516   19.5929 H   0  0  0  0  0  0
  -28.6758  -11.9217   21.3240 H   0  0  0  0  0  0
  -28.4438  -13.5416   21.8829 H   0  0  0  0  0  0
  -25.2744   -9.5714   22.4737 H   0  0  0  0  0  0
  -23.9984   -7.4674   22.7495 H   0  0  0  0  0  0
  -21.0803   -8.8790   19.8960 H   0  0  0  0  0  0
  -22.3676  -10.9671   19.6156 H   0  0  0  0  0  0
  -21.2043   -7.6135   23.9688 H   0  0  0  0  0  0
  -21.1491   -6.0519   25.9064 H   0  0  0  0  0  0
  -22.0583   -2.7584   23.2870 H   0  0  0  0  0  0
  -22.4091  -11.9899   22.4756 H   0  0  0  0  0  0
  -21.1153  -13.1341   22.2629 H   0  0  0  0  0  0
  -24.6803  -15.8503   20.5436 H   0  0  0  0  0  0
  -26.3149  -15.6238   20.1689 H   0  0  0  0  0  0
  -26.7128  -32.5533   23.1155 H   0  0  0  0  0  0
  -25.0091  -33.9760   25.0494 H   0  0  0  0  0  0
  -22.6875  -31.3120   21.4102 H   0  0  0  0  0  0
  -23.3725  -35.9652   23.3322 H   0  0  0  0  0  0
  -24.3575  -36.8911   22.2052 H   0  0  0  0  0  0
  -23.7230  -37.6538   23.6622 H   0  0  0  0  0  0
  -26.0287  -31.6007   20.5830 H   0  0  0  0  0  0
  -26.8156  -30.8972   21.9682 H   0  0  0  0  0  0
  -28.0876  -29.1139   21.1555 H   0  0  0  0  0  0
  -26.0219  -25.9627   19.0218 H   0  0  0  0  0  0
  -23.9707  -27.2883   19.0442 H   0  0  0  0  0  0
  -23.7131  -30.5994   19.4021 H   0  0  0  0  0  0
  -22.7275  -29.2463   19.8679 H   0  0  0  0  0  0
  -25.1265  -36.1973   25.0840 H   0  0  0  0  0  0
  -20.9944  -28.3215   24.1440 H   0  0  0  0  0  0
  -20.5847  -26.2273   23.3522 H   0  0  0  0  0  0
  -21.6676  -26.7574   22.1072 H   0  0  0  0  0  0
  -19.6937  -25.6213   21.1299 H   0  0  0  0  0  0
  -19.6689  -27.3077   20.6671 H   0  0  0  0  0  0
  -17.4235  -26.6666   21.3982 H   0  0  0  0  0  0
  -18.0306  -26.0074   22.8985 H   0  0  0  0  0  0
  -19.7925  -30.7182   24.2383 H   0  0  0  0  0  0
  -17.5013  -31.6223   24.5249 H   0  0  0  0  0  0
  -15.5364  -30.3011   23.7637 H   0  0  0  0  0  0
  -15.8663  -28.0871   22.6999 H   0  0  0  0  0  0
  -24.5914  -30.7058   25.7827 H   0  0  0  0  0  0
  -24.8956  -32.2869   26.4932 H   0  0  0  0  0  0
  -25.8131  -30.8883   27.0224 H   0  0  0  0  0  0
  -26.2838  -29.6819   24.1126 H   0  0  0  0  0  0
  -27.4052  -29.7260   25.4543 H   0  0  0  0  0  0
  -27.8671  -30.4366   23.9236 H   0  0  0  0  0  0
  -27.2669  -33.3582   26.2117 H   0  0  0  0  0  0
  -28.3839  -32.6923   25.0299 H   0  0  0  0  0  0
  -28.0745  -31.8405   26.5368 H   0  0  0  0  0  0
  -28.2607  -38.0090   24.7498 H   0  0  0  0  0  0
  -28.1033  -36.2627   24.6294 H   0  0  0  0  0  0
  -27.2294  -37.1482   25.8880 H   0  0  0  0  0  0
  -20.9252  -29.8895   21.7071 H   0  0  0  0  0  0
  -26.0164  -38.2881   24.1422 H   0  0  0  0  0  0
  -30.0861  -19.1996   19.1189 H   0  0  0  0  0  0
  -28.5941  -18.4061   18.5768 H   0  0  0  0  0  0
  -29.6585  -16.3620   18.7320 H   0  0  0  0  0  0
  -31.1030  -17.1540   19.3716 H   0  0  0  0  0  0
  -29.7890  -16.2138   23.8180 H   0  0  0  0  0  0
  -28.1198  -15.6660   23.6223 H   0  0  0  0  0  0
  -28.5780  -16.7596   24.9233 H   0  0  0  0  0  0
  -26.3613  -19.5917   24.8723 H   0  0  0  0  0  0
  -27.9045  -19.0045   25.4707 H   0  0  0  0  0  0
  -26.6379  -17.8865   24.9372 H   0  0  0  0  0  0
  -25.7790  -20.9778   23.1705 H   0  0  0  0  0  0
  -26.8789  -22.0406   22.3525 H   0  0  0  0  0  0
  -27.3007  -21.4763   23.9262 H   0  0  0  0  0  0
  -25.7915  -21.8787   20.5849 H   0  0  0  0  0  0
  -25.6794  -20.3987   19.6565 H   0  0  0  0  0  0
  -26.1426  -21.9012   18.8780 H   0  0  0  0  0  0
  -26.8250  -24.1762   20.5699 H   0  0  0  0  0  0
  -27.8184  -24.9262   21.7890 H   0  0  0  0  0  0
  -29.7469  -21.8084   19.9227 H   0  0  0  0  0  0
  -28.5901  -22.7075   19.0002 H   0  0  0  0  0  0
  -28.0839  -25.1814   18.7792 H   0  0  0  0  0  0
  -29.5527  -25.1381   19.7031 H   0  0  0  0  0  0
  -27.9695  -20.4820   19.0654 H   0  0  0  0  0  0
  -28.2648  -22.6601   21.8564 H   0  0  0  0  0  0
  -29.5820  -23.4187   21.3170 H   0  0  0  0  0  0
  1 25  1  0  0  0
  1 30  2  0  0  0
  1 88  1  0  0  0
  2  3  1  0  0  0
  2 25  1  0  0  0
  2 90  1  0  0  0
  2 91  1  0  0  0
  3  4  1  0  0  0
  3 92  1  0  0  0
  3 93  1  0  0  0
  4  5  1  0  0  0
  4 94  1  0  0  0
  4 95  1  0  0  0
  5  6  1  0  0  0
  5 26  1  0  0  0
  5 96  1  0  0  0
  6 25  1  0  0  0
  6 97  1  0  0  0
  6 98  1  0  0  0
  7  8  2  0  0  0
  7 26  1  0  0  0
  7 29  1  0  0  0
  8  9  1  0  0  0
  8 22  1  0  0  0
  9 10  1  0  0  0
  9 27  2  0  0  0
 10 11  2  0  0  0
 10 15  1  0  0  0
 11 12  1  0  0  0
 11 99  1  0  0  0
 12 13  2  0  0  0
 12100  1  0  0  0
 13 14  1  0  0  0
 13 31  1  0  0  0
 14 15  2  0  0  0
 14101  1  0  0  0
 15102  1  0  0  0
 16 17  2  0  0  0
 16 21  1  0  0  0
 16 31  1  0  0  0
 17 18  1  0  0  0
 17103  1  0  0  0
 18 19  2  0  0  0
 18104  1  0  0  0
 19 20  1  0  0  0
 19 24  1  0  0  0
 20 21  2  0  0  0
 20105  1  0  0  0
 21 23  1  0  0  0
 22 28  1  0  0  0
 22 32  2  0  0  0
 26 27  1  0  0  0
 28106  1  0  0  0
 28107  1  0  0  0
 29108  1  0  0  0
 29109  1  0  0  0
 33 34  1  0  0  0
 33 66  1  0  0  0
 33 70  2  0  0  0
 34 36  1  0  0  0
 34 59  1  0  0  0
 34110  1  0  0  0
 35 44  2  0  0  0
 35 45  1  0  0  0
 35 68  1  0  0  0
 36 56  1  0  0  0
 36111  1  0  0  0
 37 39  1  0  0  0
 37 47  1  0  0  0
 37 66  1  0  0  0
 37112  1  0  0  0
 38 43  2  0  0  0
 38 46  1  0  0  0
 38 47  1  0  0  0
 39 64  1  0  0  0
 39 67  2  0  0  0
 40 52  1  0  0  0
 40 53  2  0  0  0
 40 58  1  0  0  0
 41113  1  0  0  0
 41114  1  0  0  0
 41115  1  0  0  0
 41 48  1  0  0  0
 42 43  1  0  0  0
 42 66  1  0  0  0
 42116  1  0  0  0
 42117  1  0  0  0
 43 44  1  0  0  0
 44118  1  0  0  0
 45 46  2  0  0  0
 45119  1  0  0  0
 46120  1  0  0  0
 47121  1  0  0  0
 47122  1  0  0  0
 48 56  1  0  0  0
 48 65  1  0  0  0
 48123  1  0  0  0
 49 50  1  0  0  0
 49 53  1  0  0  0
 49 64  1  0  0  0
 49124  1  0  0  0
 50 51  1  0  0  0
 50125  1  0  0  0
 50126  1  0  0  0
 51 52  1  0  0  0
 51127  1  0  0  0
 51128  1  0  0  0
 52129  1  0  0  0
 52130  1  0  0  0
 53 54  1  0  0  0
 54 55  2  0  0  0
 54131  1  0  0  0
 55 57  1  0  0  0
 55132  1  0  0  0
 56 69  2  0  0  0
 57 58  2  0  0  0
 57133  1  0  0  0
 58134  1  0  0  0
 59 60  1  0  0  0
 59 61  1  0  0  0
 59 62  1  0  0  0
 60135  1  0  0  0
 60136  1  0  0  0
 60137  1  0  0  0
 61138  1  0  0  0
 61139  1  0  0  0
 61140  1  0  0  0
 62141  1  0  0  0
 62142  1  0  0  0
 62143  1  0  0  0
 63 65  1  0  0  0
 63144  1  0  0  0
 63145  1  0  0  0
 63146  1  0  0  0
 64147  1  0  0  0
 65148  1  0  0  0
 68 86  1  0  0  0
 71 72  1  0  0  0
 71 73  2  0  0  0
 71 77  1  0  0  0
 72 74  2  0  0  0
 72 78  1  0  0  0
 73 75  1  0  0  0
 73 80  1  0  0  0
 74 76  1  0  0  0
 74 87  1  0  0  0
 75 76  2  0  0  0
 75 81  1  0  0  0
 76 82  1  0  0  0
 77 79  1  0  0  0
 77 88  2  0  0  0
 78 79  1  0  0  0
 78149  1  0  0  0
 78150  1  0  0  0
 79151  1  0  0  0
 79152  1  0  0  0
 80153  1  0  0  0
 80154  1  0  0  0
 80155  1  0  0  0
 81156  1  0  0  0
 81157  1  0  0  0
 81158  1  0  0  0
 82159  1  0  0  0
 82160  1  0  0  0
 82161  1  0  0  0
 83162  1  0  0  0
 83163  1  0  0  0
 83164  1  0  0  0
 83 87  1  0  0  0
 84 86  1  0  0  0
 84 89  1  0  0  0
 84165  1  0  0  0
 84166  1  0  0  0
 85 87  1  0  0  0
 85 89  1  0  0  0
 85167  1  0  0  0
 85168  1  0  0  0
 86169  1  0  0  0
 86170  1  0  0  0
 87171  1  0  0  0
 89172  1  0  0  0
 89173  1  0  0  0
M  CHG  1  89   1
M  ISO  4   1 100  68 101  86 101  88 100
M  END
> <chiral flag>
0

> <version>
0

> <s_m_source_file>
/data/baiqing/PycharmProjects/Reinvent-master-3.2/result/LINK_invent/BTK/process_docking_weight1_custom_sum_contain_oxygen_bond_distance_aromatic_linkinvent_7_9_3/rearranged_h_0161.sdf

> <i_m_source_file_index>
68

> <r_mmod_Potential_Energy-OPLS-2005>
-87.9279251098633

> <r_mmod_Stretch_Energy-OPLS-2005>
48.5060348510742

> <r_mmod_Bend_Energy-OPLS-2005>
177.848556518555

> <r_mmod_Torsional_Energy-OPLS-2005>
194.186889648438

> <r_mmod_Improper_Torsional_Energy-OPLS-2005>
2.44083762168884

> <r_mmod_Van_der_Waal_Energy-OPLS-2005>
171.922149658203

> <r_mmod_Electrostatic_Energy-OPLS-2005>
-273.164642333984

> <r_mmod_Solvation_Energy-OPLS-2005>
-420.976165771484

> <b_mmod_Minimization_Converged-OPLS-2005>
0

> <r_mmod_RMS_Derivative-OPLS-2005>
3.58728528022766

$$$$
68
                    3D
 Structure written by MMmdl.
157166  0  0  1  0            999 V2000
  -30.6559  -14.6690   20.4260 C   0  0  0  0  0  0
  -30.4222  -12.3973   19.4703 C   0  0  0  0  0  0
  -29.5061  -12.4811   18.2310 C   0  0  0  0  0  0
  -28.0318  -12.3170   18.6453 C   0  0  0  0  0  0
  -27.6431  -13.2227   19.8457 C   0  0  2  0  0  0
  -28.6886  -13.1543   20.9816 C   0  0  0  0  0  0
  -25.2528  -13.8155   20.5710 C   0  0  0  0  0  0
  -24.1802  -13.0420   20.9195 C   0  0  0  0  0  0
  -24.6384  -11.6892   20.8737 C   0  0  0  0  0  0
  -23.9062  -10.4278   21.0404 C   0  0  0  0  0  0
  -24.3613   -9.4198   21.9186 C   0  0  0  0  0  0
  -23.6288   -8.2232   22.0753 C   0  0  0  0  0  0
  -22.4271   -8.0272   21.3543 C   0  0  0  0  0  0
  -21.9908   -9.0242   20.4644 C   0  0  0  0  0  0
  -22.7236  -10.2122   20.3053 C   0  0  0  0  0  0
  -21.6853   -6.0729   22.5286 C   0  0  0  0  0  0
  -21.4007   -6.5634   23.8216 C   0  0  0  0  0  0
  -21.3658   -5.6792   24.9182 C   0  0  0  0  0  0
  -21.6044   -4.3052   24.7242 C   0  0  0  0  0  0
  -21.8818   -3.8142   23.4362 C   0  0  0  0  0  0
  -21.9185   -4.6954   22.3411 C   0  0  0  0  0  0
  -22.7831  -13.5214   21.1866 C   0  0  0  0  0  0
  -22.1656   -4.2137   21.0990 F   0  0  0  0  0  0
  -21.5632   -3.4539   25.7757 F   0  0  0  0  0  0
  -29.9986  -13.4657   20.3984 N   0  0  0  0  0  0
  -26.2945  -12.9355   20.3260 N   0  0  0  0  0  0
  -25.9309  -11.6508   20.5734 N   0  0  0  0  0  0
  -22.0480  -12.8204   22.0420 N   0  0  0  0  0  0
  -25.4274  -15.1868   20.4194 N   0  0  0  0  0  0
  -31.8539  -14.7288   20.1410 O   0  0  0  0  0  0
  -21.6632   -6.8875   21.4248 O   0  0  0  0  0  0
  -22.3522  -14.5529   20.6729 O   0  0  0  0  0  0
  -24.6279  -31.8605   23.2041 C   0  0  0  0  0  0
  -25.9115  -32.4783   23.8379 C   0  0  1  0  0  0
  -27.2291  -27.3181   20.1129 C   0  0  0  0  0  0
  -25.5923  -33.8586   24.2297 N   0  0  0  0  0  0
  -23.4241  -30.4849   21.5462 C   0  0  2  0  0  0
  -24.8713  -28.9465   20.1105 C   0  0  0  0  0  0
  -22.7493  -29.4630   22.4925 C   0  0  0  0  0  0
  -18.0286  -28.1396   22.8476 C   0  0  0  0  0  0
  -24.1477  -36.7287   23.2630 C   0  0  0  0  0  0
  -25.9672  -30.7868   21.3829 C   0  0  0  0  0  0
  -26.0416  -29.4173   20.7206 C   0  0  0  0  0  0
  -27.2215  -28.6131   20.7184 C   0  0  0  0  0  0
  -26.0347  -26.9139   19.4651 C   0  0  0  0  0  0
  -24.8701  -27.6978   19.4763 C   0  0  0  0  0  0
  -23.6410  -29.8254   20.1610 C   0  0  0  0  0  0
  -25.4096  -36.3088   24.0339 C   0  0  1  0  0  0
  -20.5894  -28.3707   23.1260 C   0  0  2  0  0  0
  -20.6780  -26.9434   22.5395 C   0  0  0  0  0  0
  -19.5757  -26.6400   21.5203 C   0  0  0  0  0  0
  -18.1929  -26.7934   22.1618 C   0  0  0  0  0  0
  -19.1541  -28.8865   23.2861 C   0  0  0  0  0  0
  -18.9476  -30.1459   23.8890 C   0  0  0  0  0  0
  -17.6478  -30.6596   24.0568 C   0  0  0  0  0  0
  -25.9060  -34.9455   23.5125 C   0  0  0  0  0  0
  -16.5370  -29.9100   23.6335 C   0  0  0  0  0  0
  -16.7275  -28.6520   23.0355 C   0  0  0  0  0  0
  -26.4498  -31.6597   25.0751 C   0  0  0  0  0  0
  -25.3736  -31.3752   26.1491 C   0  0  0  0  0  0
  -27.0331  -30.3009   24.6225 C   0  0  0  0  0  0
  -27.6091  -32.4312   25.7485 C   0  0  0  0  0  0
  -27.5595  -37.1750   24.8442 C   0  0  0  0  0  0
  -21.4208  -29.3050   22.3650 N   0  0  0  0  0  0
  -26.4263  -37.3797   23.9459 N   0  0  0  0  0  0
  -24.6912  -31.0601   22.1010 N   0  0  0  0  0  0
  -23.4194  -28.8154   23.3012 O   0  0  0  0  0  0
  -28.3350  -26.4475   20.1768 O   0  0  0  0  0  0
  -26.5630  -34.8925   22.4696 O   0  0  0  0  0  0
  -23.5436  -32.1422   23.7344 O   0  0  0  0  0  0
  -28.0014  -20.2343   19.5391 C   0  0  0  0  0  0
  -30.3734  -19.6302   20.7377 C   0  0  0  0  0  0
  -28.4522  -18.8909   19.5195 C   0  0  0  0  0  0
  -29.6697  -18.5377   20.1442 C   0  0  0  0  0  0
  -28.7829  -21.2501   20.1251 C   0  0  0  0  0  0
  -27.7220  -17.8407   18.7097 C   0  0  0  0  0  0
  -28.6814  -16.9993   17.8341 C   0  0  0  0  0  0
  -30.1622  -16.9790   18.2959 C   0  0  0  0  0  0
  -30.3325  -17.1362   19.8253 C   0  0  2  0  0  0
  -28.0688  -25.0107   19.9189 C   0  0  0  0  0  0
  -29.0289  -23.8017   20.3068 C   0  0  0  0  0  0
  -29.9587  -20.9435   20.7293 N   0  0  0  0  0  0
  -29.9066  -15.8271   20.4648 N   0  0  0  0  0  0
  -28.2957  -22.5660   20.0488 O   0  0  0  0  0  0
  -31.4688  -12.4862   19.1748 H   0  0  0  0  0  0
  -30.3333  -11.4226   19.9529 H   0  0  0  0  0  0
  -29.7797  -11.7102   17.5090 H   0  0  0  0  0  0
  -29.6424  -13.4388   17.7259 H   0  0  0  0  0  0
  -27.8842  -11.2693   18.9113 H   0  0  0  0  0  0
  -27.3749  -12.5066   17.7957 H   0  0  0  0  0  0
  -27.6390  -14.2420   19.4588 H   0  0  0  0  0  0
  -28.7041  -12.1621   21.4337 H   0  0  0  0  0  0
  -28.4406  -13.8550   21.7810 H   0  0  0  0  0  0
  -25.2764   -9.5659   22.4755 H   0  0  0  0  0  0
  -23.9994   -7.4618   22.7468 H   0  0  0  0  0  0
  -21.0841   -8.8764   19.8942 H   0  0  0  0  0  0
  -22.3711  -10.9658   19.6149 H   0  0  0  0  0  0
  -21.2001   -7.6143   23.9723 H   0  0  0  0  0  0
  -21.1479   -6.0522   25.9085 H   0  0  0  0  0  0
  -22.0598   -2.7602   23.2878 H   0  0  0  0  0  0
  -22.4108  -11.9858   22.4789 H   0  0  0  0  0  0
  -21.1095  -13.1214   22.2642 H   0  0  0  0  0  0
  -24.6733  -15.8505   20.5590 H   0  0  0  0  0  0
  -26.2917  -15.6204   20.1298 H   0  0  0  0  0  0
  -26.7188  -32.5452   23.1134 H   0  0  0  0  0  0
  -25.0066  -33.9729   25.0441 H   0  0  0  0  0  0
  -22.7206  -31.3076   21.4026 H   0  0  0  0  0  0
  -23.3783  -35.9575   23.3204 H   0  0  0  0  0  0
  -24.3602  -36.9004   22.2069 H   0  0  0  0  0  0
  -23.7155  -37.6426   23.6715 H   0  0  0  0  0  0
  -26.1075  -31.5507   20.6170 H   0  0  0  0  0  0
  -26.8437  -30.8303   22.0180 H   0  0  0  0  0  0
  -28.1145  -28.9633   21.2173 H   0  0  0  0  0  0
  -25.9613  -25.9709   18.9461 H   0  0  0  0  0  0
  -23.9761  -27.3292   18.9898 H   0  0  0  0  0  0
  -23.7643  -30.6051   19.4088 H   0  0  0  0  0  0
  -22.7620  -29.2553   19.8541 H   0  0  0  0  0  0
  -25.1238  -36.1945   25.0823 H   0  0  0  0  0  0
  -20.9979  -28.3308   24.1388 H   0  0  0  0  0  0
  -20.5690  -26.2333   23.3607 H   0  0  0  0  0  0
  -21.6643  -26.7468   22.1174 H   0  0  0  0  0  0
  -19.6933  -25.6310   21.1233 H   0  0  0  0  0  0
  -19.6692  -27.3214   20.6731 H   0  0  0  0  0  0
  -17.4195  -26.6683   21.4023 H   0  0  0  0  0  0
  -18.0327  -26.0077   22.9011 H   0  0  0  0  0  0
  -19.7963  -30.7252   24.2280 H   0  0  0  0  0  0
  -17.5049  -31.6280   24.5170 H   0  0  0  0  0  0
  -15.5372  -30.3003   23.7670 H   0  0  0  0  0  0
  -15.8677  -28.0843   22.7073 H   0  0  0  0  0  0
  -24.5867  -30.7157   25.7803 H   0  0  0  0  0  0
  -24.8978  -32.2926   26.4967 H   0  0  0  0  0  0
  -25.8032  -30.8867   27.0249 H   0  0  0  0  0  0
  -26.2897  -29.6739   24.1281 H   0  0  0  0  0  0
  -27.4044  -29.7290   25.4739 H   0  0  0  0  0  0
  -27.8775  -30.4266   23.9445 H   0  0  0  0  0  0
  -27.2783  -33.3693   26.1960 H   0  0  0  0  0  0
  -28.3939  -32.6722   25.0298 H   0  0  0  0  0  0
  -28.0708  -31.8481   26.5467 H   0  0  0  0  0  0
  -28.2490  -38.0163   24.7667 H   0  0  0  0  0  0
  -28.1200  -36.2705   24.6022 H   0  0  0  0  0  0
  -27.2348  -37.1103   25.8840 H   0  0  0  0  0  0
  -20.9405  -29.8792   21.6864 H   0  0  0  0  0  0
  -26.0146  -38.2848   24.1579 H   0  0  0  0  0  0
  -27.0812  -20.5085   19.0407 H   0  0  0  0  0  0
  -31.3560  -19.4641   21.1528 H   0  0  0  0  0  0
  -26.9494  -18.2994   18.0917 H   0  0  0  0  0  0
  -27.1983  -17.1966   19.4142 H   0  0  0  0  0  0
  -28.6658  -17.4121   16.8252 H   0  0  0  0  0  0
  -28.2899  -15.9862   17.7430 H   0  0  0  0  0  0
  -30.6765  -17.8151   17.8176 H   0  0  0  0  0  0
  -30.6645  -16.0887   17.9167 H   0  0  0  0  0  0
  -31.3977  -17.2602   20.0335 H   0  0  0  0  0  0
  -27.1341  -24.7671   20.4265 H   0  0  0  0  0  0
  -27.8750  -24.9139   18.8494 H   0  0  0  0  0  0
  -29.3140  -23.8498   21.3588 H   0  0  0  0  0  0
  -29.9418  -23.8248   19.7100 H   0  0  0  0  0  0
  -28.9284  -15.7187   20.6796 H   0  0  0  0  0  0
  1 25  1  0  0  0
  1 30  2  0  0  0
  1 83  1  0  0  0
  2  3  1  0  0  0
  2 25  1  0  0  0
  2 85  1  0  0  0
  2 86  1  0  0  0
  3  4  1  0  0  0
  3 87  1  0  0  0
  3 88  1  0  0  0
  4  5  1  0  0  0
  4 89  1  0  0  0
  4 90  1  0  0  0
  5  6  1  0  0  0
  5 26  1  0  0  0
  5 91  1  0  0  0
  6 25  1  0  0  0
  6 92  1  0  0  0
  6 93  1  0  0  0
  7  8  2  0  0  0
  7 26  1  0  0  0
  7 29  1  0  0  0
  8  9  1  0  0  0
  8 22  1  0  0  0
  9 10  1  0  0  0
  9 27  2  0  0  0
 10 11  2  0  0  0
 10 15  1  0  0  0
 11 12  1  0  0  0
 11 94  1  0  0  0
 12 13  2  0  0  0
 12 95  1  0  0  0
 13 14  1  0  0  0
 13 31  1  0  0  0
 14 15  2  0  0  0
 14 96  1  0  0  0
 15 97  1  0  0  0
 16 17  2  0  0  0
 16 21  1  0  0  0
 16 31  1  0  0  0
 17 18  1  0  0  0
 17 98  1  0  0  0
 18 19  2  0  0  0
 18 99  1  0  0  0
 19 20  1  0  0  0
 19 24  1  0  0  0
 20 21  2  0  0  0
 20100  1  0  0  0
 21 23  1  0  0  0
 22 28  1  0  0  0
 22 32  2  0  0  0
 26 27  1  0  0  0
 28101  1  0  0  0
 28102  1  0  0  0
 29103  1  0  0  0
 29104  1  0  0  0
 33 34  1  0  0  0
 33 66  1  0  0  0
 33 70  2  0  0  0
 34 36  1  0  0  0
 34 59  1  0  0  0
 34105  1  0  0  0
 35 44  2  0  0  0
 35 45  1  0  0  0
 35 68  1  0  0  0
 36 56  1  0  0  0
 36106  1  0  0  0
 37 39  1  0  0  0
 37 47  1  0  0  0
 37 66  1  0  0  0
 37107  1  0  0  0
 38 43  2  0  0  0
 38 46  1  0  0  0
 38 47  1  0  0  0
 39 64  1  0  0  0
 39 67  2  0  0  0
 40 52  1  0  0  0
 40 53  2  0  0  0
 40 58  1  0  0  0
 41108  1  0  0  0
 41109  1  0  0  0
 41110  1  0  0  0
 41 48  1  0  0  0
 42 43  1  0  0  0
 42 66  1  0  0  0
 42111  1  0  0  0
 42112  1  0  0  0
 43 44  1  0  0  0
 44113  1  0  0  0
 45 46  2  0  0  0
 45114  1  0  0  0
 46115  1  0  0  0
 47116  1  0  0  0
 47117  1  0  0  0
 48 56  1  0  0  0
 48 65  1  0  0  0
 48118  1  0  0  0
 49 50  1  0  0  0
 49 53  1  0  0  0
 49 64  1  0  0  0
 49119  1  0  0  0
 50 51  1  0  0  0
 50120  1  0  0  0
 50121  1  0  0  0
 51 52  1  0  0  0
 51122  1  0  0  0
 51123  1  0  0  0
 52124  1  0  0  0
 52125  1  0  0  0
 53 54  1  0  0  0
 54 55  2  0  0  0
 54126  1  0  0  0
 55 57  1  0  0  0
 55127  1  0  0  0
 56 69  2  0  0  0
 57 58  2  0  0  0
 57128  1  0  0  0
 58129  1  0  0  0
 59 60  1  0  0  0
 59 61  1  0  0  0
 59 62  1  0  0  0
 60130  1  0  0  0
 60131  1  0  0  0
 60132  1  0  0  0
 61133  1  0  0  0
 61134  1  0  0  0
 61135  1  0  0  0
 62136  1  0  0  0
 62137  1  0  0  0
 62138  1  0  0  0
 63 65  1  0  0  0
 63139  1  0  0  0
 63140  1  0  0  0
 63141  1  0  0  0
 64142  1  0  0  0
 65143  1  0  0  0
 68 80  1  0  0  0
 71 73  2  0  0  0
 71 75  1  0  0  0
 71144  1  0  0  0
 72 74  2  0  0  0
 72 82  1  0  0  0
 72145  1  0  0  0
 73 74  1  0  0  0
 73 76  1  0  0  0
 74 79  1  0  0  0
 75 82  2  0  0  0
 75 84  1  0  0  0
 76 77  1  0  0  0
 76146  1  0  0  0
 76147  1  0  0  0
 77 78  1  0  0  0
 77148  1  0  0  0
 77149  1  0  0  0
 78 79  1  0  0  0
 78150  1  0  0  0
 78151  1  0  0  0
 79 83  1  0  0  0
 79152  1  0  0  0
 80 81  1  0  0  0
 80153  1  0  0  0
 80154  1  0  0  0
 81 84  1  0  0  0
 81155  1  0  0  0
 81156  1  0  0  0
 83157  1  0  0  0
M  ISO  4   1 100  68 101  80 101  83 100
M  END
> <chiral flag>
0

> <version>
0

> <s_m_source_file>
/data/baiqing/PycharmProjects/Reinvent-master-3.2/result/LINK_invent/BTK/process_docking_weight1_custom_sum_contain_oxygen_bond_distance_aromatic_linkinvent_7_9_3/rearranged_h_0161.sdf

> <i_m_source_file_index>
69

> <r_mmod_Potential_Energy-OPLS-2005>
-33.3392219543457

> <r_mmod_Stretch_Energy-OPLS-2005>
81.7046356201172

> <r_mmod_Bend_Energy-OPLS-2005>
176.497131347656

> <r_mmod_Torsional_Energy-OPLS-2005>
224.911193847656

> <r_mmod_Improper_Torsional_Energy-OPLS-2005>
12.0046758651733

> <r_mmod_Van_der_Waal_Energy-OPLS-2005>
153.122924804688

> <r_mmod_Electrostatic_Energy-OPLS-2005>
-522.263549804688

> <r_mmod_Solvation_Energy-OPLS-2005>
-220.508712768555

> <b_mmod_Minimization_Converged-OPLS-2005>
0

> <r_mmod_RMS_Derivative-OPLS-2005>
2.37223553657532

$$$$
69
                    3D
 Structure written by MMmdl.
170180  0  0  1  0            999 V2000
  -30.5240  -14.9795   20.5181 C   0  0  0  0  0  0
  -30.4241  -12.6092   19.4937 C   0  0  0  0  0  0
  -29.5105  -12.5541   18.2427 C   0  0  0  0  0  0
  -28.0418  -12.3260   18.6512 C   0  0  0  0  0  0
  -27.6211  -13.2372   19.8294 C   0  0  2  0  0  0
  -28.6526  -13.2250   20.9696 C   0  0  0  0  0  0
  -25.2416  -13.8148   20.5648 C   0  0  0  0  0  0
  -24.1744  -13.0431   20.9192 C   0  0  0  0  0  0
  -24.6286  -11.6872   20.8718 C   0  0  0  0  0  0
  -23.8977  -10.4250   21.0331 C   0  0  0  0  0  0
  -24.3569   -9.4192   21.9094 C   0  0  0  0  0  0
  -23.6273   -8.2235   22.0704 C   0  0  0  0  0  0
  -22.4244   -8.0242   21.3542 C   0  0  0  0  0  0
  -21.9860   -9.0172   20.4614 C   0  0  0  0  0  0
  -22.7162  -10.2058   20.2980 C   0  0  0  0  0  0
  -21.6870   -6.0694   22.5260 C   0  0  0  0  0  0
  -21.3977   -6.5600   23.8180 C   0  0  0  0  0  0
  -21.3676   -5.6782   24.9156 C   0  0  0  0  0  0
  -21.6092   -4.3052   24.7229 C   0  0  0  0  0  0
  -21.8822   -3.8130   23.4350 C   0  0  0  0  0  0
  -21.9187   -4.6923   22.3402 C   0  0  0  0  0  0
  -22.7775  -13.5165   21.1955 C   0  0  0  0  0  0
  -22.1663   -4.2118   21.0980 F   0  0  0  0  0  0
  -21.5656   -3.4520   25.7740 F   0  0  0  0  0  0
  -29.9316  -13.7032   20.3982 N   0  0  0  0  0  0
  -26.2793  -12.9364   20.3092 N   0  0  0  0  0  0
  -25.9197  -11.6520   20.5634 N   0  0  0  0  0  0
  -22.0493  -12.8126   22.0489 N   0  0  0  0  0  0
  -25.4108  -15.1892   20.4125 N   0  0  0  0  0  0
  -31.6509  -15.0925   20.0106 O   0  0  0  0  0  0
  -21.6665   -6.8825   21.4214 O   0  0  0  0  0  0
  -22.3465  -14.5501   20.6859 O   0  0  0  0  0  0
  -24.6445  -31.8448   23.1848 C   0  0  0  0  0  0
  -25.9194  -32.4670   23.8250 C   0  0  1  0  0  0
  -27.1979  -27.0475   20.1941 C   0  0  0  0  0  0
  -25.5942  -33.8489   24.2124 N   0  0  0  0  0  0
  -23.4499  -30.4537   21.5360 C   0  0  2  0  0  0
  -24.9004  -28.8669   20.1204 C   0  0  0  0  0  0
  -22.7577  -29.4486   22.4886 C   0  0  0  0  0  0
  -18.0281  -28.1410   22.8500 C   0  0  0  0  0  0
  -24.1481  -36.7193   23.2672 C   0  0  0  0  0  0
  -26.0138  -30.6855   21.4033 C   0  0  0  0  0  0
  -26.0839  -29.2863   20.7480 C   0  0  0  0  0  0
  -27.2384  -28.3977   20.7493 C   0  0  0  0  0  0
  -25.9955  -26.7668   19.5161 C   0  0  0  0  0  0
  -24.8797  -27.6196   19.4797 C   0  0  0  0  0  0
  -23.6769  -29.7724   20.1625 C   0  0  0  0  0  0
  -25.4142  -36.3013   24.0315 C   0  0  1  0  0  0
  -20.5919  -28.3699   23.1249 C   0  0  2  0  0  0
  -20.6752  -26.9394   22.5415 C   0  0  0  0  0  0
  -19.5732  -26.6384   21.5222 C   0  0  0  0  0  0
  -18.1916  -26.7945   22.1658 C   0  0  0  0  0  0
  -19.1556  -28.8890   23.2856 C   0  0  0  0  0  0
  -18.9478  -30.1501   23.8849 C   0  0  0  0  0  0
  -17.6471  -30.6628   24.0569 C   0  0  0  0  0  0
  -25.9122  -34.9417   23.5041 C   0  0  0  0  0  0
  -16.5355  -29.9102   23.6365 C   0  0  0  0  0  0
  -16.7261  -28.6527   23.0359 C   0  0  0  0  0  0
  -26.4496  -31.6552   25.0713 C   0  0  0  0  0  0
  -25.3622  -31.3731   26.1322 C   0  0  0  0  0  0
  -27.0400  -30.2941   24.6393 C   0  0  0  0  0  0
  -27.6043  -32.4309   25.7469 C   0  0  0  0  0  0
  -27.5546  -37.1748   24.8483 C   0  0  0  0  0  0
  -21.4251  -29.2981   22.3613 N   0  0  0  0  0  0
  -26.4278  -37.3749   23.9416 N   0  0  0  0  0  0
  -24.7230  -31.0161   22.0951 N   0  0  0  0  0  0
  -23.4186  -28.8060   23.3110 O   0  0  0  0  0  0
  -28.2393  -26.0350   20.0918 O   0  0  0  0  0  0
  -26.5733  -34.8915   22.4639 O   0  0  0  0  0  0
  -23.5541  -32.1367   23.7000 O   0  0  0  0  0  0
  -26.4301  -21.3516   21.4753 C   0  0  0  0  0  0
  -28.9867  -21.8232   20.6800 C   0  0  0  0  0  0
  -28.6376  -20.4362   21.0725 C   0  0  0  0  0  0
  -27.3321  -20.2591   21.5513 C   0  0  0  0  0  0
  -26.7701  -22.6788   21.0835 C   0  0  0  0  0  0
  -28.1036  -23.0596   20.7428 C   0  0  0  0  0  0
  -30.4677  -21.7127   20.3233 C   0  0  0  0  0  0
  -30.8105  -20.1554   20.2563 C   0  0  0  0  0  0
  -31.3473  -16.1825   23.1543 C   0  0  0  0  0  0
  -31.5694  -17.4137   22.2771 C   0  0  0  0  0  0
  -30.0265  -15.5769   22.6388 C   0  0  0  0  0  0
  -30.1949  -17.6589   21.6015 C   0  0  1  0  0  0
  -29.8990  -19.4077   21.2803 C   0  0  1  0  0  0
  -26.9057  -18.9752   22.2541 C   0  0  0  0  0  0
  -25.6482  -23.7073   21.1982 C   0  0  0  0  0  0
  -30.2839  -19.9853   22.7019 C   0  0  0  0  0  0
  -28.4869  -24.7072   20.9250 C   0  0  0  0  0  0
  -29.8898  -16.0776   21.2329 N   0  0  0  0  0  0
  -31.4648  -12.7483   19.2007 H   0  0  0  0  0  0
  -30.3835  -11.6489   20.0131 H   0  0  0  0  0  0
  -29.8339  -11.7533   17.5776 H   0  0  0  0  0  0
  -29.5964  -13.4840   17.6743 H   0  0  0  0  0  0
  -27.9437  -11.2756   18.9363 H   0  0  0  0  0  0
  -27.3719  -12.4712   17.7983 H   0  0  0  0  0  0
  -27.5982  -14.2543   19.4345 H   0  0  0  0  0  0
  -28.7578  -12.2188   21.3803 H   0  0  0  0  0  0
  -28.2835  -13.8455   21.7842 H   0  0  0  0  0  0
  -25.2694   -9.5772   22.4657 H   0  0  0  0  0  0
  -24.0039   -7.4657   22.7393 H   0  0  0  0  0  0
  -21.0829   -8.8644   19.8902 H   0  0  0  0  0  0
  -22.3565  -10.9573   19.6126 H   0  0  0  0  0  0
  -21.1941   -7.6101   23.9693 H   0  0  0  0  0  0
  -21.1500   -6.0482   25.9071 H   0  0  0  0  0  0
  -22.0598   -2.7569   23.2855 H   0  0  0  0  0  0
  -22.4172  -11.9796   22.4873 H   0  0  0  0  0  0
  -21.1073  -13.1013   22.2668 H   0  0  0  0  0  0
  -24.6506  -15.8386   20.5485 H   0  0  0  0  0  0
  -26.2671  -15.6362   20.1166 H   0  0  0  0  0  0
  -26.7209  -32.5195   23.0920 H   0  0  0  0  0  0
  -24.9875  -33.9579   25.0119 H   0  0  0  0  0  0
  -22.7556  -31.2785   21.3699 H   0  0  0  0  0  0
  -23.3779  -35.9495   23.3368 H   0  0  0  0  0  0
  -24.3546  -36.8811   22.2083 H   0  0  0  0  0  0
  -23.7182  -37.6384   23.6681 H   0  0  0  0  0  0
  -26.1730  -31.4414   20.6347 H   0  0  0  0  0  0
  -26.8870  -30.7422   22.0426 H   0  0  0  0  0  0
  -28.1574  -28.7240   21.2060 H   0  0  0  0  0  0
  -25.9145  -25.8316   18.9881 H   0  0  0  0  0  0
  -24.0017  -27.2887   18.9431 H   0  0  0  0  0  0
  -23.7892  -30.5437   19.3972 H   0  0  0  0  0  0
  -22.7991  -29.1976   19.8690 H   0  0  0  0  0  0
  -25.1327  -36.1864   25.0807 H   0  0  0  0  0  0
  -20.9954  -28.3272   24.1421 H   0  0  0  0  0  0
  -20.5676  -26.2304   23.3644 H   0  0  0  0  0  0
  -21.6613  -26.7408   22.1239 H   0  0  0  0  0  0
  -19.6904  -25.6304   21.1256 H   0  0  0  0  0  0
  -19.6688  -27.3194   20.6769 H   0  0  0  0  0  0
  -17.4167  -26.6649   21.4066 H   0  0  0  0  0  0
  -18.0343  -26.0099   22.9099 H   0  0  0  0  0  0
  -19.7967  -30.7329   24.2172 H   0  0  0  0  0  0
  -17.5043  -31.6309   24.5177 H   0  0  0  0  0  0
  -15.5377  -30.3004   23.7758 H   0  0  0  0  0  0
  -15.8628  -28.0861   22.7085 H   0  0  0  0  0  0
  -24.5854  -30.7055   25.7514 H   0  0  0  0  0  0
  -24.8721  -32.2898   26.4611 H   0  0  0  0  0  0
  -25.7821  -30.8935   27.0172 H   0  0  0  0  0  0
  -26.3081  -29.6590   24.1364 H   0  0  0  0  0  0
  -27.3917  -29.7284   25.5029 H   0  0  0  0  0  0
  -27.9013  -30.4136   23.9817 H   0  0  0  0  0  0
  -27.2721  -33.3678   26.1940 H   0  0  0  0  0  0
  -28.3915  -32.6763   25.0322 H   0  0  0  0  0  0
  -28.0644  -31.8483   26.5448 H   0  0  0  0  0  0
  -28.2597  -38.0006   24.7528 H   0  0  0  0  0  0
  -28.0998  -36.2547   24.6345 H   0  0  0  0  0  0
  -27.2254  -37.1437   25.8883 H   0  0  0  0  0  0
  -20.9443  -29.8613   21.6734 H   0  0  0  0  0  0
  -26.0144  -38.2810   24.1468 H   0  0  0  0  0  0
  -25.4349  -21.2080   21.8680 H   0  0  0  0  0  0
  -31.0599  -22.1917   21.1102 H   0  0  0  0  0  0
  -30.7066  -22.2133   19.3852 H   0  0  0  0  0  0
  -31.8718  -19.9579   20.3866 H   0  0  0  0  0  0
  -30.5614  -19.7964   19.2513 H   0  0  0  0  0  0
  -31.2762  -16.4271   24.2129 H   0  0  0  0  0  0
  -32.1940  -15.5020   23.0377 H   0  0  0  0  0  0
  -32.3134  -17.2119   21.5007 H   0  0  0  0  0  0
  -31.9891  -18.1894   22.9057 H   0  0  0  0  0  0
  -29.1746  -15.8875   23.2489 H   0  0  0  0  0  0
  -30.0610  -14.5014   22.8275 H   0  0  0  0  0  0
  -29.4485  -17.7200   22.3892 H   0  0  0  0  0  0
  -27.5059  -18.8573   23.1569 H   0  0  0  0  0  0
  -27.0598  -18.0846   21.6390 H   0  0  0  0  0  0
  -25.8609  -18.9982   22.5815 H   0  0  0  0  0  0
  -24.6963  -23.2144   21.4169 H   0  0  0  0  0  0
  -25.4942  -24.2428   20.2653 H   0  0  0  0  0  0
  -25.8428  -24.4196   22.0051 H   0  0  0  0  0  0
  -29.8583  -20.9589   22.9545 H   0  0  0  0  0  0
  -31.3476  -20.1429   22.8158 H   0  0  0  0  0  0
  -29.9537  -19.3616   23.5378 H   0  0  0  0  0  0
  -29.5643  -24.7083   21.1067 H   0  0  0  0  0  0
  -28.0689  -24.9655   21.8966 H   0  0  0  0  0  0
  1 25  1  0  0  0
  1 30  2  0  0  0
  1 88  1  0  0  0
  2  3  1  0  0  0
  2 25  1  0  0  0
  2 89  1  0  0  0
  2 90  1  0  0  0
  3  4  1  0  0  0
  3 91  1  0  0  0
  3 92  1  0  0  0
  4  5  1  0  0  0
  4 93  1  0  0  0
  4 94  1  0  0  0
  5  6  1  0  0  0
  5 26  1  0  0  0
  5 95  1  0  0  0
  6 25  1  0  0  0
  6 96  1  0  0  0
  6 97  1  0  0  0
  7  8  2  0  0  0
  7 26  1  0  0  0
  7 29  1  0  0  0
  8  9  1  0  0  0
  8 22  1  0  0  0
  9 10  1  0  0  0
  9 27  2  0  0  0
 10 11  2  0  0  0
 10 15  1  0  0  0
 11 12  1  0  0  0
 11 98  1  0  0  0
 12 13  2  0  0  0
 12 99  1  0  0  0
 13 14  1  0  0  0
 13 31  1  0  0  0
 14 15  2  0  0  0
 14100  1  0  0  0
 15101  1  0  0  0
 16 17  2  0  0  0
 16 21  1  0  0  0
 16 31  1  0  0  0
 17 18  1  0  0  0
 17102  1  0  0  0
 18 19  2  0  0  0
 18103  1  0  0  0
 19 20  1  0  0  0
 19 24  1  0  0  0
 20 21  2  0  0  0
 20104  1  0  0  0
 21 23  1  0  0  0
 22 28  1  0  0  0
 22 32  2  0  0  0
 26 27  1  0  0  0
 28105  1  0  0  0
 28106  1  0  0  0
 29107  1  0  0  0
 29108  1  0  0  0
 33 34  1  0  0  0
 33 66  1  0  0  0
 33 70  2  0  0  0
 34 36  1  0  0  0
 34 59  1  0  0  0
 34109  1  0  0  0
 35 44  2  0  0  0
 35 45  1  0  0  0
 35 68  1  0  0  0
 36 56  1  0  0  0
 36110  1  0  0  0
 37 39  1  0  0  0
 37 47  1  0  0  0
 37 66  1  0  0  0
 37111  1  0  0  0
 38 43  2  0  0  0
 38 46  1  0  0  0
 38 47  1  0  0  0
 39 64  1  0  0  0
 39 67  2  0  0  0
 40 52  1  0  0  0
 40 53  2  0  0  0
 40 58  1  0  0  0
 41112  1  0  0  0
 41113  1  0  0  0
 41114  1  0  0  0
 41 48  1  0  0  0
 42 43  1  0  0  0
 42 66  1  0  0  0
 42115  1  0  0  0
 42116  1  0  0  0
 43 44  1  0  0  0
 44117  1  0  0  0
 45 46  2  0  0  0
 45118  1  0  0  0
 46119  1  0  0  0
 47120  1  0  0  0
 47121  1  0  0  0
 48 56  1  0  0  0
 48 65  1  0  0  0
 48122  1  0  0  0
 49 50  1  0  0  0
 49 53  1  0  0  0
 49 64  1  0  0  0
 49123  1  0  0  0
 50 51  1  0  0  0
 50124  1  0  0  0
 50125  1  0  0  0
 51 52  1  0  0  0
 51126  1  0  0  0
 51127  1  0  0  0
 52128  1  0  0  0
 52129  1  0  0  0
 53 54  1  0  0  0
 54 55  2  0  0  0
 54130  1  0  0  0
 55 57  1  0  0  0
 55131  1  0  0  0
 56 69  2  0  0  0
 57 58  2  0  0  0
 57132  1  0  0  0
 58133  1  0  0  0
 59 60  1  0  0  0
 59 61  1  0  0  0
 59 62  1  0  0  0
 60134  1  0  0  0
 60135  1  0  0  0
 60136  1  0  0  0
 61137  1  0  0  0
 61138  1  0  0  0
 61139  1  0  0  0
 62140  1  0  0  0
 62141  1  0  0  0
 62142  1  0  0  0
 63 65  1  0  0  0
 63143  1  0  0  0
 63144  1  0  0  0
 63145  1  0  0  0
 64146  1  0  0  0
 65147  1  0  0  0
 68 87  1  0  0  0
 71 74  2  0  0  0
 71 75  1  0  0  0
 71148  1  0  0  0
 72 73  2  0  0  0
 72 76  1  0  0  0
 72 77  1  0  0  0
 73 74  1  0  0  0
 73 83  1  0  0  0
 74 84  1  0  0  0
 75 76  2  0  0  0
 75 85  1  0  0  0
 76 87  1  0  0  0
 77 78  1  0  0  0
 77149  1  0  0  0
 77150  1  0  0  0
 78 83  1  0  0  0
 78151  1  0  0  0
 78152  1  0  0  0
 79 80  1  0  0  0
 79 81  1  0  0  0
 79153  1  0  0  0
 79154  1  0  0  0
 80155  1  0  0  0
 80156  1  0  0  0
 80 82  1  0  0  0
 81 88  1  0  0  0
 81157  1  0  0  0
 81158  1  0  0  0
 82 83  1  0  0  0
 82 88  1  0  0  0
 82159  1  0  0  0
 83 86  1  0  0  0
 84160  1  0  0  0
 84161  1  0  0  0
 84162  1  0  0  0
 85163  1  0  0  0
 85164  1  0  0  0
 85165  1  0  0  0
 86166  1  0  0  0
 86167  1  0  0  0
 86168  1  0  0  0
 87169  1  0  0  0
 87170  1  0  0  0
M  ISO  4   1 100  68 101  87 101  88 100
M  END
> <chiral flag>
0

> <version>
0

> <s_m_source_file>
/data/baiqing/PycharmProjects/Reinvent-master-3.2/result/LINK_invent/BTK/process_docking_weight1_custom_sum_contain_oxygen_bond_distance_aromatic_linkinvent_7_9_3/rearranged_h_0161.sdf

> <i_m_source_file_index>
70

> <r_mmod_Potential_Energy-OPLS-2005>
1530.97705078125

> <r_mmod_Stretch_Energy-OPLS-2005>
423.833343505859

> <r_mmod_Bend_Energy-OPLS-2005>
755.645812988281

> <r_mmod_Torsional_Energy-OPLS-2005>
411.152893066406

> <r_mmod_Improper_Torsional_Energy-OPLS-2005>
18.2973403930664

> <r_mmod_Van_der_Waal_Energy-OPLS-2005>
179.202575683594

> <r_mmod_Electrostatic_Energy-OPLS-2005>
-300.229095458984

> <r_mmod_Solvation_Energy-OPLS-2005>
-188.373596191406

> <b_mmod_Minimization_Converged-OPLS-2005>
0

> <r_mmod_RMS_Derivative-OPLS-2005>
10.7827634811401

$$$$
70
                    3D
 Structure written by MMmdl.
169178  0  0  1  0            999 V2000
  -30.6901  -14.7398   20.4497 C   0  0  0  0  0  0
  -30.4094  -12.4575   19.4775 C   0  0  0  0  0  0
  -29.4957  -12.4889   18.2369 C   0  0  0  0  0  0
  -28.0298  -12.2960   18.6606 C   0  0  0  0  0  0
  -27.6280  -13.2173   19.8402 C   0  0  2  0  0  0
  -28.6783  -13.2372   20.9750 C   0  0  0  0  0  0
  -25.2498  -13.8154   20.5744 C   0  0  0  0  0  0
  -24.1775  -13.0419   20.9233 C   0  0  0  0  0  0
  -24.6351  -11.6891   20.8785 C   0  0  0  0  0  0
  -23.9032  -10.4278   21.0431 C   0  0  0  0  0  0
  -24.3597   -9.4193   21.9199 C   0  0  0  0  0  0
  -23.6280   -8.2226   22.0757 C   0  0  0  0  0  0
  -22.4263   -8.0268   21.3542 C   0  0  0  0  0  0
  -21.9895   -9.0240   20.4646 C   0  0  0  0  0  0
  -22.7216  -10.2124   20.3066 C   0  0  0  0  0  0
  -21.6845   -6.0729   22.5280 C   0  0  0  0  0  0
  -21.4007   -6.5638   23.8212 C   0  0  0  0  0  0
  -21.3658   -5.6793   24.9175 C   0  0  0  0  0  0
  -21.6045   -4.3055   24.7227 C   0  0  0  0  0  0
  -21.8820   -3.8145   23.4348 C   0  0  0  0  0  0
  -21.9189   -4.6960   22.3403 C   0  0  0  0  0  0
  -22.7804  -13.5219   21.1877 C   0  0  0  0  0  0
  -22.1658   -4.2146   21.0981 F   0  0  0  0  0  0
  -21.5629   -3.4539   25.7740 F   0  0  0  0  0  0
  -29.9782  -13.5592   20.3751 N   0  0  0  0  0  0
  -26.2879  -12.9313   20.3311 N   0  0  0  0  0  0
  -25.9273  -11.6478   20.5802 N   0  0  0  0  0  0
  -22.0448  -12.8213   22.0429 N   0  0  0  0  0  0
  -25.4237  -15.1880   20.4192 N   0  0  0  0  0  0
  -31.8877  -14.7134   20.1499 O   0  0  0  0  0  0
  -21.6628   -6.8866   21.4238 O   0  0  0  0  0  0
  -22.3499  -14.5525   20.6717 O   0  0  0  0  0  0
  -24.6298  -31.8562   23.2004 C   0  0  0  0  0  0
  -25.9130  -32.4760   23.8346 C   0  0  1  0  0  0
  -27.2153  -27.2826   20.1367 C   0  0  0  0  0  0
  -25.5935  -33.8563   24.2268 N   0  0  0  0  0  0
  -23.4271  -30.4788   21.5420 C   0  0  2  0  0  0
  -24.8782  -28.9336   20.1036 C   0  0  0  0  0  0
  -22.7508  -29.4595   22.4911 C   0  0  0  0  0  0
  -18.0294  -28.1381   22.8491 C   0  0  0  0  0  0
  -24.1486  -36.7287   23.2640 C   0  0  0  0  0  0
  -25.9713  -30.7755   21.3800 C   0  0  0  0  0  0
  -26.0464  -29.4005   20.7221 C   0  0  0  0  0  0
  -27.2216  -28.5847   20.7345 C   0  0  0  0  0  0
  -26.0417  -26.8919   19.4605 C   0  0  0  0  0  0
  -24.8795  -27.6862   19.4602 C   0  0  0  0  0  0
  -23.6456  -29.8153   20.1563 C   0  0  0  0  0  0
  -25.4112  -36.3073   24.0328 C   0  0  1  0  0  0
  -20.5902  -28.3689   23.1273 C   0  0  2  0  0  0
  -20.6782  -26.9406   22.5409 C   0  0  0  0  0  0
  -19.5752  -26.6376   21.5215 C   0  0  0  0  0  0
  -18.1932  -26.7924   22.1627 C   0  0  0  0  0  0
  -19.1550  -28.8854   23.2876 C   0  0  0  0  0  0
  -18.9468  -30.1458   23.8888 C   0  0  0  0  0  0
  -17.6466  -30.6582   24.0561 C   0  0  0  0  0  0
  -25.9053  -34.9443   23.5097 C   0  0  0  0  0  0
  -16.5358  -29.9079   23.6331 C   0  0  0  0  0  0
  -16.7280  -28.6496   23.0354 C   0  0  0  0  0  0
  -26.4501  -31.6581   25.0730 C   0  0  0  0  0  0
  -25.3725  -31.3733   26.1452 C   0  0  0  0  0  0
  -27.0348  -30.2996   24.6213 C   0  0  0  0  0  0
  -27.6052  -32.4327   25.7504 C   0  0  0  0  0  0
  -27.5574  -37.1800   24.8465 C   0  0  0  0  0  0
  -21.4214  -29.3038   22.3662 N   0  0  0  0  0  0
  -26.4285  -37.3773   23.9409 N   0  0  0  0  0  0
  -24.6945  -31.0544   22.0972 N   0  0  0  0  0  0
  -23.4213  -28.8135   23.3006 O   0  0  0  0  0  0
  -28.2557  -26.3338   20.2120 O   0  0  0  0  0  0
  -26.5618  -34.8916   22.4662 O   0  0  0  0  0  0
  -23.5450  -32.1375   23.7306 O   0  0  0  0  0  0
  -28.7449  -22.8074   21.9791 C   0  0  0  0  0  0
  -29.2497  -20.7339   20.6670 C   0  0  0  0  0  0
  -29.0274  -21.4090   21.9118 C   0  0  0  0  0  0
  -28.5844  -23.6686   20.8620 C   0  0  0  0  0  0
  -29.0888  -21.5969   19.5129 C   0  0  0  0  0  0
  -28.7615  -23.0151   19.6062 C   0  0  0  0  0  0
  -30.4113  -18.4287   21.7048 C   0  0  0  0  0  0
  -28.6539  -18.1160   20.0955 C   0  0  0  0  0  0
  -31.0065  -17.0148   21.3375 C   0  0  0  0  0  0
  -29.2568  -16.6914   19.7239 C   0  0  0  0  0  0
  -29.7053  -19.1798   20.5332 C   0  0  0  0  0  0
  -29.0363  -20.6830   23.2463 C   0  0  0  0  0  0
  -29.2518  -21.0056   18.1124 C   0  0  0  0  0  0
  -28.5769  -23.8743   18.3590 C   0  0  0  0  0  0
  -26.7071  -25.1059   21.8471 C   0  0  0  0  0  0
  -28.0974  -25.1729   21.1610 C   0  0  2  0  0  0
  -30.0984  -15.9800   20.7402 N   0  0  0  0  0  0
  -31.4521  -12.5425   19.1673 H   0  0  0  0  0  0
  -30.3334  -11.4976   19.9907 H   0  0  0  0  0  0
  -29.7861  -11.7085   17.5323 H   0  0  0  0  0  0
  -29.6106  -13.4383   17.7116 H   0  0  0  0  0  0
  -27.9071  -11.2517   18.9501 H   0  0  0  0  0  0
  -27.3649  -12.4562   17.8111 H   0  0  0  0  0  0
  -27.5792  -14.2046   19.4009 H   0  0  0  0  0  0
  -28.7212  -12.2756   21.4880 H   0  0  0  0  0  0
  -28.4107  -13.9815   21.7270 H   0  0  0  0  0  0
  -25.2740   -9.5672   22.4776 H   0  0  0  0  0  0
  -23.9991   -7.4613   22.7471 H   0  0  0  0  0  0
  -21.0827   -8.8758   19.8949 H   0  0  0  0  0  0
  -22.3676  -10.9666   19.6177 H   0  0  0  0  0  0
  -21.2000   -7.6148   23.9713 H   0  0  0  0  0  0
  -21.1478   -6.0524   25.9077 H   0  0  0  0  0  0
  -22.0602   -2.7607   23.2849 H   0  0  0  0  0  0
  -22.4063  -11.9873   22.4814 H   0  0  0  0  0  0
  -21.1067  -13.1241   22.2637 H   0  0  0  0  0  0
  -24.6648  -15.8484   20.5478 H   0  0  0  0  0  0
  -26.2906  -15.6296   20.1420 H   0  0  0  0  0  0
  -26.7199  -32.5420   23.1094 H   0  0  0  0  0  0
  -25.0102  -33.9703   25.0427 H   0  0  0  0  0  0
  -22.7220  -31.3001   21.3971 H   0  0  0  0  0  0
  -23.3747  -35.9621   23.3304 H   0  0  0  0  0  0
  -24.3574  -36.8905   22.2054 H   0  0  0  0  0  0
  -23.7240  -37.6491   23.6661 H   0  0  0  0  0  0
  -26.1091  -31.5364   20.6105 H   0  0  0  0  0  0
  -26.8490  -30.8241   22.0129 H   0  0  0  0  0  0
  -28.1097  -28.9259   21.2479 H   0  0  0  0  0  0
  -26.0069  -25.9254   18.9788 H   0  0  0  0  0  0
  -23.9879  -27.3249   18.9667 H   0  0  0  0  0  0
  -23.7661  -30.5931   19.4012 H   0  0  0  0  0  0
  -22.7656  -29.2456   19.8519 H   0  0  0  0  0  0
  -25.1294  -36.1921   25.0820 H   0  0  0  0  0  0
  -20.9997  -28.3260   24.1393 H   0  0  0  0  0  0
  -20.5682  -26.2298   23.3614 H   0  0  0  0  0  0
  -21.6648  -26.7424   22.1200 H   0  0  0  0  0  0
  -19.6911  -25.6285   21.1246 H   0  0  0  0  0  0
  -19.6687  -27.3187   20.6745 H   0  0  0  0  0  0
  -17.4205  -26.6681   21.4026 H   0  0  0  0  0  0
  -18.0323  -26.0062   22.9018 H   0  0  0  0  0  0
  -19.7943  -30.7283   24.2246 H   0  0  0  0  0  0
  -17.5015  -31.6262   24.5164 H   0  0  0  0  0  0
  -15.5357  -30.2975   23.7655 H   0  0  0  0  0  0
  -15.8680  -28.0808   22.7073 H   0  0  0  0  0  0
  -24.5908  -30.7068   25.7784 H   0  0  0  0  0  0
  -24.8910  -32.2904   26.4855 H   0  0  0  0  0  0
  -25.8048  -30.8931   27.0239 H   0  0  0  0  0  0
  -26.2932  -29.6744   24.1226 H   0  0  0  0  0  0
  -27.4016  -29.7261   25.4735 H   0  0  0  0  0  0
  -27.8818  -30.4270   23.9469 H   0  0  0  0  0  0
  -27.2653  -33.3632   26.2064 H   0  0  0  0  0  0
  -28.3872  -32.6878   25.0338 H   0  0  0  0  0  0
  -28.0708  -31.8464   26.5436 H   0  0  0  0  0  0
  -28.2597  -38.0091   24.7507 H   0  0  0  0  0  0
  -28.1063  -36.2625   24.6296 H   0  0  0  0  0  0
  -27.2294  -37.1457   25.8868 H   0  0  0  0  0  0
  -20.9393  -29.8764   21.6874 H   0  0  0  0  0  0
  -26.0164  -38.2848   24.1407 H   0  0  0  0  0  0
  -28.6032  -23.2450   22.9572 H   0  0  0  0  0  0
  -31.2246  -19.0478   22.0851 H   0  0  0  0  0  0
  -29.7237  -18.2660   22.5314 H   0  0  0  0  0  0
  -27.9082  -18.0024   20.8837 H   0  0  0  0  0  0
  -28.0987  -18.4865   19.2340 H   0  0  0  0  0  0
  -31.4572  -16.5913   22.2373 H   0  0  0  0  0  0
  -31.8356  -17.1867   20.6478 H   0  0  0  0  0  0
  -29.8618  -16.8029   18.8220 H   0  0  0  0  0  0
  -28.4288  -16.0609   19.4294 H   0  0  0  0  0  0
  -30.4755  -19.2075   19.7630 H   0  0  0  0  0  0
  -28.6544  -21.3128   24.0503 H   0  0  0  0  0  0
  -30.0453  -20.3897   23.5329 H   0  0  0  0  0  0
  -28.3842  -19.8111   23.2126 H   0  0  0  0  0  0
  -29.3910  -19.9301   18.0752 H   0  0  0  0  0  0
  -30.1107  -21.4530   17.6115 H   0  0  0  0  0  0
  -28.3618  -21.2051   17.5153 H   0  0  0  0  0  0
  -27.5333  -24.1741   18.2661 H   0  0  0  0  0  0
  -28.8651  -23.3988   17.4250 H   0  0  0  0  0  0
  -29.1820  -24.7773   18.4352 H   0  0  0  0  0  0
  -26.7026  -24.4218   22.6943 H   0  0  0  0  0  0
  -25.9405  -24.7524   21.1584 H   0  0  0  0  0  0
  -26.3915  -26.0673   22.2528 H   0  0  0  0  0  0
  -28.7751  -25.4794   21.9588 H   0  0  0  0  0  0
  1 25  1  0  0  0
  1 30  2  0  0  0
  1 87  1  0  0  0
  2  3  1  0  0  0
  2 25  1  0  0  0
  2 88  1  0  0  0
  2 89  1  0  0  0
  3  4  1  0  0  0
  3 90  1  0  0  0
  3 91  1  0  0  0
  4  5  1  0  0  0
  4 92  1  0  0  0
  4 93  1  0  0  0
  5  6  1  0  0  0
  5 26  1  0  0  0
  5 94  1  0  0  0
  6 25  1  0  0  0
  6 95  1  0  0  0
  6 96  1  0  0  0
  7  8  2  0  0  0
  7 26  1  0  0  0
  7 29  1  0  0  0
  8  9  1  0  0  0
  8 22  1  0  0  0
  9 10  1  0  0  0
  9 27  2  0  0  0
 10 11  2  0  0  0
 10 15  1  0  0  0
 11 12  1  0  0  0
 11 97  1  0  0  0
 12 13  2  0  0  0
 12 98  1  0  0  0
 13 14  1  0  0  0
 13 31  1  0  0  0
 14 15  2  0  0  0
 14 99  1  0  0  0
 15100  1  0  0  0
 16 17  2  0  0  0
 16 21  1  0  0  0
 16 31  1  0  0  0
 17 18  1  0  0  0
 17101  1  0  0  0
 18 19  2  0  0  0
 18102  1  0  0  0
 19 20  1  0  0  0
 19 24  1  0  0  0
 20 21  2  0  0  0
 20103  1  0  0  0
 21 23  1  0  0  0
 22 28  1  0  0  0
 22 32  2  0  0  0
 26 27  1  0  0  0
 28104  1  0  0  0
 28105  1  0  0  0
 29106  1  0  0  0
 29107  1  0  0  0
 33 34  1  0  0  0
 33 66  1  0  0  0
 33 70  2  0  0  0
 34 36  1  0  0  0
 34 59  1  0  0  0
 34108  1  0  0  0
 35 44  2  0  0  0
 35 45  1  0  0  0
 35 68  1  0  0  0
 36 56  1  0  0  0
 36109  1  0  0  0
 37 39  1  0  0  0
 37 47  1  0  0  0
 37 66  1  0  0  0
 37110  1  0  0  0
 38 43  2  0  0  0
 38 46  1  0  0  0
 38 47  1  0  0  0
 39 64  1  0  0  0
 39 67  2  0  0  0
 40 52  1  0  0  0
 40 53  2  0  0  0
 40 58  1  0  0  0
 41111  1  0  0  0
 41112  1  0  0  0
 41113  1  0  0  0
 41 48  1  0  0  0
 42 43  1  0  0  0
 42 66  1  0  0  0
 42114  1  0  0  0
 42115  1  0  0  0
 43 44  1  0  0  0
 44116  1  0  0  0
 45 46  2  0  0  0
 45117  1  0  0  0
 46118  1  0  0  0
 47119  1  0  0  0
 47120  1  0  0  0
 48 56  1  0  0  0
 48 65  1  0  0  0
 48121  1  0  0  0
 49 50  1  0  0  0
 49 53  1  0  0  0
 49 64  1  0  0  0
 49122  1  0  0  0
 50 51  1  0  0  0
 50123  1  0  0  0
 50124  1  0  0  0
 51 52  1  0  0  0
 51125  1  0  0  0
 51126  1  0  0  0
 52127  1  0  0  0
 52128  1  0  0  0
 53 54  1  0  0  0
 54 55  2  0  0  0
 54129  1  0  0  0
 55 57  1  0  0  0
 55130  1  0  0  0
 56 69  2  0  0  0
 57 58  2  0  0  0
 57131  1  0  0  0
 58132  1  0  0  0
 59 60  1  0  0  0
 59 61  1  0  0  0
 59 62  1  0  0  0
 60133  1  0  0  0
 60134  1  0  0  0
 60135  1  0  0  0
 61136  1  0  0  0
 61137  1  0  0  0
 61138  1  0  0  0
 62139  1  0  0  0
 62140  1  0  0  0
 62141  1  0  0  0
 63 65  1  0  0  0
 63142  1  0  0  0
 63143  1  0  0  0
 63144  1  0  0  0
 64145  1  0  0  0
 65146  1  0  0  0
 68 86  1  0  0  0
 71 73  2  0  0  0
 71 74  1  0  0  0
 71147  1  0  0  0
 72 73  1  0  0  0
 72 75  2  0  0  0
 72 81  1  0  0  0
 73 82  1  0  0  0
 74 76  2  0  0  0
 74 86  1  0  0  0
 75 76  1  0  0  0
 75 83  1  0  0  0
 76 84  1  0  0  0
 77 79  1  0  0  0
 77 81  1  0  0  0
 77148  1  0  0  0
 77149  1  0  0  0
 78 80  1  0  0  0
 78 81  1  0  0  0
 78150  1  0  0  0
 78151  1  0  0  0
 79 87  1  0  0  0
 79152  1  0  0  0
 79153  1  0  0  0
 80 87  1  0  0  0
 80154  1  0  0  0
 80155  1  0  0  0
 81156  1  0  0  0
 82157  1  0  0  0
 82158  1  0  0  0
 82159  1  0  0  0
 83160  1  0  0  0
 83161  1  0  0  0
 83162  1  0  0  0
 84163  1  0  0  0
 84164  1  0  0  0
 84165  1  0  0  0
 85166  1  0  0  0
 85167  1  0  0  0
 85168  1  0  0  0
 85 86  1  0  0  0
 86169  1  0  0  0
M  ISO  4   1 100  68 101  86 101  87 100
M  END
> <chiral flag>
0

> <version>
0

> <s_m_source_file>
/data/baiqing/PycharmProjects/Reinvent-master-3.2/result/LINK_invent/BTK/process_docking_weight1_custom_sum_contain_oxygen_bond_distance_aromatic_linkinvent_7_9_3/rearranged_h_0161.sdf

> <i_m_source_file_index>
71

> <r_mmod_Potential_Energy-OPLS-2005>
477.263061523438

> <r_mmod_Stretch_Energy-OPLS-2005>
130.000015258789

> <r_mmod_Bend_Energy-OPLS-2005>
225.125183105469

> <r_mmod_Torsional_Energy-OPLS-2005>
354.086090087891

> <r_mmod_Improper_Torsional_Energy-OPLS-2005>
7.57333040237427

> <r_mmod_Van_der_Waal_Energy-OPLS-2005>
168.830383300781

> <r_mmod_Electrostatic_Energy-OPLS-2005>
-311.704010009766

> <r_mmod_Solvation_Energy-OPLS-2005>
-189.3369140625

> <b_mmod_Minimization_Converged-OPLS-2005>
0

> <r_mmod_RMS_Derivative-OPLS-2005>
0.546153128147125

$$$$
71
                    3D
 Structure written by MMmdl.
175184  0  0  1  0            999 V2000
  -30.4863  -15.0331   20.4309 C   0  0  0  0  0  0
  -30.4555  -12.6493   19.5061 C   0  0  0  0  0  0
  -29.5380  -12.5798   18.2607 C   0  0  0  0  0  0
  -28.0722  -12.3385   18.6670 C   0  0  0  0  0  0
  -27.6359  -13.2485   19.8439 C   0  0  2  0  0  0
  -28.6777  -13.2815   20.9845 C   0  0  0  0  0  0
  -25.2407  -13.7934   20.5473 C   0  0  0  0  0  0
  -24.1778  -13.0254   20.9217 C   0  0  0  0  0  0
  -24.6465  -11.6781   20.8794 C   0  0  0  0  0  0
  -23.9122  -10.4194   21.0423 C   0  0  0  0  0  0
  -24.3639   -9.4118   21.9222 C   0  0  0  0  0  0
  -23.6285   -8.2171   22.0768 C   0  0  0  0  0  0
  -22.4270   -8.0244   21.3546 C   0  0  0  0  0  0
  -21.9931   -9.0228   20.4649 C   0  0  0  0  0  0
  -22.7283  -10.2094   20.3062 C   0  0  0  0  0  0
  -21.6830   -6.0734   22.5292 C   0  0  0  0  0  0
  -21.4000   -6.5638   23.8227 C   0  0  0  0  0  0
  -21.3647   -5.6787   24.9182 C   0  0  0  0  0  0
  -21.6046   -4.3052   24.7230 C   0  0  0  0  0  0
  -21.8818   -3.8149   23.4350 C   0  0  0  0  0  0
  -21.9190   -4.6969   22.3414 C   0  0  0  0  0  0
  -22.7809  -13.5098   21.1864 C   0  0  0  0  0  0
  -22.1643   -4.2154   21.0993 F   0  0  0  0  0  0
  -21.5641   -3.4537   25.7751 F   0  0  0  0  0  0
  -29.9493  -13.7361   20.4014 N   0  0  0  0  0  0
  -26.2942  -12.9292   20.3201 N   0  0  0  0  0  0
  -25.9432  -11.6430   20.5798 N   0  0  0  0  0  0
  -22.0406  -12.8142   22.0425 N   0  0  0  0  0  0
  -25.3868  -15.1504   20.3470 N   0  0  0  0  0  0
  -31.6690  -15.1495   20.0899 O   0  0  0  0  0  0
  -21.6602   -6.8872   21.4251 O   0  0  0  0  0  0
  -22.3541  -14.5420   20.6706 O   0  0  0  0  0  0
  -24.6450  -31.8385   23.1849 C   0  0  0  0  0  0
  -25.9199  -32.4668   23.8263 C   0  0  1  0  0  0
  -27.2527  -27.1208   20.1567 C   0  0  0  0  0  0
  -25.5925  -33.8472   24.2164 N   0  0  0  0  0  0
  -23.4545  -30.4489   21.5314 C   0  0  2  0  0  0
  -24.9127  -28.8679   20.1203 C   0  0  0  0  0  0
  -22.7587  -29.4486   22.4884 C   0  0  0  0  0  0
  -18.0292  -28.1402   22.8470 C   0  0  0  0  0  0
  -24.1492  -36.7250   23.2646 C   0  0  0  0  0  0
  -26.0107  -30.7073   21.3888 C   0  0  0  0  0  0
  -26.0897  -29.3146   20.7347 C   0  0  0  0  0  0
  -27.2592  -28.4599   20.7300 C   0  0  0  0  0  0
  -26.0446  -26.7764   19.5096 C   0  0  0  0  0  0
  -24.9033  -27.6116   19.4936 C   0  0  0  0  0  0
  -23.6857  -29.7669   20.1563 C   0  0  0  0  0  0
  -25.4124  -36.3017   24.0310 C   0  0  1  0  0  0
  -20.5906  -28.3705   23.1252 C   0  0  2  0  0  0
  -20.6777  -26.9407   22.5413 C   0  0  0  0  0  0
  -19.5757  -26.6374   21.5217 C   0  0  0  0  0  0
  -18.1935  -26.7938   22.1621 C   0  0  0  0  0  0
  -19.1549  -28.8878   23.2844 C   0  0  0  0  0  0
  -18.9466  -30.1479   23.8860 C   0  0  0  0  0  0
  -17.6461  -30.6593   24.0555 C   0  0  0  0  0  0
  -25.9064  -34.9386   23.5053 C   0  0  0  0  0  0
  -16.5349  -29.9079   23.6352 C   0  0  0  0  0  0
  -16.7274  -28.6507   23.0353 C   0  0  0  0  0  0
  -26.4504  -31.6560   25.0726 C   0  0  0  0  0  0
  -25.3670  -31.3773   26.1404 C   0  0  0  0  0  0
  -27.0384  -30.2950   24.6359 C   0  0  0  0  0  0
  -27.6021  -32.4340   25.7519 C   0  0  0  0  0  0
  -27.5576  -37.1782   24.8455 C   0  0  0  0  0  0
  -21.4275  -29.3015   22.3629 N   0  0  0  0  0  0
  -26.4287  -37.3732   23.9401 N   0  0  0  0  0  0
  -24.7227  -31.0205   22.0900 N   0  0  0  0  0  0
  -23.4207  -28.8038   23.3052 O   0  0  0  0  0  0
  -28.3389  -26.1595   20.1655 O   0  0  0  0  0  0
  -26.5666  -34.8894   22.4642 O   0  0  0  0  0  0
  -23.5550  -32.1268   23.7032 O   0  0  0  0  0  0
  -28.0624  -18.2100   19.8787 C   0  0  0  0  0  0
  -28.1443  -19.1253   18.7871 C   0  0  0  0  0  0
  -26.7766  -17.9867   20.4455 C   0  0  0  0  0  0
  -27.0014  -19.3897   17.9887 C   0  0  0  0  0  0
  -25.6099  -18.4314   19.7560 C   0  0  0  0  0  0
  -25.7258  -18.9995   18.4594 C   0  0  0  0  0  0
  -30.2702  -19.1318   20.7657 C   0  0  0  0  0  0
  -29.3732  -17.7523   20.5678 C   0  0  2  0  0  0
  -29.3977  -20.0080   18.6373 C   0  0  2  0  0  0
  -26.6552  -17.4094   21.8623 C   0  0  0  0  0  0
  -27.1239  -20.1515   16.6667 C   0  0  0  0  0  0
  -24.2371  -18.3605   20.4282 C   0  0  0  0  0  0
  -24.4763  -19.3033   17.6261 C   0  0  0  0  0  0
  -30.5041  -19.3416   17.7922 C   0  0  0  0  0  0
  -29.1648  -23.3091   20.0043 C   0  0  0  0  0  0
  -29.0556  -21.6999   20.5760 C   0  0  0  0  0  0
  -28.1487  -24.6181   20.4060 C   0  0  0  0  0  0
  -29.6271  -16.1546   20.6835 N   0  0  0  0  0  0
  -29.8656  -20.4507   19.9805 N   0  3  1  0  0  0
  -31.4841  -12.8351   19.1935 H   0  0  0  0  0  0
  -30.4722  -11.6906   20.0270 H   0  0  0  0  0  0
  -29.8786  -11.8007   17.5774 H   0  0  0  0  0  0
  -29.6116  -13.5175   17.7070 H   0  0  0  0  0  0
  -27.9728  -11.2904   18.9478 H   0  0  0  0  0  0
  -27.4125  -12.4872   17.8106 H   0  0  0  0  0  0
  -27.5942  -14.2568   19.4303 H   0  0  0  0  0  0
  -28.7873  -12.2982   21.4428 H   0  0  0  0  0  0
  -28.3594  -13.9590   21.7772 H   0  0  0  0  0  0
  -25.2777   -9.5589   22.4815 H   0  0  0  0  0  0
  -23.9988   -7.4561   22.7504 H   0  0  0  0  0  0
  -21.0843   -8.8758   19.8976 H   0  0  0  0  0  0
  -22.3744  -10.9641   19.6176 H   0  0  0  0  0  0
  -21.1961   -7.6144   23.9738 H   0  0  0  0  0  0
  -21.1469   -6.0511   25.9096 H   0  0  0  0  0  0
  -22.0611   -2.7614   23.2850 H   0  0  0  0  0  0
  -22.3936  -11.9746   22.4791 H   0  0  0  0  0  0
  -21.1042  -13.1249   22.2586 H   0  0  0  0  0  0
  -24.6101  -15.7862   20.4715 H   0  0  0  0  0  0
  -26.2058  -15.6162   19.9797 H   0  0  0  0  0  0
  -26.7270  -32.5283   23.1003 H   0  0  0  0  0  0
  -25.0024  -33.9572   25.0281 H   0  0  0  0  0  0
  -22.7597  -31.2746   21.3677 H   0  0  0  0  0  0
  -23.3754  -35.9579   23.3276 H   0  0  0  0  0  0
  -24.3583  -36.8914   22.2066 H   0  0  0  0  0  0
  -23.7241  -37.6431   23.6708 H   0  0  0  0  0  0
  -26.1683  -31.4601   20.6150 H   0  0  0  0  0  0
  -26.8774  -30.7620   22.0354 H   0  0  0  0  0  0
  -28.1607  -28.8041   21.2178 H   0  0  0  0  0  0
  -25.9650  -25.8234   19.0075 H   0  0  0  0  0  0
  -24.0072  -27.2639   18.9980 H   0  0  0  0  0  0
  -23.8212  -30.5329   19.3929 H   0  0  0  0  0  0
  -22.8057  -29.1976   19.8500 H   0  0  0  0  0  0
  -25.1321  -36.1844   25.0801 H   0  0  0  0  0  0
  -20.9981  -28.3282   24.1382 H   0  0  0  0  0  0
  -20.5678  -26.2299   23.3624 H   0  0  0  0  0  0
  -21.6636  -26.7428   22.1199 H   0  0  0  0  0  0
  -19.6910  -25.6277   21.1254 H   0  0  0  0  0  0
  -19.6712  -27.3172   20.6741 H   0  0  0  0  0  0
  -17.4210  -26.6680   21.4016 H   0  0  0  0  0  0
  -18.0332  -26.0094   22.9033 H   0  0  0  0  0  0
  -19.7935  -30.7309   24.2207 H   0  0  0  0  0  0
  -17.5004  -31.6271   24.5157 H   0  0  0  0  0  0
  -15.5343  -30.2957   23.7707 H   0  0  0  0  0  0
  -15.8676  -28.0814   22.7084 H   0  0  0  0  0  0
  -24.5842  -30.7133   25.7719 H   0  0  0  0  0  0
  -24.8859  -32.2956   26.4777 H   0  0  0  0  0  0
  -25.7911  -30.8972   27.0232 H   0  0  0  0  0  0
  -26.3026  -29.6656   24.1339 H   0  0  0  0  0  0
  -27.3930  -29.7279   25.4979 H   0  0  0  0  0  0
  -27.8957  -30.4159   23.9738 H   0  0  0  0  0  0
  -27.2594  -33.3653   26.2049 H   0  0  0  0  0  0
  -28.3857  -32.6878   25.0367 H   0  0  0  0  0  0
  -28.0665  -31.8504   26.5481 H   0  0  0  0  0  0
  -28.2561  -38.0111   24.7519 H   0  0  0  0  0  0
  -28.1104  -36.2632   24.6263 H   0  0  0  0  0  0
  -27.2295  -37.1405   25.8859 H   0  0  0  0  0  0
  -20.9509  -29.8713   21.6783 H   0  0  0  0  0  0
  -26.0148  -38.2794   24.1409 H   0  0  0  0  0  0
  -31.2963  -18.8906   20.4894 H   0  0  0  0  0  0
  -30.3392  -19.3955   21.8229 H   0  0  0  0  0  0
  -29.0780  -17.7735   21.6114 H   0  0  0  0  0  0
  -29.1328  -20.9332   18.1273 H   0  0  0  0  0  0
  -26.9805  -18.1499   22.5937 H   0  0  0  0  0  0
  -27.2570  -16.5112   21.9928 H   0  0  0  0  0  0
  -25.6461  -17.1190   22.1426 H   0  0  0  0  0  0
  -28.1477  -20.2708   16.3213 H   0  0  0  0  0  0
  -26.6823  -21.1449   16.7516 H   0  0  0  0  0  0
  -26.6281  -19.6187   15.8563 H   0  0  0  0  0  0
  -24.2985  -18.6968   21.4628 H   0  0  0  0  0  0
  -23.8362  -17.3488   20.4140 H   0  0  0  0  0  0
  -23.4955  -19.0155   19.9737 H   0  0  0  0  0  0
  -24.6505  -19.2016   16.5570 H   0  0  0  0  0  0
  -24.1249  -20.3183   17.8156 H   0  0  0  0  0  0
  -23.6640  -18.6088   17.8394 H   0  0  0  0  0  0
  -30.8366  -18.3897   18.2053 H   0  0  0  0  0  0
  -31.3753  -19.9915   17.6988 H   0  0  0  0  0  0
  -30.1524  -19.1338   16.7822 H   0  0  0  0  0  0
  -29.1412  -23.2548   18.9157 H   0  0  0  0  0  0
  -30.1807  -23.6350   20.2311 H   0  0  0  0  0  0
  -28.0019  -21.4152   20.5533 H   0  0  0  0  0  0
  -29.3017  -21.7349   21.6378 H   0  0  0  0  0  0
  -28.0082  -24.5508   21.4841 H   0  0  0  0  0  0
  -27.1758  -24.3448   20.0036 H   0  0  0  0  0  0
  -28.7574  -15.7473   20.9887 H   0  0  0  0  0  0
  -30.7668  -20.8725   19.8122 H   0  0  0  0  0  0
  1 25  1  0  0  0
  1 30  2  0  0  0
  1 88  1  0  0  0
  2  3  1  0  0  0
  2 25  1  0  0  0
  2 90  1  0  0  0
  2 91  1  0  0  0
  3  4  1  0  0  0
  3 92  1  0  0  0
  3 93  1  0  0  0
  4  5  1  0  0  0
  4 94  1  0  0  0
  4 95  1  0  0  0
  5  6  1  0  0  0
  5 26  1  0  0  0
  5 96  1  0  0  0
  6 25  1  0  0  0
  6 97  1  0  0  0
  6 98  1  0  0  0
  7  8  2  0  0  0
  7 26  1  0  0  0
  7 29  1  0  0  0
  8  9  1  0  0  0
  8 22  1  0  0  0
  9 10  1  0  0  0
  9 27  2  0  0  0
 10 11  2  0  0  0
 10 15  1  0  0  0
 11 12  1  0  0  0
 11 99  1  0  0  0
 12 13  2  0  0  0
 12100  1  0  0  0
 13 14  1  0  0  0
 13 31  1  0  0  0
 14 15  2  0  0  0
 14101  1  0  0  0
 15102  1  0  0  0
 16 17  2  0  0  0
 16 21  1  0  0  0
 16 31  1  0  0  0
 17 18  1  0  0  0
 17103  1  0  0  0
 18 19  2  0  0  0
 18104  1  0  0  0
 19 20  1  0  0  0
 19 24  1  0  0  0
 20 21  2  0  0  0
 20105  1  0  0  0
 21 23  1  0  0  0
 22 28  1  0  0  0
 22 32  2  0  0  0
 26 27  1  0  0  0
 28106  1  0  0  0
 28107  1  0  0  0
 29108  1  0  0  0
 29109  1  0  0  0
 33 34  1  0  0  0
 33 66  1  0  0  0
 33 70  2  0  0  0
 34 36  1  0  0  0
 34 59  1  0  0  0
 34110  1  0  0  0
 35 44  2  0  0  0
 35 45  1  0  0  0
 35 68  1  0  0  0
 36 56  1  0  0  0
 36111  1  0  0  0
 37 39  1  0  0  0
 37 47  1  0  0  0
 37 66  1  0  0  0
 37112  1  0  0  0
 38 43  2  0  0  0
 38 46  1  0  0  0
 38 47  1  0  0  0
 39 64  1  0  0  0
 39 67  2  0  0  0
 40 52  1  0  0  0
 40 53  2  0  0  0
 40 58  1  0  0  0
 41113  1  0  0  0
 41114  1  0  0  0
 41115  1  0  0  0
 41 48  1  0  0  0
 42 43  1  0  0  0
 42 66  1  0  0  0
 42116  1  0  0  0
 42117  1  0  0  0
 43 44  1  0  0  0
 44118  1  0  0  0
 45 46  2  0  0  0
 45119  1  0  0  0
 46120  1  0  0  0
 47121  1  0  0  0
 47122  1  0  0  0
 48 56  1  0  0  0
 48 65  1  0  0  0
 48123  1  0  0  0
 49 50  1  0  0  0
 49 53  1  0  0  0
 49 64  1  0  0  0
 49124  1  0  0  0
 50 51  1  0  0  0
 50125  1  0  0  0
 50126  1  0  0  0
 51 52  1  0  0  0
 51127  1  0  0  0
 51128  1  0  0  0
 52129  1  0  0  0
 52130  1  0  0  0
 53 54  1  0  0  0
 54 55  2  0  0  0
 54131  1  0  0  0
 55 57  1  0  0  0
 55132  1  0  0  0
 56 69  2  0  0  0
 57 58  2  0  0  0
 57133  1  0  0  0
 58134  1  0  0  0
 59 60  1  0  0  0
 59 61  1  0  0  0
 59 62  1  0  0  0
 60135  1  0  0  0
 60136  1  0  0  0
 60137  1  0  0  0
 61138  1  0  0  0
 61139  1  0  0  0
 61140  1  0  0  0
 62141  1  0  0  0
 62142  1  0  0  0
 62143  1  0  0  0
 63 65  1  0  0  0
 63144  1  0  0  0
 63145  1  0  0  0
 63146  1  0  0  0
 64147  1  0  0  0
 65148  1  0  0  0
 68 87  1  0  0  0
 71 72  1  0  0  0
 71 73  2  0  0  0
 71 78  1  0  0  0
 72 74  2  0  0  0
 72 79  1  0  0  0
 73 75  1  0  0  0
 73 80  1  0  0  0
 74 76  1  0  0  0
 74 81  1  0  0  0
 75 76  2  0  0  0
 75 82  1  0  0  0
 76 83  1  0  0  0
 77 78  1  0  0  0
 77 89  1  0  0  0
 77149  1  0  0  0
 77150  1  0  0  0
 78 88  1  0  0  0
 78151  1  0  0  0
 79 84  1  0  0  0
 79 89  1  0  0  0
 79152  1  0  0  0
 80153  1  0  0  0
 80154  1  0  0  0
 80155  1  0  0  0
 81156  1  0  0  0
 81157  1  0  0  0
 81158  1  0  0  0
 82159  1  0  0  0
 82160  1  0  0  0
 82161  1  0  0  0
 83162  1  0  0  0
 83163  1  0  0  0
 83164  1  0  0  0
 84165  1  0  0  0
 84166  1  0  0  0
 84167  1  0  0  0
 85 86  1  0  0  0
 85 87  1  0  0  0
 85168  1  0  0  0
 85169  1  0  0  0
 86170  1  0  0  0
 86171  1  0  0  0
 86 89  1  0  0  0
 87172  1  0  0  0
 87173  1  0  0  0
 88174  1  0  0  0
 89175  1  0  0  0
M  CHG  1  89   1
M  ISO  4   1 100  68 101  87 101  88 100
M  END
> <chiral flag>
0

> <version>
0

> <s_m_source_file>
/data/baiqing/PycharmProjects/Reinvent-master-3.2/result/LINK_invent/BTK/process_docking_weight1_custom_sum_contain_oxygen_bond_distance_aromatic_linkinvent_7_9_3/rearranged_h_0161.sdf

> <i_m_source_file_index>
72

> <r_mmod_Potential_Energy-OPLS-2005>
603.635498046875

> <r_mmod_Stretch_Energy-OPLS-2005>
317.765502929688

> <r_mmod_Bend_Energy-OPLS-2005>
412.36572265625

> <r_mmod_Torsional_Energy-OPLS-2005>
311.627349853516

> <r_mmod_Improper_Torsional_Energy-OPLS-2005>
7.81130838394165

> <r_mmod_Van_der_Waal_Energy-OPLS-2005>
155.719375610352

> <r_mmod_Electrostatic_Energy-OPLS-2005>
-403.162628173828

> <r_mmod_Solvation_Energy-OPLS-2005>
-427.314422607422

> <b_mmod_Minimization_Converged-OPLS-2005>
0

> <r_mmod_RMS_Derivative-OPLS-2005>
2.76998162269592

$$$$
72
                    3D
 Structure written by MMmdl.
184193  0  0  1  0            999 V2000
  -30.6962  -14.4489   20.4762 C   0  0  0  0  0  0
  -30.4116  -12.2552   19.4489 C   0  0  0  0  0  0
  -29.5016  -12.4653   18.2200 C   0  0  0  0  0  0
  -28.0153  -12.3510   18.6183 C   0  0  0  0  0  0
  -27.6557  -13.2015   19.8662 C   0  0  2  0  0  0
  -28.6962  -13.0195   20.9997 C   0  0  0  0  0  0
  -25.2568  -13.8159   20.5673 C   0  0  0  0  0  0
  -24.1827  -13.0445   20.9201 C   0  0  0  0  0  0
  -24.6362  -11.6908   20.8737 C   0  0  0  0  0  0
  -23.9015  -10.4311   21.0405 C   0  0  0  0  0  0
  -24.3594   -9.4247   21.9190 C   0  0  0  0  0  0
  -23.6293   -8.2267   22.0743 C   0  0  0  0  0  0
  -22.4276   -8.0286   21.3538 C   0  0  0  0  0  0
  -21.9886   -9.0244   20.4633 C   0  0  0  0  0  0
  -22.7186  -10.2143   20.3048 C   0  0  0  0  0  0
  -21.6854   -6.0727   22.5281 C   0  0  0  0  0  0
  -21.4008   -6.5629   23.8218 C   0  0  0  0  0  0
  -21.3671   -5.6785   24.9182 C   0  0  0  0  0  0
  -21.6054   -4.3053   24.7231 C   0  0  0  0  0  0
  -21.8823   -3.8140   23.4348 C   0  0  0  0  0  0
  -21.9196   -4.6961   22.3414 C   0  0  0  0  0  0
  -22.7862  -13.5244   21.1883 C   0  0  0  0  0  0
  -22.1666   -4.2146   21.0989 F   0  0  0  0  0  0
  -21.5644   -3.4537   25.7741 F   0  0  0  0  0  0
  -30.0343  -13.2668   20.4438 N   0  0  0  0  0  0
  -26.2984  -12.9307   20.3315 N   0  0  0  0  0  0
  -25.9273  -11.6477   20.5734 N   0  0  0  0  0  0
  -22.0471  -12.8243   22.0427 N   0  0  0  0  0  0
  -25.4294  -15.1876   20.4059 N   0  0  0  0  0  0
  -31.8897  -14.5558   20.1928 O   0  0  0  0  0  0
  -21.6665   -6.8876   21.4241 O   0  0  0  0  0  0
  -22.3582  -14.5574   20.6742 O   0  0  0  0  0  0
  -24.6129  -31.8697   23.2118 C   0  0  0  0  0  0
  -25.9047  -32.4811   23.8401 C   0  0  1  0  0  0
  -27.2342  -27.4561   20.0751 C   0  0  0  0  0  0
  -25.5908  -33.8618   24.2319 N   0  0  0  0  0  0
  -23.3973  -30.4970   21.5507 C   0  0  2  0  0  0
  -24.8401  -28.9643   20.1126 C   0  0  0  0  0  0
  -22.7379  -29.4690   22.4983 C   0  0  0  0  0  0
  -18.0269  -28.1395   22.8480 C   0  0  0  0  0  0
  -24.1482  -36.7315   23.2638 C   0  0  0  0  0  0
  -25.9245  -30.8358   21.3653 C   0  0  0  0  0  0
  -25.9975  -29.4714   20.7152 C   0  0  0  0  0  0
  -27.1907  -28.7189   20.7049 C   0  0  0  0  0  0
  -26.0521  -26.9544   19.4785 C   0  0  0  0  0  0
  -24.8611  -27.7018   19.4976 C   0  0  0  0  0  0
  -23.6021  -29.8296   20.1642 C   0  0  0  0  0  0
  -25.4100  -36.3098   24.0329 C   0  0  1  0  0  0
  -20.5855  -28.3677   23.1304 C   0  0  2  0  0  0
  -20.6756  -26.9414   22.5411 C   0  0  0  0  0  0
  -19.5741  -26.6393   21.5203 C   0  0  0  0  0  0
  -18.1918  -26.7938   22.1614 C   0  0  0  0  0  0
  -19.1520  -28.8848   23.2893 C   0  0  0  0  0  0
  -18.9455  -30.1457   23.8905 C   0  0  0  0  0  0
  -17.6462  -30.6597   24.0572 C   0  0  0  0  0  0
  -25.9034  -34.9467   23.5116 C   0  0  0  0  0  0
  -16.5348  -29.9106   23.6334 C   0  0  0  0  0  0
  -16.7259  -28.6528   23.0335 C   0  0  0  0  0  0
  -26.4493  -31.6601   25.0733 C   0  0  0  0  0  0
  -25.3765  -31.3723   26.1485 C   0  0  0  0  0  0
  -27.0339  -30.3040   24.6132 C   0  0  0  0  0  0
  -27.6060  -32.4336   25.7495 C   0  0  0  0  0  0
  -27.5571  -37.1803   24.8461 C   0  0  0  0  0  0
  -21.4112  -29.3048   22.3702 N   0  0  0  0  0  0
  -26.4280  -37.3786   23.9409 N   0  0  0  0  0  0
  -24.6627  -31.0829   22.0997 N   0  0  0  0  0  0
  -23.4164  -28.8231   23.3010 O   0  0  0  0  0  0
  -28.4336  -26.7752   20.0716 O   0  0  0  0  0  0
  -26.5597  -34.8923   22.4676 O   0  0  0  0  0  0
  -23.5336  -32.1443   23.7532 O   0  0  0  0  0  0
  -33.3078  -20.8936   19.9286 C   0  0  0  0  0  0
  -33.4378  -20.8979   21.3240 C   0  0  0  0  0  0
  -32.0354  -20.8005   19.3348 C   0  0  0  0  0  0
  -30.8723  -20.6996   20.1458 C   0  0  0  0  0  0
  -31.0026  -20.7787   21.5648 C   0  0  0  0  0  0
  -32.2955  -20.8481   22.1425 C   0  0  0  0  0  0
  -31.9727  -20.8792   17.8141 C   0  0  0  0  0  0
  -30.5727  -20.7425   17.1926 C   0  0  0  0  0  0
  -29.5090  -20.4762   19.4694 C   0  0  1  0  0  0
  -29.4176  -21.2434   18.1053 C   0  0  1  0  0  0
  -29.7784  -20.7954   22.4791 C   0  0  0  0  0  0
  -31.1913  -16.8435   18.7090 C   0  0  0  0  0  0
  -29.6232  -23.4086   16.9729 C   0  0  0  0  0  0
  -32.5318  -19.5746   24.0749 C   0  0  0  0  0  0
  -28.1789  -24.3336   19.7648 C   0  0  0  0  0  0
  -28.0608  -23.1792   18.7448 C   0  0  0  0  0  0
  -29.5014  -17.9984   20.2321 C   0  0  0  0  0  0
  -28.6134  -25.6862   19.1661 C   0  0  0  0  0  0
  -29.8922  -16.6698   19.5410 C   0  0  2  0  0  0
  -29.8754  -15.5164   20.4731 N   0  0  0  0  0  0
  -29.3696  -22.7210   18.2482 N   0  0  0  0  0  0
  -29.2699  -19.0346   19.1933 N   0  3  0  0  0  0
  -32.4692  -20.8721   23.5002 O   0  0  0  0  0  0
  -31.4624  -12.3138   19.1618 H   0  0  0  0  0  0
  -30.2694  -11.2548   19.8617 H   0  0  0  0  0  0
  -29.7356  -11.7259   17.4522 H   0  0  0  0  0  0
  -29.6979  -13.4424   17.7762 H   0  0  0  0  0  0
  -27.8095  -11.2992   18.8163 H   0  0  0  0  0  0
  -27.3782  -12.6319   17.7779 H   0  0  0  0  0  0
  -27.6809  -14.2415   19.5427 H   0  0  0  0  0  0
  -28.6494  -12.0068   21.4026 H   0  0  0  0  0  0
  -28.4835  -13.6869   21.8374 H   0  0  0  0  0  0
  -25.2716   -9.5772   22.4794 H   0  0  0  0  0  0
  -24.0022   -7.4658   22.7443 H   0  0  0  0  0  0
  -21.0817   -8.8727   19.8934 H   0  0  0  0  0  0
  -22.3592  -10.9688   19.6182 H   0  0  0  0  0  0
  -21.1985   -7.6136   23.9713 H   0  0  0  0  0  0
  -21.1496   -6.0525   25.9089 H   0  0  0  0  0  0
  -22.0588   -2.7599   23.2851 H   0  0  0  0  0  0
  -22.4018  -11.9871   22.4825 H   0  0  0  0  0  0
  -21.1094  -13.1296   22.2595 H   0  0  0  0  0  0
  -24.6553  -15.8374   20.5048 H   0  0  0  0  0  0
  -26.2688  -15.6235   20.0495 H   0  0  0  0  0  0
  -26.7114  -32.5527   23.1164 H   0  0  0  0  0  0
  -25.0054  -33.9781   25.0462 H   0  0  0  0  0  0
  -22.6862  -31.3144   21.4140 H   0  0  0  0  0  0
  -23.3725  -35.9668   23.3310 H   0  0  0  0  0  0
  -24.3574  -36.8925   22.2050 H   0  0  0  0  0  0
  -23.7257  -37.6530   23.6656 H   0  0  0  0  0  0
  -26.0415  -31.6010   20.5968 H   0  0  0  0  0  0
  -26.8116  -30.8853   21.9846 H   0  0  0  0  0  0
  -28.0854  -29.1109   21.1693 H   0  0  0  0  0  0
  -26.0262  -25.9925   18.9896 H   0  0  0  0  0  0
  -23.9713  -27.3049   19.0282 H   0  0  0  0  0  0
  -23.7031  -30.6036   19.4022 H   0  0  0  0  0  0
  -22.7258  -29.2469   19.8727 H   0  0  0  0  0  0
  -25.1280  -36.1949   25.0821 H   0  0  0  0  0  0
  -20.9960  -28.3253   24.1419 H   0  0  0  0  0  0
  -20.5640  -26.2293   23.3603 H   0  0  0  0  0  0
  -21.6628  -26.7448   22.1216 H   0  0  0  0  0  0
  -19.6900  -25.6301   21.1237 H   0  0  0  0  0  0
  -19.6688  -27.3197   20.6729 H   0  0  0  0  0  0
  -17.4184  -26.6672   21.4023 H   0  0  0  0  0  0
  -18.0335  -26.0089   22.9021 H   0  0  0  0  0  0
  -19.7937  -30.7269   24.2264 H   0  0  0  0  0  0
  -17.5027  -31.6279   24.5177 H   0  0  0  0  0  0
  -15.5353  -30.3018   23.7667 H   0  0  0  0  0  0
  -15.8651  -28.0872   22.7027 H   0  0  0  0  0  0
  -24.5911  -30.7099   25.7831 H   0  0  0  0  0  0
  -24.9000  -32.2895   26.4960 H   0  0  0  0  0  0
  -25.8123  -30.8870   27.0226 H   0  0  0  0  0  0
  -26.2894  -29.6768   24.1208 H   0  0  0  0  0  0
  -27.4123  -29.7316   25.4616 H   0  0  0  0  0  0
  -27.8726  -30.4355   23.9285 H   0  0  0  0  0  0
  -27.2660  -33.3613   26.2114 H   0  0  0  0  0  0
  -28.3852  -32.6931   25.0314 H   0  0  0  0  0  0
  -28.0752  -31.8440   26.5381 H   0  0  0  0  0  0
  -28.2589  -38.0100   24.7499 H   0  0  0  0  0  0
  -28.1062  -36.2628   24.6286 H   0  0  0  0  0  0
  -27.2294  -37.1455   25.8867 H   0  0  0  0  0  0
  -20.9259  -29.8770   21.6934 H   0  0  0  0  0  0
  -26.0159  -38.2858   24.1421 H   0  0  0  0  0  0
  -34.1942  -20.9657   19.3123 H   0  0  0  0  0  0
  -34.4208  -20.9528   21.7685 H   0  0  0  0  0  0
  -32.6495  -20.1399   17.3810 H   0  0  0  0  0  0
  -32.3771  -21.8538   17.5401 H   0  0  0  0  0  0
  -30.4109  -19.6856   16.9883 H   0  0  0  0  0  0
  -30.5564  -21.1697   16.1909 H   0  0  0  0  0  0
  -28.7065  -20.8066   20.1252 H   0  0  0  0  0  0
  -28.4850  -20.9621   17.6085 H   0  0  0  0  0  0
  -29.0926  -21.5925   22.1918 H   0  0  0  0  0  0
  -30.0380  -20.9854   23.5211 H   0  0  0  0  0  0
  -29.2422  -19.8479   22.4487 H   0  0  0  0  0  0
  -31.1330  -17.6517   17.9835 H   0  0  0  0  0  0
  -31.4163  -15.9515   18.1218 H   0  0  0  0  0  0
  -32.0495  -17.0503   19.3513 H   0  0  0  0  0  0
  -30.6634  -23.3045   16.6624 H   0  0  0  0  0  0
  -29.4454  -24.4800   17.0239 H   0  0  0  0  0  0
  -28.9881  -23.0181   16.1749 H   0  0  0  0  0  0
  -32.8882  -19.6441   25.1024 H   0  0  0  0  0  0
  -33.2105  -18.9186   23.5278 H   0  0  0  0  0  0
  -31.5464  -19.1084   24.0958 H   0  0  0  0  0  0
  -28.8500  -24.0543   20.5778 H   0  0  0  0  0  0
  -27.1999  -24.4542   20.2292 H   0  0  0  0  0  0
  -27.3959  -23.4576   17.9241 H   0  0  0  0  0  0
  -27.5380  -22.3682   19.2509 H   0  0  0  0  0  0
  -30.2986  -18.2677   20.9229 H   0  0  0  0  0  0
  -28.5899  -17.8841   20.8220 H   0  0  0  0  0  0
  -28.1222  -25.8840   18.2125 H   0  0  0  0  0  0
  -29.6792  -25.6369   18.9418 H   0  0  0  0  0  0
  -29.1024  -16.4329   18.8254 H   0  0  0  0  0  0
  -28.9589  -15.2957   20.8335 H   0  0  0  0  0  0
  -29.9060  -18.8087   18.4467 H   0  0  0  0  0  0
  -28.3367  -18.9253   18.8286 H   0  0  0  0  0  0
  1 25  1  0  0  0
  1 30  2  0  0  0
  1 90  1  0  0  0
  2  3  1  0  0  0
  2 25  1  0  0  0
  2 94  1  0  0  0
  2 95  1  0  0  0
  3  4  1  0  0  0
  3 96  1  0  0  0
  3 97  1  0  0  0
  4  5  1  0  0  0
  4 98  1  0  0  0
  4 99  1  0  0  0
  5  6  1  0  0  0
  5 26  1  0  0  0
  5100  1  0  0  0
  6 25  1  0  0  0
  6101  1  0  0  0
  6102  1  0  0  0
  7  8  2  0  0  0
  7 26  1  0  0  0
  7 29  1  0  0  0
  8  9  1  0  0  0
  8 22  1  0  0  0
  9 10  1  0  0  0
  9 27  2  0  0  0
 10 11  2  0  0  0
 10 15  1  0  0  0
 11 12  1  0  0  0
 11103  1  0  0  0
 12 13  2  0  0  0
 12104  1  0  0  0
 13 14  1  0  0  0
 13 31  1  0  0  0
 14 15  2  0  0  0
 14105  1  0  0  0
 15106  1  0  0  0
 16 17  2  0  0  0
 16 21  1  0  0  0
 16 31  1  0  0  0
 17 18  1  0  0  0
 17107  1  0  0  0
 18 19  2  0  0  0
 18108  1  0  0  0
 19 20  1  0  0  0
 19 24  1  0  0  0
 20 21  2  0  0  0
 20109  1  0  0  0
 21 23  1  0  0  0
 22 28  1  0  0  0
 22 32  2  0  0  0
 26 27  1  0  0  0
 28110  1  0  0  0
 28111  1  0  0  0
 29112  1  0  0  0
 29113  1  0  0  0
 33 34  1  0  0  0
 33 66  1  0  0  0
 33 70  2  0  0  0
 34 36  1  0  0  0
 34 59  1  0  0  0
 34114  1  0  0  0
 35 44  2  0  0  0
 35 45  1  0  0  0
 35 68  1  0  0  0
 36 56  1  0  0  0
 36115  1  0  0  0
 37 39  1  0  0  0
 37 47  1  0  0  0
 37 66  1  0  0  0
 37116  1  0  0  0
 38 43  2  0  0  0
 38 46  1  0  0  0
 38 47  1  0  0  0
 39 64  1  0  0  0
 39 67  2  0  0  0
 40 52  1  0  0  0
 40 53  2  0  0  0
 40 58  1  0  0  0
 41117  1  0  0  0
 41118  1  0  0  0
 41119  1  0  0  0
 41 48  1  0  0  0
 42 43  1  0  0  0
 42 66  1  0  0  0
 42120  1  0  0  0
 42121  1  0  0  0
 43 44  1  0  0  0
 44122  1  0  0  0
 45 46  2  0  0  0
 45123  1  0  0  0
 46124  1  0  0  0
 47125  1  0  0  0
 47126  1  0  0  0
 48 56  1  0  0  0
 48 65  1  0  0  0
 48127  1  0  0  0
 49 50  1  0  0  0
 49 53  1  0  0  0
 49 64  1  0  0  0
 49128  1  0  0  0
 50 51  1  0  0  0
 50129  1  0  0  0
 50130  1  0  0  0
 51 52  1  0  0  0
 51131  1  0  0  0
 51132  1  0  0  0
 52133  1  0  0  0
 52134  1  0  0  0
 53 54  1  0  0  0
 54 55  2  0  0  0
 54135  1  0  0  0
 55 57  1  0  0  0
 55136  1  0  0  0
 56 69  2  0  0  0
 57 58  2  0  0  0
 57137  1  0  0  0
 58138  1  0  0  0
 59 60  1  0  0  0
 59 61  1  0  0  0
 59 62  1  0  0  0
 60139  1  0  0  0
 60140  1  0  0  0
 60141  1  0  0  0
 61142  1  0  0  0
 61143  1  0  0  0
 61144  1  0  0  0
 62145  1  0  0  0
 62146  1  0  0  0
 62147  1  0  0  0
 63 65  1  0  0  0
 63148  1  0  0  0
 63149  1  0  0  0
 63150  1  0  0  0
 64151  1  0  0  0
 65152  1  0  0  0
 68 88  1  0  0  0
 71 72  2  0  0  0
 71 73  1  0  0  0
 71153  1  0  0  0
 72 76  1  0  0  0
 72154  1  0  0  0
 73 74  2  0  0  0
 73 77  1  0  0  0
 74 75  1  0  0  0
 74 79  1  0  0  0
 75 76  2  0  0  0
 75 81  1  0  0  0
 76 93  1  0  0  0
 77 78  1  0  0  0
 77155  1  0  0  0
 77156  1  0  0  0
 78 80  1  0  0  0
 78157  1  0  0  0
 78158  1  0  0  0
 79 80  1  0  0  0
 79 92  1  0  0  0
 79159  1  0  0  0
 80 91  1  0  0  0
 80160  1  0  0  0
 81161  1  0  0  0
 81162  1  0  0  0
 81163  1  0  0  0
 82164  1  0  0  0
 82165  1  0  0  0
 82166  1  0  0  0
 82 89  1  0  0  0
 83 91  1  0  0  0
 83167  1  0  0  0
 83168  1  0  0  0
 83169  1  0  0  0
 84 93  1  0  0  0
 84170  1  0  0  0
 84171  1  0  0  0
 84172  1  0  0  0
 85 86  1  0  0  0
 85 88  1  0  0  0
 85173  1  0  0  0
 85174  1  0  0  0
 86 91  1  0  0  0
 86175  1  0  0  0
 86176  1  0  0  0
 87 89  1  0  0  0
 87 92  1  0  0  0
 87177  1  0  0  0
 87178  1  0  0  0
 88179  1  0  0  0
 88180  1  0  0  0
 89 90  1  0  0  0
 89181  1  0  0  0
 90182  1  0  0  0
 92183  1  0  0  0
 92184  1  0  0  0
M  CHG  1  92   1
M  ISO  4   1 100  68 101  88 101  90 100
M  END
> <chiral flag>
0

> <version>
0

> <s_m_source_file>
/data/baiqing/PycharmProjects/Reinvent-master-3.2/result/LINK_invent/BTK/process_docking_weight1_custom_sum_contain_oxygen_bond_distance_aromatic_linkinvent_7_9_3/rearranged_h_0161.sdf

> <i_m_source_file_index>
73

> <r_mmod_Potential_Energy-OPLS-2005>
-91.6763610839844

> <r_mmod_Stretch_Energy-OPLS-2005>
44.6462631225586

> <r_mmod_Bend_Energy-OPLS-2005>
131.465591430664

> <r_mmod_Torsional_Energy-OPLS-2005>
312.677795410156

> <r_mmod_Improper_Torsional_Energy-OPLS-2005>
12.3303327560425

> <r_mmod_Van_der_Waal_Energy-OPLS-2005>
177.889266967773

> <r_mmod_Electrostatic_Energy-OPLS-2005>
-305.934631347656

> <r_mmod_Solvation_Energy-OPLS-2005>
-483.414978027344

> <b_mmod_Minimization_Converged-OPLS-2005>
0

> <r_mmod_RMS_Derivative-OPLS-2005>
2.42503762245178

$$$$
73
                    3D
 Structure written by MMmdl.
171180  0  0  1  0            999 V2000
  -30.7109  -14.4485   20.6876 C   0  0  0  0  0  0
  -30.4364  -12.3402   19.4082 C   0  0  0  0  0  0
  -29.4939  -12.5301   18.2014 C   0  0  0  0  0  0
  -28.0154  -12.3672   18.6115 C   0  0  0  0  0  0
  -27.6677  -13.1763   19.8856 C   0  0  2  0  0  0
  -28.7129  -12.8798   20.9918 C   0  0  0  0  0  0
  -25.2619  -13.8067   20.5622 C   0  0  0  0  0  0
  -24.1856  -13.0385   20.9191 C   0  0  0  0  0  0
  -24.6382  -11.6850   20.8771 C   0  0  0  0  0  0
  -23.9037  -10.4253   21.0430 C   0  0  0  0  0  0
  -24.3583   -9.4153   21.9199 C   0  0  0  0  0  0
  -23.6245   -8.2199   22.0748 C   0  0  0  0  0  0
  -22.4230   -8.0260   21.3533 C   0  0  0  0  0  0
  -21.9880   -9.0240   20.4634 C   0  0  0  0  0  0
  -22.7231  -10.2108   20.3049 C   0  0  0  0  0  0
  -21.6819   -6.0734   22.5284 C   0  0  0  0  0  0
  -21.3991   -6.5641   23.8219 C   0  0  0  0  0  0
  -21.3656   -5.6791   24.9180 C   0  0  0  0  0  0
  -21.6035   -4.3051   24.7226 C   0  0  0  0  0  0
  -21.8814   -3.8148   23.4342 C   0  0  0  0  0  0
  -21.9173   -4.6962   22.3400 C   0  0  0  0  0  0
  -22.7897  -13.5217   21.1876 C   0  0  0  0  0  0
  -22.1645   -4.2152   21.0974 F   0  0  0  0  0  0
  -21.5624   -3.4524   25.7728 F   0  0  0  0  0  0
  -30.0314  -13.2785   20.4746 N   0  0  0  0  0  0
  -26.3046  -12.9185   20.3408 N   0  0  0  0  0  0
  -25.9287  -11.6379   20.5815 N   0  0  0  0  0  0
  -22.0511  -12.8200   22.0407 N   0  0  0  0  0  0
  -25.4298  -15.1774   20.3861 N   0  0  0  0  0  0
  -31.7729  -14.6746   20.0936 O   0  0  0  0  0  0
  -21.6577   -6.8871   21.4246 O   0  0  0  0  0  0
  -22.3604  -14.5554   20.6752 O   0  0  0  0  0  0
  -24.6118  -31.8707   23.2118 C   0  0  0  0  0  0
  -25.9031  -32.4822   23.8410 C   0  0  1  0  0  0
  -27.2500  -27.4755   20.0675 C   0  0  0  0  0  0
  -25.5898  -33.8624   24.2337 N   0  0  0  0  0  0
  -23.3973  -30.4909   21.5523 C   0  0  2  0  0  0
  -24.8409  -28.9572   20.1163 C   0  0  0  0  0  0
  -22.7405  -29.4663   22.5044 C   0  0  0  0  0  0
  -18.0245  -28.1402   22.8502 C   0  0  0  0  0  0
  -24.1464  -36.7314   23.2628 C   0  0  0  0  0  0
  -25.9207  -30.8448   21.3565 C   0  0  0  0  0  0
  -25.9961  -29.4800   20.7081 C   0  0  0  0  0  0
  -27.1955  -28.7406   20.6890 C   0  0  0  0  0  0
  -26.0664  -26.9442   19.4993 C   0  0  0  0  0  0
  -24.8686  -27.6849   19.5171 C   0  0  0  0  0  0
  -23.6009  -29.8206   20.1669 C   0  0  0  0  0  0
  -25.4072  -36.3108   24.0352 C   0  0  1  0  0  0
  -20.5838  -28.3670   23.1361 C   0  0  2  0  0  0
  -20.6735  -26.9416   22.5448 C   0  0  0  0  0  0
  -19.5713  -26.6404   21.5239 C   0  0  0  0  0  0
  -18.1884  -26.7951   22.1630 C   0  0  0  0  0  0
  -19.1496  -28.8854   23.2921 C   0  0  0  0  0  0
  -18.9425  -30.1455   23.8939 C   0  0  0  0  0  0
  -17.6427  -30.6606   24.0575 C   0  0  0  0  0  0
  -25.9038  -34.9481   23.5151 C   0  0  0  0  0  0
  -16.5312  -29.9112   23.6334 C   0  0  0  0  0  0
  -16.7234  -28.6528   23.0353 C   0  0  0  0  0  0
  -26.4465  -31.6596   25.0735 C   0  0  0  0  0  0
  -25.3781  -31.3753   26.1541 C   0  0  0  0  0  0
  -27.0194  -30.3006   24.6081 C   0  0  0  0  0  0
  -27.6083  -32.4291   25.7470 C   0  0  0  0  0  0
  -27.5606  -37.1737   24.8408 C   0  0  0  0  0  0
  -21.4135  -29.3035   22.3795 N   0  0  0  0  0  0
  -26.4220  -37.3825   23.9499 N   0  0  0  0  0  0
  -24.6616  -31.0838   22.0988 N   0  0  0  0  0  0
  -23.4201  -28.8225   23.3084 O   0  0  0  0  0  0
  -28.4705  -26.8368   20.0700 O   0  0  0  0  0  0
  -26.5611  -34.8944   22.4713 O   0  0  0  0  0  0
  -23.5319  -32.1456   23.7525 O   0  0  0  0  0  0
  -30.2423  -20.1091   20.4929 C   0  0  0  0  0  0
  -28.9426  -22.1739   20.4941 C   0  0  0  0  0  0
  -29.5379  -19.6290   21.6161 C   0  0  0  0  0  0
  -28.2515  -21.7330   21.6512 C   0  0  0  0  0  0
  -28.5312  -20.4510   22.2021 C   0  0  0  0  0  0
  -29.9335  -21.3554   19.9147 C   0  0  0  0  0  0
  -28.5345  -23.3986   19.7891 C   0  0  0  0  0  0
  -29.1957  -24.5638   19.8470 C   0  0  0  0  0  0
  -28.7986  -17.2550   21.3786 C   0  0  0  0  0  0
  -31.2061  -17.6183   21.9538 C   0  0  0  0  0  0
  -28.9303  -15.8182   21.8904 C   0  0  0  0  0  0
  -31.2637  -16.1381   22.4191 C   0  0  0  0  0  0
  -29.7754  -18.1906   22.0985 C   0  0  0  0  0  0
  -27.1842  -22.6282   22.2822 C   0  0  0  0  0  0
  -27.7238  -19.9519   23.4035 C   0  0  0  0  0  0
  -30.4370  -20.9016   17.6636 C   0  0  0  0  0  0
  -28.7742  -25.8212   19.1211 C   0  0  0  0  0  0
  -30.2958  -15.2907   21.6855 N   0  0  0  0  0  0
  -30.5760  -21.7768   18.7766 O   0  0  0  0  0  0
  -31.4744  -12.4763   19.0992 H   0  0  0  0  0  0
  -30.3821  -11.3137   19.7742 H   0  0  0  0  0  0
  -29.7422  -11.8137   17.4168 H   0  0  0  0  0  0
  -29.6466  -13.5208   17.7706 H   0  0  0  0  0  0
  -27.8301  -11.3076   18.7885 H   0  0  0  0  0  0
  -27.3598  -12.6591   17.7898 H   0  0  0  0  0  0
  -27.7260  -14.2234   19.5950 H   0  0  0  0  0  0
  -28.7212  -11.8077   21.2005 H   0  0  0  0  0  0
  -28.4687  -13.3104   21.9600 H   0  0  0  0  0  0
  -25.2728   -9.5580   22.4776 H   0  0  0  0  0  0
  -23.9929   -7.4564   22.7455 H   0  0  0  0  0  0
  -21.0813   -8.8775   19.8933 H   0  0  0  0  0  0
  -22.3732  -10.9641   19.6127 H   0  0  0  0  0  0
  -21.1980   -7.6144   23.9725 H   0  0  0  0  0  0
  -21.1486   -6.0521   25.9093 H   0  0  0  0  0  0
  -22.0595   -2.7609   23.2831 H   0  0  0  0  0  0
  -22.4094  -11.9804   22.4721 H   0  0  0  0  0  0
  -21.1152  -13.1269   22.2672 H   0  0  0  0  0  0
  -24.6445  -15.8161   20.4432 H   0  0  0  0  0  0
  -26.2610  -15.6055   19.9995 H   0  0  0  0  0  0
  -26.7117  -32.5518   23.1194 H   0  0  0  0  0  0
  -25.0016  -33.9784   25.0456 H   0  0  0  0  0  0
  -22.6837  -31.3066   21.4152 H   0  0  0  0  0  0
  -23.3778  -35.9579   23.3103 H   0  0  0  0  0  0
  -24.3633  -36.9109   22.2090 H   0  0  0  0  0  0
  -23.7109  -37.6421   23.6749 H   0  0  0  0  0  0
  -26.0267  -31.6082   20.5834 H   0  0  0  0  0  0
  -26.8124  -30.9007   21.9686 H   0  0  0  0  0  0
  -28.0901  -29.1487   21.1373 H   0  0  0  0  0  0
  -26.0402  -25.9637   19.0500 H   0  0  0  0  0  0
  -23.9761  -27.2695   19.0696 H   0  0  0  0  0  0
  -23.7076  -30.5952   19.4060 H   0  0  0  0  0  0
  -22.7243  -29.2394   19.8744 H   0  0  0  0  0  0
  -25.1213  -36.1929   25.0833 H   0  0  0  0  0  0
  -20.9902  -28.3202   24.1495 H   0  0  0  0  0  0
  -20.5631  -26.2288   23.3633 H   0  0  0  0  0  0
  -21.6599  -26.7470   22.1223 H   0  0  0  0  0  0
  -19.6861  -25.6321   21.1253 H   0  0  0  0  0  0
  -19.6659  -27.3237   20.6790 H   0  0  0  0  0  0
  -17.4177  -26.6731   21.4011 H   0  0  0  0  0  0
  -18.0241  -26.0092   22.9024 H   0  0  0  0  0  0
  -19.7903  -30.7247   24.2339 H   0  0  0  0  0  0
  -17.4986  -31.6293   24.5162 H   0  0  0  0  0  0
  -15.5310  -30.3025   23.7651 H   0  0  0  0  0  0
  -15.8626  -28.0853   22.7064 H   0  0  0  0  0  0
  -24.5889  -30.7144   25.7948 H   0  0  0  0  0  0
  -24.9049  -32.2924   26.5058 H   0  0  0  0  0  0
  -25.8179  -30.8904   27.0265 H   0  0  0  0  0  0
  -26.2655  -29.6838   24.1169 H   0  0  0  0  0  0
  -27.3949  -29.7201   25.4518 H   0  0  0  0  0  0
  -27.8534  -30.4259   23.9169 H   0  0  0  0  0  0
  -27.2750  -33.3663   26.1945 H   0  0  0  0  0  0
  -28.3939  -32.6718   25.0303 H   0  0  0  0  0  0
  -28.0664  -31.8452   26.5459 H   0  0  0  0  0  0
  -28.2417  -38.0234   24.7770 H   0  0  0  0  0  0
  -28.1294  -36.2806   24.5779 H   0  0  0  0  0  0
  -27.2429  -37.0828   25.8810 H   0  0  0  0  0  0
  -20.9310  -29.8799   21.7049 H   0  0  0  0  0  0
  -26.0088  -38.2845   24.1717 H   0  0  0  0  0  0
  -31.0025  -19.5044   20.0256 H   0  0  0  0  0  0
  -27.6427  -23.3229   19.1844 H   0  0  0  0  0  0
  -30.0890  -24.6405   20.4515 H   0  0  0  0  0  0
  -27.7704  -17.5906   21.5192 H   0  0  0  0  0  0
  -28.9769  -17.2835   20.3023 H   0  0  0  0  0  0
  -31.5465  -17.6565   20.9199 H   0  0  0  0  0  0
  -31.9046  -18.2221   22.5355 H   0  0  0  0  0  0
  -28.1480  -15.2794   21.3809 H   0  0  0  0  0  0
  -28.6795  -15.7669   22.9516 H   0  0  0  0  0  0
  -31.0370  -16.0798   23.4855 H   0  0  0  0  0  0
  -32.2843  -15.7597   22.3257 H   0  0  0  0  0  0
  -29.5701  -18.1571   23.1678 H   0  0  0  0  0  0
  -27.2691  -23.6720   21.9846 H   0  0  0  0  0  0
  -27.2628  -22.6256   23.3692 H   0  0  0  0  0  0
  -26.1877  -22.2827   22.0046 H   0  0  0  0  0  0
  -27.5187  -18.8844   23.3577 H   0  0  0  0  0  0
  -26.7418  -20.4163   23.4766 H   0  0  0  0  0  0
  -28.2628  -20.1557   24.3285 H   0  0  0  0  0  0
  -31.0248  -21.2847   16.8296 H   0  0  0  0  0  0
  -29.3942  -20.8560   17.3432 H   0  0  0  0  0  0
  -30.7815  -19.8862   17.8646 H   0  0  0  0  0  0
  -27.9912  -25.6103   18.3933 H   0  0  0  0  0  0
  -29.6258  -26.1611   18.5312 H   0  0  0  0  0  0
  1 25  1  0  0  0
  1 30  2  0  0  0
  1 88  1  0  0  0
  2  3  1  0  0  0
  2 25  1  0  0  0
  2 90  1  0  0  0
  2 91  1  0  0  0
  3  4  1  0  0  0
  3 92  1  0  0  0
  3 93  1  0  0  0
  4  5  1  0  0  0
  4 94  1  0  0  0
  4 95  1  0  0  0
  5  6  1  0  0  0
  5 26  1  0  0  0
  5 96  1  0  0  0
  6 25  1  0  0  0
  6 97  1  0  0  0
  6 98  1  0  0  0
  7  8  2  0  0  0
  7 26  1  0  0  0
  7 29  1  0  0  0
  8  9  1  0  0  0
  8 22  1  0  0  0
  9 10  1  0  0  0
  9 27  2  0  0  0
 10 11  2  0  0  0
 10 15  1  0  0  0
 11 12  1  0  0  0
 11 99  1  0  0  0
 12 13  2  0  0  0
 12100  1  0  0  0
 13 14  1  0  0  0
 13 31  1  0  0  0
 14 15  2  0  0  0
 14101  1  0  0  0
 15102  1  0  0  0
 16 17  2  0  0  0
 16 21  1  0  0  0
 16 31  1  0  0  0
 17 18  1  0  0  0
 17103  1  0  0  0
 18 19  2  0  0  0
 18104  1  0  0  0
 19 20  1  0  0  0
 19 24  1  0  0  0
 20 21  2  0  0  0
 20105  1  0  0  0
 21 23  1  0  0  0
 22 28  1  0  0  0
 22 32  2  0  0  0
 26 27  1  0  0  0
 28106  1  0  0  0
 28107  1  0  0  0
 29108  1  0  0  0
 29109  1  0  0  0
 33 34  1  0  0  0
 33 66  1  0  0  0
 33 70  2  0  0  0
 34 36  1  0  0  0
 34 59  1  0  0  0
 34110  1  0  0  0
 35 44  2  0  0  0
 35 45  1  0  0  0
 35 68  1  0  0  0
 36 56  1  0  0  0
 36111  1  0  0  0
 37 39  1  0  0  0
 37 47  1  0  0  0
 37 66  1  0  0  0
 37112  1  0  0  0
 38 43  2  0  0  0
 38 46  1  0  0  0
 38 47  1  0  0  0
 39 64  1  0  0  0
 39 67  2  0  0  0
 40 52  1  0  0  0
 40 53  2  0  0  0
 40 58  1  0  0  0
 41113  1  0  0  0
 41114  1  0  0  0
 41115  1  0  0  0
 41 48  1  0  0  0
 42 43  1  0  0  0
 42 66  1  0  0  0
 42116  1  0  0  0
 42117  1  0  0  0
 43 44  1  0  0  0
 44118  1  0  0  0
 45 46  2  0  0  0
 45119  1  0  0  0
 46120  1  0  0  0
 47121  1  0  0  0
 47122  1  0  0  0
 48 56  1  0  0  0
 48 65  1  0  0  0
 48123  1  0  0  0
 49 50  1  0  0  0
 49 53  1  0  0  0
 49 64  1  0  0  0
 49124  1  0  0  0
 50 51  1  0  0  0
 50125  1  0  0  0
 50126  1  0  0  0
 51 52  1  0  0  0
 51127  1  0  0  0
 51128  1  0  0  0
 52129  1  0  0  0
 52130  1  0  0  0
 53 54  1  0  0  0
 54 55  2  0  0  0
 54131  1  0  0  0
 55 57  1  0  0  0
 55132  1  0  0  0
 56 69  2  0  0  0
 57 58  2  0  0  0
 57133  1  0  0  0
 58134  1  0  0  0
 59 60  1  0  0  0
 59 61  1  0  0  0
 59 62  1  0  0  0
 60135  1  0  0  0
 60136  1  0  0  0
 60137  1  0  0  0
 61138  1  0  0  0
 61139  1  0  0  0
 61140  1  0  0  0
 62141  1  0  0  0
 62142  1  0  0  0
 62143  1  0  0  0
 63 65  1  0  0  0
 63144  1  0  0  0
 63145  1  0  0  0
 63146  1  0  0  0
 64147  1  0  0  0
 65148  1  0  0  0
 68 87  1  0  0  0
 71 73  2  0  0  0
 71 76  1  0  0  0
 71149  1  0  0  0
 72 74  1  0  0  0
 72 76  2  0  0  0
 72 77  1  0  0  0
 73 75  1  0  0  0
 73 83  1  0  0  0
 74 75  2  0  0  0
 74 84  1  0  0  0
 75 85  1  0  0  0
 76 89  1  0  0  0
 77 78  2  0  0  0
 77150  1  0  0  0
 78 87  1  0  0  0
 78151  1  0  0  0
 79 81  1  0  0  0
 79 83  1  0  0  0
 79152  1  0  0  0
 79153  1  0  0  0
 80 82  1  0  0  0
 80 83  1  0  0  0
 80154  1  0  0  0
 80155  1  0  0  0
 81 88  1  0  0  0
 81156  1  0  0  0
 81157  1  0  0  0
 82 88  1  0  0  0
 82158  1  0  0  0
 82159  1  0  0  0
 83160  1  0  0  0
 84161  1  0  0  0
 84162  1  0  0  0
 84163  1  0  0  0
 85164  1  0  0  0
 85165  1  0  0  0
 85166  1  0  0  0
 86 89  1  0  0  0
 86167  1  0  0  0
 86168  1  0  0  0
 86169  1  0  0  0
 87170  1  0  0  0
 87171  1  0  0  0
M  ISO  4   1 100  68 101  87 101  88 100
M  END
> <chiral flag>
0

> <version>
0

> <s_m_source_file>
/data/baiqing/PycharmProjects/Reinvent-master-3.2/result/LINK_invent/BTK/process_docking_weight1_custom_sum_contain_oxygen_bond_distance_aromatic_linkinvent_7_9_3/rearranged_h_0161.sdf

> <i_m_source_file_index>
74

> <r_mmod_Potential_Energy-OPLS-2005>
214.686218261719

> <r_mmod_Stretch_Energy-OPLS-2005>
43.4528388977051

> <r_mmod_Bend_Energy-OPLS-2005>
128.355865478516

> <r_mmod_Torsional_Energy-OPLS-2005>
340.052825927734

> <r_mmod_Improper_Torsional_Energy-OPLS-2005>
5.9098653793335

> <r_mmod_Van_der_Waal_Energy-OPLS-2005>
184.40739440918

> <r_mmod_Electrostatic_Energy-OPLS-2005>
-301.708282470703

> <r_mmod_Solvation_Energy-OPLS-2005>
-197.920318603516

> <b_mmod_Minimization_Converged-OPLS-2005>
0

> <r_mmod_RMS_Derivative-OPLS-2005>
2.5045337677002

$$$$
74
                    3D
 Structure written by MMmdl.
176185  0  0  1  0            999 V2000
  -30.7118  -14.4772   20.6377 C   0  0  0  0  0  0
  -30.4260  -12.3365   19.4167 C   0  0  0  0  0  0
  -29.4889  -12.5150   18.2039 C   0  0  0  0  0  0
  -28.0151  -12.3392   18.6186 C   0  0  0  0  0  0
  -27.6608  -13.1756   19.8718 C   0  0  2  0  0  0
  -28.7071  -12.9256   20.9907 C   0  0  0  0  0  0
  -25.2600  -13.8092   20.5626 C   0  0  0  0  0  0
  -24.1839  -13.0413   20.9173 C   0  0  0  0  0  0
  -24.6355  -11.6868   20.8737 C   0  0  0  0  0  0
  -23.9018  -10.4276   21.0409 C   0  0  0  0  0  0
  -24.3586   -9.4199   21.9183 C   0  0  0  0  0  0
  -23.6273   -8.2232   22.0752 C   0  0  0  0  0  0
  -22.4256   -8.0269   21.3543 C   0  0  0  0  0  0
  -21.9881   -9.0238   20.4643 C   0  0  0  0  0  0
  -22.7199  -10.2121   20.3051 C   0  0  0  0  0  0
  -21.6849   -6.0727   22.5280 C   0  0  0  0  0  0
  -21.4015   -6.5634   23.8212 C   0  0  0  0  0  0
  -21.3652   -5.6788   24.9174 C   0  0  0  0  0  0
  -21.6042   -4.3050   24.7226 C   0  0  0  0  0  0
  -21.8820   -3.8141   23.4347 C   0  0  0  0  0  0
  -21.9192   -4.6956   22.3402 C   0  0  0  0  0  0
  -22.7868  -13.5232   21.1846 C   0  0  0  0  0  0
  -22.1661   -4.2140   21.0979 F   0  0  0  0  0  0
  -21.5625   -3.4534   25.7738 F   0  0  0  0  0  0
  -30.0247  -13.3046   20.4591 N   0  0  0  0  0  0
  -26.3006  -12.9196   20.3334 N   0  0  0  0  0  0
  -25.9266  -11.6392   20.5761 N   0  0  0  0  0  0
  -22.0508  -12.8234   22.0411 N   0  0  0  0  0  0
  -25.4313  -15.1803   20.3956 N   0  0  0  0  0  0
  -31.7977  -14.6548   20.0711 O   0  0  0  0  0  0
  -21.6632   -6.8865   21.4240 O   0  0  0  0  0  0
  -22.3555  -14.5537   20.6690 O   0  0  0  0  0  0
  -24.6133  -31.8685   23.2108 C   0  0  0  0  0  0
  -25.9031  -32.4826   23.8398 C   0  0  1  0  0  0
  -27.2458  -27.4530   20.0713 C   0  0  0  0  0  0
  -25.5893  -33.8625   24.2330 N   0  0  0  0  0  0
  -23.4003  -30.4921   21.5510 C   0  0  2  0  0  0
  -24.8465  -28.9570   20.1166 C   0  0  0  0  0  0
  -22.7399  -29.4663   22.4997 C   0  0  0  0  0  0
  -18.0273  -28.1377   22.8493 C   0  0  0  0  0  0
  -24.1487  -36.7319   23.2637 C   0  0  0  0  0  0
  -25.9280  -30.8354   21.3631 C   0  0  0  0  0  0
  -26.0051  -29.4699   20.7117 C   0  0  0  0  0  0
  -27.2019  -28.7199   20.6960 C   0  0  0  0  0  0
  -26.0569  -26.9371   19.5033 C   0  0  0  0  0  0
  -24.8650  -27.6859   19.5173 C   0  0  0  0  0  0
  -23.6079  -29.8223   20.1663 C   0  0  0  0  0  0
  -25.4108  -36.3115   24.0339 C   0  0  1  0  0  0
  -20.5859  -28.3661   23.1325 C   0  0  2  0  0  0
  -20.6761  -26.9397   22.5423 C   0  0  0  0  0  0
  -19.5747  -26.6385   21.5213 C   0  0  0  0  0  0
  -18.1921  -26.7929   22.1613 C   0  0  0  0  0  0
  -19.1520  -28.8835   23.2908 C   0  0  0  0  0  0
  -18.9448  -30.1441   23.8915 C   0  0  0  0  0  0
  -17.6452  -30.6585   24.0566 C   0  0  0  0  0  0
  -25.9034  -34.9479   23.5132 C   0  0  0  0  0  0
  -16.5344  -29.9088   23.6322 C   0  0  0  0  0  0
  -16.7263  -28.6504   23.0345 C   0  0  0  0  0  0
  -26.4464  -31.6601   25.0723 C   0  0  0  0  0  0
  -25.3734  -31.3695   26.1472 C   0  0  0  0  0  0
  -27.0297  -30.3048   24.6090 C   0  0  0  0  0  0
  -27.6045  -32.4316   25.7483 C   0  0  0  0  0  0
  -27.5587  -37.1810   24.8460 C   0  0  0  0  0  0
  -21.4127  -29.3032   22.3733 N   0  0  0  0  0  0
  -26.4296  -37.3799   23.9411 N   0  0  0  0  0  0
  -24.6653  -31.0793   22.1004 N   0  0  0  0  0  0
  -23.4174  -28.8209   23.3038 O   0  0  0  0  0  0
  -28.4378  -26.7572   20.0785 O   0  0  0  0  0  0
  -26.5596  -34.8930   22.4694 O   0  0  0  0  0  0
  -23.5329  -32.1433   23.7511 O   0  0  0  0  0  0
  -29.6966  -21.6862   19.6735 C   0  0  0  0  0  0
  -29.4576  -19.7960   21.2281 C   0  0  0  0  0  0
  -29.9994  -20.3586   20.0361 C   0  0  0  0  0  0
  -28.5572  -20.6044   22.0001 C   0  0  0  0  0  0
  -28.3148  -21.9728   21.6581 C   0  0  0  0  0  0
  -28.8627  -22.5020   20.4633 C   0  0  0  0  0  0
  -28.7641  -17.3359   21.0226 C   0  0  0  0  0  0
  -31.1754  -17.7509   21.5991 C   0  0  0  0  0  0
  -28.8951  -15.9491   21.6742 C   0  0  0  0  0  0
  -31.2160  -16.3228   22.2128 C   0  0  0  0  0  0
  -29.7393  -18.3298   21.6662 C   0  0  0  0  0  0
  -30.8650  -19.5798   19.0586 C   0  0  0  0  0  0
  -27.7854  -19.9988   23.1802 C   0  0  0  0  0  0
  -26.0694  -23.1617   21.9644 C   0  0  0  0  0  0
  -28.1738  -24.1864   22.9886 C   0  0  0  0  0  0
  -28.7637  -25.9121   18.9680 C   0  0  0  0  0  0
  -29.4462  -24.6095   19.4263 C   0  0  0  0  0  0
  -27.4588  -22.8879   22.5640 C   0  0  0  0  0  0
  -30.2653  -15.4045   21.5436 N   0  0  0  0  0  0
  -28.4845  -23.7669   20.0577 O   0  0  0  0  0  0
  -31.4652  -12.4524   19.1049 H   0  0  0  0  0  0
  -30.3578  -11.3182   19.8032 H   0  0  0  0  0  0
  -29.7436  -11.7990   17.4215 H   0  0  0  0  0  0
  -29.6328  -13.5061   17.7710 H   0  0  0  0  0  0
  -27.8471  -11.2808   18.8215 H   0  0  0  0  0  0
  -27.3549  -12.5983   17.7904 H   0  0  0  0  0  0
  -27.7054  -14.2108   19.5391 H   0  0  0  0  0  0
  -28.7120  -11.8659   21.2497 H   0  0  0  0  0  0
  -28.4649  -13.4098   21.9348 H   0  0  0  0  0  0
  -25.2730   -9.5690   22.4754 H   0  0  0  0  0  0
  -23.9988   -7.4626   22.7468 H   0  0  0  0  0  0
  -21.0815   -8.8751   19.8948 H   0  0  0  0  0  0
  -22.3654  -10.9661   19.6162 H   0  0  0  0  0  0
  -21.2017   -7.6142   23.9713 H   0  0  0  0  0  0
  -21.1469   -6.0518   25.9075 H   0  0  0  0  0  0
  -22.0604   -2.7603   23.2852 H   0  0  0  0  0  0
  -22.4114  -11.9887   22.4795 H   0  0  0  0  0  0
  -21.1130  -13.1269   22.2621 H   0  0  0  0  0  0
  -24.6614  -15.8327   20.4952 H   0  0  0  0  0  0
  -26.2772  -15.6168   20.0536 H   0  0  0  0  0  0
  -26.7102  -32.5542   23.1164 H   0  0  0  0  0  0
  -25.0047  -33.9791   25.0477 H   0  0  0  0  0  0
  -22.6886  -31.3085   21.4115 H   0  0  0  0  0  0
  -23.3753  -35.9646   23.3295 H   0  0  0  0  0  0
  -24.3576  -36.8943   22.2051 H   0  0  0  0  0  0
  -23.7237  -37.6522   23.6656 H   0  0  0  0  0  0
  -26.0385  -31.6007   20.5935 H   0  0  0  0  0  0
  -26.8165  -30.8892   21.9805 H   0  0  0  0  0  0
  -28.0981  -29.1152   21.1536 H   0  0  0  0  0  0
  -26.0212  -25.9501   19.0672 H   0  0  0  0  0  0
  -23.9686  -27.2753   19.0735 H   0  0  0  0  0  0
  -23.7147  -30.5958   19.4048 H   0  0  0  0  0  0
  -22.7321  -29.2408   19.8721 H   0  0  0  0  0  0
  -25.1283  -36.1980   25.0832 H   0  0  0  0  0  0
  -20.9954  -28.3228   24.1443 H   0  0  0  0  0  0
  -20.5655  -26.2268   23.3606 H   0  0  0  0  0  0
  -21.6636  -26.7434   22.1228 H   0  0  0  0  0  0
  -19.6907  -25.6299   21.1236 H   0  0  0  0  0  0
  -19.6697  -27.3198   20.6748 H   0  0  0  0  0  0
  -17.4198  -26.6693   21.4005 H   0  0  0  0  0  0
  -18.0306  -26.0060   22.8994 H   0  0  0  0  0  0
  -19.7925  -30.7251   24.2292 H   0  0  0  0  0  0
  -17.5010  -31.6266   24.5168 H   0  0  0  0  0  0
  -15.5345  -30.2997   23.7637 H   0  0  0  0  0  0
  -15.8663  -28.0833   22.7045 H   0  0  0  0  0  0
  -24.5931  -30.7009   25.7817 H   0  0  0  0  0  0
  -24.8891  -32.2839   26.4905 H   0  0  0  0  0  0
  -25.8098  -30.8890   27.0237 H   0  0  0  0  0  0
  -26.2838  -29.6810   24.1148 H   0  0  0  0  0  0
  -27.4082  -29.7279   25.4539 H   0  0  0  0  0  0
  -27.8664  -30.4376   23.9227 H   0  0  0  0  0  0
  -27.2672  -33.3604   26.2092 H   0  0  0  0  0  0
  -28.3834  -32.6891   25.0295 H   0  0  0  0  0  0
  -28.0734  -31.8420   26.5370 H   0  0  0  0  0  0
  -28.2601  -38.0113   24.7524 H   0  0  0  0  0  0
  -28.1090  -36.2647   24.6264 H   0  0  0  0  0  0
  -27.2308  -37.1438   25.8864 H   0  0  0  0  0  0
  -20.9278  -29.8758   21.6965 H   0  0  0  0  0  0
  -26.0189  -38.2878   24.1421 H   0  0  0  0  0  0
  -30.0908  -22.0577   18.7402 H   0  0  0  0  0  0
  -27.7392  -17.6897   21.1398 H   0  0  0  0  0  0
  -28.9363  -17.2655   19.9488 H   0  0  0  0  0  0
  -31.5492  -17.6658   20.5841 H   0  0  0  0  0  0
  -31.8637  -18.4046   22.1362 H   0  0  0  0  0  0
  -28.1186  -15.3498   21.2330 H   0  0  0  0  0  0
  -28.6376  -16.0060   22.7329 H   0  0  0  0  0  0
  -30.9667  -16.3687   23.2739 H   0  0  0  0  0  0
  -32.2369  -15.9373   22.1808 H   0  0  0  0  0  0
  -29.5745  -18.3036   22.7403 H   0  0  0  0  0  0
  -31.8918  -19.5189   19.4193 H   0  0  0  0  0  0
  -30.9003  -20.0663   18.0831 H   0  0  0  0  0  0
  -30.4754  -18.5784   18.8826 H   0  0  0  0  0  0
  -27.6360  -18.9241   23.1150 H   0  0  0  0  0  0
  -26.7650  -20.3785   23.2225 H   0  0  0  0  0  0
  -28.2831  -20.2228   24.1243 H   0  0  0  0  0  0
  -25.5361  -22.2301   21.7733 H   0  0  0  0  0  0
  -26.1307  -23.7073   21.0231 H   0  0  0  0  0  0
  -25.4582  -23.7542   22.6459 H   0  0  0  0  0  0
  -29.1494  -23.9706   23.4250 H   0  0  0  0  0  0
  -27.5918  -24.7156   23.7438 H   0  0  0  0  0  0
  -28.3235  -24.8858   22.1687 H   0  0  0  0  0  0
  -27.9392  -25.6728   18.3004 H   0  0  0  0  0  0
  -29.4699  -26.4719   18.3544 H   0  0  0  0  0  0
  -30.2704  -24.8214   20.1086 H   0  0  0  0  0  0
  -29.8676  -24.1366   18.5411 H   0  0  0  0  0  0
  -27.2880  -22.4023   23.5204 H   0  0  0  0  0  0
  1 25  1  0  0  0
  1 30  2  0  0  0
  1 89  1  0  0  0
  2  3  1  0  0  0
  2 25  1  0  0  0
  2 91  1  0  0  0
  2 92  1  0  0  0
  3  4  1  0  0  0
  3 93  1  0  0  0
  3 94  1  0  0  0
  4  5  1  0  0  0
  4 95  1  0  0  0
  4 96  1  0  0  0
  5  6  1  0  0  0
  5 26  1  0  0  0
  5 97  1  0  0  0
  6 25  1  0  0  0
  6 98  1  0  0  0
  6 99  1  0  0  0
  7  8  2  0  0  0
  7 26  1  0  0  0
  7 29  1  0  0  0
  8  9  1  0  0  0
  8 22  1  0  0  0
  9 10  1  0  0  0
  9 27  2  0  0  0
 10 11  2  0  0  0
 10 15  1  0  0  0
 11 12  1  0  0  0
 11100  1  0  0  0
 12 13  2  0  0  0
 12101  1  0  0  0
 13 14  1  0  0  0
 13 31  1  0  0  0
 14 15  2  0  0  0
 14102  1  0  0  0
 15103  1  0  0  0
 16 17  2  0  0  0
 16 21  1  0  0  0
 16 31  1  0  0  0
 17 18  1  0  0  0
 17104  1  0  0  0
 18 19  2  0  0  0
 18105  1  0  0  0
 19 20  1  0  0  0
 19 24  1  0  0  0
 20 21  2  0  0  0
 20106  1  0  0  0
 21 23  1  0  0  0
 22 28  1  0  0  0
 22 32  2  0  0  0
 26 27  1  0  0  0
 28107  1  0  0  0
 28108  1  0  0  0
 29109  1  0  0  0
 29110  1  0  0  0
 33 34  1  0  0  0
 33 66  1  0  0  0
 33 70  2  0  0  0
 34 36  1  0  0  0
 34 59  1  0  0  0
 34111  1  0  0  0
 35 44  2  0  0  0
 35 45  1  0  0  0
 35 68  1  0  0  0
 36 56  1  0  0  0
 36112  1  0  0  0
 37 39  1  0  0  0
 37 47  1  0  0  0
 37 66  1  0  0  0
 37113  1  0  0  0
 38 43  2  0  0  0
 38 46  1  0  0  0
 38 47  1  0  0  0
 39 64  1  0  0  0
 39 67  2  0  0  0
 40 52  1  0  0  0
 40 53  2  0  0  0
 40 58  1  0  0  0
 41114  1  0  0  0
 41115  1  0  0  0
 41116  1  0  0  0
 41 48  1  0  0  0
 42 43  1  0  0  0
 42 66  1  0  0  0
 42117  1  0  0  0
 42118  1  0  0  0
 43 44  1  0  0  0
 44119  1  0  0  0
 45 46  2  0  0  0
 45120  1  0  0  0
 46121  1  0  0  0
 47122  1  0  0  0
 47123  1  0  0  0
 48 56  1  0  0  0
 48 65  1  0  0  0
 48124  1  0  0  0
 49 50  1  0  0  0
 49 53  1  0  0  0
 49 64  1  0  0  0
 49125  1  0  0  0
 50 51  1  0  0  0
 50126  1  0  0  0
 50127  1  0  0  0
 51 52  1  0  0  0
 51128  1  0  0  0
 51129  1  0  0  0
 52130  1  0  0  0
 52131  1  0  0  0
 53 54  1  0  0  0
 54 55  2  0  0  0
 54132  1  0  0  0
 55 57  1  0  0  0
 55133  1  0  0  0
 56 69  2  0  0  0
 57 58  2  0  0  0
 57134  1  0  0  0
 58135  1  0  0  0
 59 60  1  0  0  0
 59 61  1  0  0  0
 59 62  1  0  0  0
 60136  1  0  0  0
 60137  1  0  0  0
 60138  1  0  0  0
 61139  1  0  0  0
 61140  1  0  0  0
 61141  1  0  0  0
 62142  1  0  0  0
 62143  1  0  0  0
 62144  1  0  0  0
 63 65  1  0  0  0
 63145  1  0  0  0
 63146  1  0  0  0
 63147  1  0  0  0
 64148  1  0  0  0
 65149  1  0  0  0
 68 86  1  0  0  0
 71 73  2  0  0  0
 71 76  1  0  0  0
 71150  1  0  0  0
 72 73  1  0  0  0
 72 74  2  0  0  0
 72 81  1  0  0  0
 73 82  1  0  0  0
 74 75  1  0  0  0
 74 83  1  0  0  0
 75 76  2  0  0  0
 75 88  1  0  0  0
 76 90  1  0  0  0
 77 79  1  0  0  0
 77 81  1  0  0  0
 77151  1  0  0  0
 77152  1  0  0  0
 78 80  1  0  0  0
 78 81  1  0  0  0
 78153  1  0  0  0
 78154  1  0  0  0
 79 89  1  0  0  0
 79155  1  0  0  0
 79156  1  0  0  0
 80 89  1  0  0  0
 80157  1  0  0  0
 80158  1  0  0  0
 81159  1  0  0  0
 82160  1  0  0  0
 82161  1  0  0  0
 82162  1  0  0  0
 83163  1  0  0  0
 83164  1  0  0  0
 83165  1  0  0  0
 84166  1  0  0  0
 84167  1  0  0  0
 84168  1  0  0  0
 84 88  1  0  0  0
 85 88  1  0  0  0
 85169  1  0  0  0
 85170  1  0  0  0
 85171  1  0  0  0
 86 87  1  0  0  0
 86172  1  0  0  0
 86173  1  0  0  0
 87 90  1  0  0  0
 87174  1  0  0  0
 87175  1  0  0  0
 88176  1  0  0  0
M  ISO  4   1 100  68 101  86 101  89 100
M  END
> <chiral flag>
0

> <version>
0

> <s_m_source_file>
/data/baiqing/PycharmProjects/Reinvent-master-3.2/result/LINK_invent/BTK/process_docking_weight1_custom_sum_contain_oxygen_bond_distance_aromatic_linkinvent_7_9_3/rearranged_h_0161.sdf

> <i_m_source_file_index>
75

> <r_mmod_Potential_Energy-OPLS-2005>
224.673416137695

> <r_mmod_Stretch_Energy-OPLS-2005>
52.3129997253418

> <r_mmod_Bend_Energy-OPLS-2005>
148.955459594727

> <r_mmod_Torsional_Energy-OPLS-2005>
309.164520263672

> <r_mmod_Improper_Torsional_Energy-OPLS-2005>
4.51545381546021

> <r_mmod_Van_der_Waal_Energy-OPLS-2005>
187.432434082031

> <r_mmod_Electrostatic_Energy-OPLS-2005>
-295.32861328125

> <r_mmod_Solvation_Energy-OPLS-2005>
-194.219909667969

> <b_mmod_Minimization_Converged-OPLS-2005>
0

> <r_mmod_RMS_Derivative-OPLS-2005>
0.632173895835876

$$$$
75
                    3D
 Structure written by MMmdl.
172181  0  0  1  0            999 V2000
  -30.7038  -14.4950   20.5248 C   0  0  0  0  0  0
  -30.4116  -12.3069   19.4357 C   0  0  0  0  0  0
  -29.4926  -12.4864   18.2108 C   0  0  0  0  0  0
  -28.0134  -12.3509   18.6231 C   0  0  0  0  0  0
  -27.6532  -13.2120   19.8637 C   0  0  2  0  0  0
  -28.6937  -13.0347   20.9895 C   0  0  0  0  0  0
  -25.2571  -13.8179   20.5692 C   0  0  0  0  0  0
  -24.1828  -13.0449   20.9180 C   0  0  0  0  0  0
  -24.6390  -11.6913   20.8738 C   0  0  0  0  0  0
  -23.9062  -10.4296   21.0411 C   0  0  0  0  0  0
  -24.3618   -9.4211   21.9186 C   0  0  0  0  0  0
  -23.6297   -8.2245   22.0759 C   0  0  0  0  0  0
  -22.4277   -8.0284   21.3549 C   0  0  0  0  0  0
  -21.9912   -9.0254   20.4648 C   0  0  0  0  0  0
  -22.7241  -10.2133   20.3056 C   0  0  0  0  0  0
  -21.6849   -6.0742   22.5286 C   0  0  0  0  0  0
  -21.4007   -6.5645   23.8219 C   0  0  0  0  0  0
  -21.3658   -5.6799   24.9181 C   0  0  0  0  0  0
  -21.6049   -4.3063   24.7228 C   0  0  0  0  0  0
  -21.8815   -3.8152   23.4349 C   0  0  0  0  0  0
  -21.9190   -4.6971   22.3408 C   0  0  0  0  0  0
  -22.7855  -13.5247   21.1849 C   0  0  0  0  0  0
  -22.1660   -4.2158   21.0985 F   0  0  0  0  0  0
  -21.5632   -3.4545   25.7739 F   0  0  0  0  0  0
  -30.0152  -13.3252   20.4212 N   0  0  0  0  0  0
  -26.2987  -12.9352   20.3326 N   0  0  0  0  0  0
  -25.9312  -11.6511   20.5768 N   0  0  0  0  0  0
  -22.0498  -12.8228   22.0404 N   0  0  0  0  0  0
  -25.4315  -15.1898   20.4132 N   0  0  0  0  0  0
  -31.8869  -14.5804   20.1782 O   0  0  0  0  0  0
  -21.6638   -6.8880   21.4249 O   0  0  0  0  0  0
  -22.3534  -14.5553   20.6706 O   0  0  0  0  0  0
  -24.6133  -31.8675   23.2084 C   0  0  0  0  0  0
  -25.9018  -32.4815   23.8387 C   0  0  1  0  0  0
  -27.2267  -27.4193   20.0906 C   0  0  0  0  0  0
  -25.5878  -33.8616   24.2324 N   0  0  0  0  0  0
  -23.4002  -30.4933   21.5495 C   0  0  2  0  0  0
  -24.8424  -28.9552   20.1163 C   0  0  0  0  0  0
  -22.7391  -29.4669   22.4968 C   0  0  0  0  0  0
  -18.0255  -28.1416   22.8477 C   0  0  0  0  0  0
  -24.1487  -36.7315   23.2649 C   0  0  0  0  0  0
  -25.9305  -30.8279   21.3617 C   0  0  0  0  0  0
  -26.0025  -29.4597   20.7139 C   0  0  0  0  0  0
  -27.1931  -28.6981   20.6964 C   0  0  0  0  0  0
  -26.0424  -26.9324   19.4888 C   0  0  0  0  0  0
  -24.8575  -27.6917   19.5036 C   0  0  0  0  0  0
  -23.6071  -29.8247   20.1654 C   0  0  0  0  0  0
  -25.4101  -36.3109   24.0354 C   0  0  1  0  0  0
  -20.5847  -28.3675   23.1315 C   0  0  2  0  0  0
  -20.6755  -26.9417   22.5404 C   0  0  0  0  0  0
  -19.5732  -26.6393   21.5213 C   0  0  0  0  0  0
  -18.1905  -26.7963   22.1618 C   0  0  0  0  0  0
  -19.1510  -28.8854   23.2910 C   0  0  0  0  0  0
  -18.9453  -30.1462   23.8925 C   0  0  0  0  0  0
  -17.6464  -30.6621   24.0564 C   0  0  0  0  0  0
  -25.9016  -34.9476   23.5141 C   0  0  0  0  0  0
  -16.5343  -29.9133   23.6336 C   0  0  0  0  0  0
  -16.7248  -28.6553   23.0342 C   0  0  0  0  0  0
  -26.4451  -31.6595   25.0712 C   0  0  0  0  0  0
  -25.3732  -31.3699   26.1465 C   0  0  0  0  0  0
  -27.0296  -30.3051   24.6076 C   0  0  0  0  0  0
  -27.6029  -32.4319   25.7469 C   0  0  0  0  0  0
  -27.5581  -37.1805   24.8475 C   0  0  0  0  0  0
  -21.4109  -29.3057   22.3727 N   0  0  0  0  0  0
  -26.4294  -37.3791   23.9414 N   0  0  0  0  0  0
  -24.6672  -31.0776   22.0989 N   0  0  0  0  0  0
  -23.4164  -28.8189   23.2995 O   0  0  0  0  0  0
  -28.4305  -26.7395   20.0915 O   0  0  0  0  0  0
  -26.5592  -34.8934   22.4704 O   0  0  0  0  0  0
  -23.5328  -32.1414   23.7472 O   0  0  0  0  0  0
  -29.8608  -22.6743   22.9843 C   0  0  0  0  0  0
  -28.5351  -23.0972   20.9979 C   0  0  0  0  0  0
  -28.9725  -22.1973   22.0015 C   0  0  0  0  0  0
  -30.3436  -23.9950   22.9582 C   0  0  0  0  0  0
  -29.0024  -24.4411   20.9514 C   0  0  0  0  0  0
  -29.9432  -24.8836   21.9272 C   0  0  0  0  0  0
  -29.2859  -17.8353   19.5000 C   0  0  0  0  0  0
  -28.8266  -17.5242   21.8883 C   0  0  0  0  0  0
  -30.2249  -16.6160   19.5167 C   0  0  0  0  0  0
  -29.7438  -16.2671   21.9135 C   0  0  0  0  0  0
  -29.3063  -18.5600   20.8511 C   0  0  0  0  0  0
  -31.3087  -24.4259   24.0512 C   0  0  0  0  0  0
  -30.5334  -26.2936   21.8775 C   0  0  0  0  0  0
  -27.1167  -20.6734   22.7798 C   0  0  0  0  0  0
  -28.5367  -25.3339   19.7867 C   0  0  0  0  0  0
  -28.5318  -19.9124   20.7868 C   0  0  0  0  0  0
  -28.4955  -20.7384   22.1051 C   0  0  1  0  0  0
  -29.9527  -15.6325   20.5932 N   0  0  0  0  0  0
  -31.4596  -12.3852   19.1403 H   0  0  0  0  0  0
  -30.2967  -11.3081   19.8599 H   0  0  0  0  0  0
  -29.7354  -11.7477   17.4456 H   0  0  0  0  0  0
  -29.6618  -13.4648   17.7575 H   0  0  0  0  0  0
  -27.8304  -11.2980   18.8411 H   0  0  0  0  0  0
  -27.3625  -12.6036   17.7858 H   0  0  0  0  0  0
  -27.6839  -14.2532   19.5424 H   0  0  0  0  0  0
  -28.6735  -12.0149   21.3762 H   0  0  0  0  0  0
  -28.4589  -13.6792   21.8349 H   0  0  0  0  0  0
  -25.2766   -9.5689   22.4760 H   0  0  0  0  0  0
  -24.0011   -7.4634   22.7477 H   0  0  0  0  0  0
  -21.0844   -8.8769   19.8950 H   0  0  0  0  0  0
  -22.3705  -10.9670   19.6160 H   0  0  0  0  0  0
  -21.1990   -7.6151   23.9726 H   0  0  0  0  0  0
  -21.1489   -6.0528   25.9085 H   0  0  0  0  0  0
  -22.0592   -2.7617   23.2849 H   0  0  0  0  0  0
  -22.4110  -11.9879   22.4771 H   0  0  0  0  0  0
  -21.1127  -13.1264   22.2626 H   0  0  0  0  0  0
  -24.6739  -15.8525   20.5368 H   0  0  0  0  0  0
  -26.3007  -15.6276   20.1336 H   0  0  0  0  0  0
  -26.7066  -32.5516   23.1132 H   0  0  0  0  0  0
  -25.0042  -33.9783   25.0478 H   0  0  0  0  0  0
  -22.6895  -31.3106   21.4085 H   0  0  0  0  0  0
  -23.3760  -35.9642   23.3317 H   0  0  0  0  0  0
  -24.3587  -36.8915   22.2065 H   0  0  0  0  0  0
  -23.7242  -37.6528   23.6645 H   0  0  0  0  0  0
  -26.0405  -31.5875   20.5867 H   0  0  0  0  0  0
  -26.8219  -30.8852   21.9751 H   0  0  0  0  0  0
  -28.0926  -29.0896   21.1484 H   0  0  0  0  0  0
  -25.9933  -25.9829   18.9825 H   0  0  0  0  0  0
  -23.9682  -27.2965   19.0328 H   0  0  0  0  0  0
  -23.7183  -30.5981   19.4057 H   0  0  0  0  0  0
  -22.7292  -29.2492   19.8666 H   0  0  0  0  0  0
  -25.1280  -36.1978   25.0855 H   0  0  0  0  0  0
  -20.9926  -28.3237   24.1443 H   0  0  0  0  0  0
  -20.5665  -26.2288   23.3586 H   0  0  0  0  0  0
  -21.6626  -26.7484   22.1189 H   0  0  0  0  0  0
  -19.6900  -25.6302   21.1256 H   0  0  0  0  0  0
  -19.6694  -27.3187   20.6735 H   0  0  0  0  0  0
  -17.4171  -26.6686   21.4025 H   0  0  0  0  0  0
  -18.0312  -26.0127   22.9036 H   0  0  0  0  0  0
  -19.7938  -30.7251   24.2310 H   0  0  0  0  0  0
  -17.5042  -31.6306   24.5155 H   0  0  0  0  0  0
  -15.5359  -30.3060   23.7672 H   0  0  0  0  0  0
  -15.8634  -28.0897   22.7054 H   0  0  0  0  0  0
  -24.5901  -30.7044   25.7805 H   0  0  0  0  0  0
  -24.8928  -32.2860   26.4912 H   0  0  0  0  0  0
  -25.8087  -30.8870   27.0222 H   0  0  0  0  0  0
  -26.2834  -29.6799   24.1156 H   0  0  0  0  0  0
  -27.4134  -29.7289   25.4506 H   0  0  0  0  0  0
  -27.8632  -30.4418   23.9186 H   0  0  0  0  0  0
  -27.2644  -33.3619   26.2050 H   0  0  0  0  0  0
  -28.3821  -32.6867   25.0274 H   0  0  0  0  0  0
  -28.0709  -31.8447   26.5379 H   0  0  0  0  0  0
  -28.2593  -38.0107   24.7505 H   0  0  0  0  0  0
  -28.1084  -36.2632   24.6310 H   0  0  0  0  0  0
  -27.2304  -37.1466   25.8885 H   0  0  0  0  0  0
  -20.9228  -29.8831   21.7017 H   0  0  0  0  0  0
  -26.0195  -38.2882   24.1399 H   0  0  0  0  0  0
  -30.1828  -22.0088   23.7735 H   0  0  0  0  0  0
  -27.8417  -22.7475   20.2456 H   0  0  0  0  0  0
  -28.2702  -17.5209   19.2542 H   0  0  0  0  0  0
  -29.5957  -18.5153   18.7051 H   0  0  0  0  0  0
  -28.8077  -17.9652   22.8853 H   0  0  0  0  0  0
  -27.7986  -17.2304   21.6697 H   0  0  0  0  0  0
  -31.2506  -16.9799   19.6099 H   0  0  0  0  0  0
  -30.1655  -16.1179   18.5460 H   0  0  0  0  0  0
  -29.3345  -15.5463   22.6212 H   0  0  0  0  0  0
  -30.7208  -16.5473   22.3130 H   0  0  0  0  0  0
  -30.3426  -18.8076   21.0871 H   0  0  0  0  0  0
  -31.3874  -23.6790   24.8411 H   0  0  0  0  0  0
  -30.9775  -25.3548   24.5157 H   0  0  0  0  0  0
  -32.3053  -24.5766   23.6355 H   0  0  0  0  0  0
  -31.4505  -26.4066   22.4530 H   0  0  0  0  0  0
  -29.8127  -27.0145   22.2638 H   0  0  0  0  0  0
  -30.7955  -26.5763   20.8585 H   0  0  0  0  0  0
  -27.1393  -21.1437   23.7636 H   0  0  0  0  0  0
  -26.7955  -19.6406   22.9184 H   0  0  0  0  0  0
  -26.3547  -21.1823   22.1884 H   0  0  0  0  0  0
  -27.6446  -24.8928   19.3528 H   0  0  0  0  0  0
  -29.2978  -25.2466   19.0099 H   0  0  0  0  0  0
  -27.5174  -19.7442   20.4232 H   0  0  0  0  0  0
  -29.0095  -20.5132   20.0114 H   0  0  0  0  0  0
  -29.1942  -20.2527   22.7870 H   0  0  0  0  0  0
  1 25  1  0  0  0
  1 30  2  0  0  0
  1 88  1  0  0  0
  2  3  1  0  0  0
  2 25  1  0  0  0
  2 89  1  0  0  0
  2 90  1  0  0  0
  3  4  1  0  0  0
  3 91  1  0  0  0
  3 92  1  0  0  0
  4  5  1  0  0  0
  4 93  1  0  0  0
  4 94  1  0  0  0
  5  6  1  0  0  0
  5 26  1  0  0  0
  5 95  1  0  0  0
  6 25  1  0  0  0
  6 96  1  0  0  0
  6 97  1  0  0  0
  7  8  2  0  0  0
  7 26  1  0  0  0
  7 29  1  0  0  0
  8  9  1  0  0  0
  8 22  1  0  0  0
  9 10  1  0  0  0
  9 27  2  0  0  0
 10 11  2  0  0  0
 10 15  1  0  0  0
 11 12  1  0  0  0
 11 98  1  0  0  0
 12 13  2  0  0  0
 12 99  1  0  0  0
 13 14  1  0  0  0
 13 31  1  0  0  0
 14 15  2  0  0  0
 14100  1  0  0  0
 15101  1  0  0  0
 16 17  2  0  0  0
 16 21  1  0  0  0
 16 31  1  0  0  0
 17 18  1  0  0  0
 17102  1  0  0  0
 18 19  2  0  0  0
 18103  1  0  0  0
 19 20  1  0  0  0
 19 24  1  0  0  0
 20 21  2  0  0  0
 20104  1  0  0  0
 21 23  1  0  0  0
 22 28  1  0  0  0
 22 32  2  0  0  0
 26 27  1  0  0  0
 28105  1  0  0  0
 28106  1  0  0  0
 29107  1  0  0  0
 29108  1  0  0  0
 33 34  1  0  0  0
 33 66  1  0  0  0
 33 70  2  0  0  0
 34 36  1  0  0  0
 34 59  1  0  0  0
 34109  1  0  0  0
 35 44  2  0  0  0
 35 45  1  0  0  0
 35 68  1  0  0  0
 36 56  1  0  0  0
 36110  1  0  0  0
 37 39  1  0  0  0
 37 47  1  0  0  0
 37 66  1  0  0  0
 37111  1  0  0  0
 38 43  2  0  0  0
 38 46  1  0  0  0
 38 47  1  0  0  0
 39 64  1  0  0  0
 39 67  2  0  0  0
 40 52  1  0  0  0
 40 53  2  0  0  0
 40 58  1  0  0  0
 41112  1  0  0  0
 41113  1  0  0  0
 41114  1  0  0  0
 41 48  1  0  0  0
 42 43  1  0  0  0
 42 66  1  0  0  0
 42115  1  0  0  0
 42116  1  0  0  0
 43 44  1  0  0  0
 44117  1  0  0  0
 45 46  2  0  0  0
 45118  1  0  0  0
 46119  1  0  0  0
 47120  1  0  0  0
 47121  1  0  0  0
 48 56  1  0  0  0
 48 65  1  0  0  0
 48122  1  0  0  0
 49 50  1  0  0  0
 49 53  1  0  0  0
 49 64  1  0  0  0
 49123  1  0  0  0
 50 51  1  0  0  0
 50124  1  0  0  0
 50125  1  0  0  0
 51 52  1  0  0  0
 51126  1  0  0  0
 51127  1  0  0  0
 52128  1  0  0  0
 52129  1  0  0  0
 53 54  1  0  0  0
 54 55  2  0  0  0
 54130  1  0  0  0
 55 57  1  0  0  0
 55131  1  0  0  0
 56 69  2  0  0  0
 57 58  2  0  0  0
 57132  1  0  0  0
 58133  1  0  0  0
 59 60  1  0  0  0
 59 61  1  0  0  0
 59 62  1  0  0  0
 60134  1  0  0  0
 60135  1  0  0  0
 60136  1  0  0  0
 61137  1  0  0  0
 61138  1  0  0  0
 61139  1  0  0  0
 62140  1  0  0  0
 62141  1  0  0  0
 62142  1  0  0  0
 63 65  1  0  0  0
 63143  1  0  0  0
 63144  1  0  0  0
 63145  1  0  0  0
 64146  1  0  0  0
 65147  1  0  0  0
 68 85  1  0  0  0
 71 73  2  0  0  0
 71 74  1  0  0  0
 71148  1  0  0  0
 72 73  1  0  0  0
 72 75  2  0  0  0
 72149  1  0  0  0
 73 87  1  0  0  0
 74 76  2  0  0  0
 74 82  1  0  0  0
 75 76  1  0  0  0
 75 85  1  0  0  0
 76 83  1  0  0  0
 77 79  1  0  0  0
 77 81  1  0  0  0
 77150  1  0  0  0
 77151  1  0  0  0
 78 80  1  0  0  0
 78 81  1  0  0  0
 78152  1  0  0  0
 78153  1  0  0  0
 79 88  1  0  0  0
 79154  1  0  0  0
 79155  1  0  0  0
 80 88  1  0  0  0
 80156  1  0  0  0
 80157  1  0  0  0
 81 86  1  0  0  0
 81158  1  0  0  0
 82159  1  0  0  0
 82160  1  0  0  0
 82161  1  0  0  0
 83162  1  0  0  0
 83163  1  0  0  0
 83164  1  0  0  0
 84165  1  0  0  0
 84166  1  0  0  0
 84167  1  0  0  0
 84 87  1  0  0  0
 85168  1  0  0  0
 85169  1  0  0  0
 86 87  1  0  0  0
 86170  1  0  0  0
 86171  1  0  0  0
 87172  1  0  0  0
M  ISO  4   1 100  68 101  85 101  88 100
M  END
> <chiral flag>
0

> <version>
0

> <s_m_source_file>
/data/baiqing/PycharmProjects/Reinvent-master-3.2/result/LINK_invent/BTK/process_docking_weight1_custom_sum_contain_oxygen_bond_distance_aromatic_linkinvent_7_9_3/rearranged_h_0161.sdf

> <i_m_source_file_index>
76

> <r_mmod_Potential_Energy-OPLS-2005>
239.536407470703

> <r_mmod_Stretch_Energy-OPLS-2005>
45.6693000793457

> <r_mmod_Bend_Energy-OPLS-2005>
129.374542236328

> <r_mmod_Torsional_Energy-OPLS-2005>
339.326232910156

> <r_mmod_Improper_Torsional_Energy-OPLS-2005>
16.4493713378906

> <r_mmod_Van_der_Waal_Energy-OPLS-2005>
162.634384155273

> <r_mmod_Electrostatic_Energy-OPLS-2005>
-291.070251464844

> <r_mmod_Solvation_Energy-OPLS-2005>
-182.400650024414

> <b_mmod_Minimization_Converged-OPLS-2005>
0

> <r_mmod_RMS_Derivative-OPLS-2005>
2.06749653816223

$$$$
76
                    3D
 Structure written by MMmdl.
167176  0  0  1  0            999 V2000
  -30.6212  -14.7207   20.4941 C   0  0  0  0  0  0
  -30.4256  -12.4468   19.4696 C   0  0  0  0  0  0
  -29.5036  -12.5168   18.2331 C   0  0  0  0  0  0
  -28.0300  -12.3448   18.6478 C   0  0  0  0  0  0
  -27.6426  -13.2340   19.8592 C   0  0  2  0  0  0
  -28.6852  -13.1446   20.9925 C   0  0  0  0  0  0
  -25.2506  -13.8211   20.5723 C   0  0  0  0  0  0
  -24.1798  -13.0451   20.9202 C   0  0  0  0  0  0
  -24.6397  -11.6927   20.8761 C   0  0  0  0  0  0
  -23.9083  -10.4299   21.0415 C   0  0  0  0  0  0
  -24.3628   -9.4208   21.9190 C   0  0  0  0  0  0
  -23.6301   -8.2243   22.0755 C   0  0  0  0  0  0
  -22.4283   -8.0286   21.3541 C   0  0  0  0  0  0
  -21.9923   -9.0266   20.4645 C   0  0  0  0  0  0
  -22.7258  -10.2142   20.3062 C   0  0  0  0  0  0
  -21.6853   -6.0745   22.5283 C   0  0  0  0  0  0
  -21.4011   -6.5647   23.8218 C   0  0  0  0  0  0
  -21.3663   -5.6800   24.9181 C   0  0  0  0  0  0
  -21.6046   -4.3064   24.7227 C   0  0  0  0  0  0
  -21.8821   -3.8157   23.4349 C   0  0  0  0  0  0
  -21.9189   -4.6972   22.3405 C   0  0  0  0  0  0
  -22.7818  -13.5221   21.1878 C   0  0  0  0  0  0
  -22.1664   -4.2161   21.0982 F   0  0  0  0  0  0
  -21.5625   -3.4547   25.7738 F   0  0  0  0  0  0
  -29.9858  -13.5014   20.4121 N   0  0  0  0  0  0
  -26.2941  -12.9426   20.3337 N   0  0  0  0  0  0
  -25.9326  -11.6563   20.5786 N   0  0  0  0  0  0
  -22.0475  -12.8194   22.0428 N   0  0  0  0  0  0
  -25.4218  -15.1941   20.4185 N   0  0  0  0  0  0
  -31.7773  -14.8334   20.0749 O   0  0  0  0  0  0
  -21.6640   -6.8889   21.4245 O   0  0  0  0  0  0
  -22.3484  -14.5532   20.6748 O   0  0  0  0  0  0
  -24.6308  -31.8539   23.1945 C   0  0  0  0  0  0
  -25.9136  -32.4737   23.8297 C   0  0  1  0  0  0
  -27.2217  -27.2571   20.1141 C   0  0  0  0  0  0
  -25.5929  -33.8538   24.2213 N   0  0  0  0  0  0
  -23.4260  -30.4742   21.5393 C   0  0  2  0  0  0
  -24.8718  -28.9151   20.1096 C   0  0  0  0  0  0
  -22.7495  -29.4578   22.4917 C   0  0  0  0  0  0
  -18.0285  -28.1359   22.8478 C   0  0  0  0  0  0
  -24.1491  -36.7270   23.2638 C   0  0  0  0  0  0
  -25.9714  -30.7635   21.3739 C   0  0  0  0  0  0
  -26.0430  -29.3857   20.7136 C   0  0  0  0  0  0
  -27.2178  -28.5678   20.7057 C   0  0  0  0  0  0
  -26.0187  -26.8436   19.5013 C   0  0  0  0  0  0
  -24.8637  -27.6512   19.4981 C   0  0  0  0  0  0
  -23.6420  -29.8020   20.1577 C   0  0  0  0  0  0
  -25.4118  -36.3053   24.0323 C   0  0  1  0  0  0
  -20.5888  -28.3669   23.1263 C   0  0  2  0  0  0
  -20.6766  -26.9385   22.5406 C   0  0  0  0  0  0
  -19.5741  -26.6358   21.5206 C   0  0  0  0  0  0
  -18.1921  -26.7903   22.1620 C   0  0  0  0  0  0
  -19.1540  -28.8835   23.2859 C   0  0  0  0  0  0
  -18.9469  -30.1436   23.8880 C   0  0  0  0  0  0
  -17.6474  -30.6575   24.0550 C   0  0  0  0  0  0
  -25.9062  -34.9430   23.5072 C   0  0  0  0  0  0
  -16.5356  -29.9071   23.6338 C   0  0  0  0  0  0
  -16.7277  -28.6478   23.0370 C   0  0  0  0  0  0
  -26.4493  -31.6582   25.0708 C   0  0  0  0  0  0
  -25.3700  -31.3784   26.1430 C   0  0  0  0  0  0
  -27.0358  -30.2989   24.6235 C   0  0  0  0  0  0
  -27.6030  -32.4347   25.7493 C   0  0  0  0  0  0
  -27.5576  -37.1781   24.8459 C   0  0  0  0  0  0
  -21.4201  -29.3020   22.3661 N   0  0  0  0  0  0
  -26.4284  -37.3757   23.9411 N   0  0  0  0  0  0
  -24.6949  -31.0508   22.0913 N   0  0  0  0  0  0
  -23.4207  -28.8128   23.3017 O   0  0  0  0  0  0
  -28.3418  -26.3981   20.1907 O   0  0  0  0  0  0
  -26.5653  -34.8922   22.4653 O   0  0  0  0  0  0
  -23.5460  -32.1363   23.7252 O   0  0  0  0  0  0
  -29.1579  -18.5079   20.5078 C   0  0  0  0  0  0
  -30.8022  -17.3092   22.0423 C   0  0  0  0  0  0
  -29.8404  -16.1504   22.3110 C   0  0  0  0  0  0
  -30.2509  -17.3324   20.6188 C   0  0  1  0  0  0
  -28.5467  -22.2441   19.5410 C   0  0  2  0  0  0
  -28.8368  -21.1443   20.6416 C   0  0  2  0  0  0
  -28.2799  -23.6166   20.3222 C   0  0  2  0  0  0
  -29.6134  -22.0298   21.6611 C   0  0  1  0  0  0
  -27.3972  -21.8353   18.6077 C   0  0  0  0  0  0
  -31.1452  -21.9393   21.5114 C   0  0  0  0  0  0
  -28.6062  -24.0453   22.7483 C   0  0  0  0  0  0
  -28.4464  -25.0412   19.5461 C   0  0  0  0  0  0
  -29.8957  -15.8489   20.8705 N   0  0  0  0  0  0
  -29.5454  -19.8226   20.3195 N   0  0  0  0  0  0
  -29.1683  -23.4616   21.5083 N   0  3  2  0  0  0
  -27.9695  -18.2239   20.6591 O   0  0  0  0  0  0
  -31.4681  -12.5637   19.1690 H   0  0  0  0  0  0
  -30.3634  -11.4660   19.9432 H   0  0  0  0  0  0
  -29.7806  -11.7490   17.5093 H   0  0  0  0  0  0
  -29.6338  -13.4765   17.7298 H   0  0  0  0  0  0
  -27.8812  -11.2941   18.9003 H   0  0  0  0  0  0
  -27.3725  -12.5505   17.8029 H   0  0  0  0  0  0
  -27.6448  -14.2632   19.4973 H   0  0  0  0  0  0
  -28.7170  -12.1416   21.4176 H   0  0  0  0  0  0
  -28.4165  -13.8108   21.8123 H   0  0  0  0  0  0
  -25.2771   -9.5683   22.4770 H   0  0  0  0  0  0
  -24.0017   -7.4627   22.7472 H   0  0  0  0  0  0
  -21.0854   -8.8792   19.8942 H   0  0  0  0  0  0
  -22.3724  -10.9687   19.6174 H   0  0  0  0  0  0
  -21.2007   -7.6154   23.9725 H   0  0  0  0  0  0
  -21.1482   -6.0528   25.9083 H   0  0  0  0  0  0
  -22.0595   -2.7619   23.2845 H   0  0  0  0  0  0
  -22.4097  -11.9840   22.4789 H   0  0  0  0  0  0
  -21.1097  -13.1211   22.2668 H   0  0  0  0  0  0
  -24.6632  -15.8548   20.5469 H   0  0  0  0  0  0
  -26.2960  -15.6411   20.1652 H   0  0  0  0  0  0
  -26.7199  -32.5390   23.1034 H   0  0  0  0  0  0
  -25.0065  -33.9654   25.0352 H   0  0  0  0  0  0
  -22.7216  -31.2955   21.3909 H   0  0  0  0  0  0
  -23.3766  -35.9589   23.3288 H   0  0  0  0  0  0
  -24.3572  -36.8908   22.2052 H   0  0  0  0  0  0
  -23.7239  -37.6459   23.6685 H   0  0  0  0  0  0
  -26.1152  -31.5249   20.6061 H   0  0  0  0  0  0
  -26.8458  -30.8087   22.0110 H   0  0  0  0  0  0
  -28.1174  -28.9237   21.1892 H   0  0  0  0  0  0
  -25.9261  -25.8677   19.0512 H   0  0  0  0  0  0
  -23.9584  -27.2765   19.0394 H   0  0  0  0  0  0
  -23.7597  -30.5730   19.3954 H   0  0  0  0  0  0
  -22.7608  -29.2298   19.8622 H   0  0  0  0  0  0
  -25.1297  -36.1885   25.0816 H   0  0  0  0  0  0
  -20.9968  -28.3257   24.1388 H   0  0  0  0  0  0
  -20.5644  -26.2284   23.3617 H   0  0  0  0  0  0
  -21.6635  -26.7396   22.1209 H   0  0  0  0  0  0
  -19.6903  -25.6267   21.1237 H   0  0  0  0  0  0
  -19.6677  -27.3174   20.6744 H   0  0  0  0  0  0
  -17.4185  -26.6649   21.4024 H   0  0  0  0  0  0
  -18.0312  -26.0037   22.9011 H   0  0  0  0  0  0
  -19.7950  -30.7231   24.2247 H   0  0  0  0  0  0
  -17.5041  -31.6263   24.5132 H   0  0  0  0  0  0
  -15.5354  -30.2972   23.7671 H   0  0  0  0  0  0
  -15.8669  -28.0789   22.7117 H   0  0  0  0  0  0
  -24.5836  -30.7178   25.7764 H   0  0  0  0  0  0
  -24.8950  -32.2990   26.4832 H   0  0  0  0  0  0
  -25.7986  -30.8960   27.0222 H   0  0  0  0  0  0
  -26.2970  -29.6719   24.1230 H   0  0  0  0  0  0
  -27.3984  -29.7274   25.4786 H   0  0  0  0  0  0
  -27.8864  -30.4239   23.9533 H   0  0  0  0  0  0
  -27.2603  -33.3651   26.2039 H   0  0  0  0  0  0
  -28.3861  -32.6904   25.0342 H   0  0  0  0  0  0
  -28.0679  -31.8500   26.5438 H   0  0  0  0  0  0
  -28.2568  -38.0100   24.7533 H   0  0  0  0  0  0
  -28.1092  -36.2632   24.6252 H   0  0  0  0  0  0
  -27.2295  -37.1386   25.8858 H   0  0  0  0  0  0
  -20.9397  -29.8764   21.6874 H   0  0  0  0  0  0
  -26.0161  -38.2821   24.1444 H   0  0  0  0  0  0
  -31.8542  -17.0231   22.0903 H   0  0  0  0  0  0
  -30.6091  -18.1974   22.6478 H   0  0  0  0  0  0
  -30.2592  -15.3945   22.9789 H   0  0  0  0  0  0
  -28.8519  -16.4629   22.6556 H   0  0  0  0  0  0
  -31.0403  -17.4729   19.8773 H   0  0  0  0  0  0
  -29.4486  -22.3657   18.9384 H   0  0  0  0  0  0
  -27.8797  -20.8904   21.1022 H   0  0  0  0  0  0
  -27.2504  -23.5702   20.6809 H   0  0  0  0  0  0
  -29.3679  -21.6734   22.6644 H   0  0  0  0  0  0
  -26.4697  -21.6842   19.1609 H   0  0  0  0  0  0
  -27.6246  -20.9002   18.0936 H   0  0  0  0  0  0
  -27.2121  -22.5950   17.8481 H   0  0  0  0  0  0
  -31.4751  -22.2356   20.5156 H   0  0  0  0  0  0
  -31.5080  -20.9278   21.6933 H   0  0  0  0  0  0
  -31.6491  -22.5807   22.2351 H   0  0  0  0  0  0
  -28.3274  -25.0877   22.5931 H   0  0  0  0  0  0
  -29.3389  -24.0139   23.5554 H   0  0  0  0  0  0
  -27.7171  -23.5049   23.0738 H   0  0  0  0  0  0
  -27.8258  -25.0187   18.6522 H   0  0  0  0  0  0
  -29.4550  -25.0333   19.1331 H   0  0  0  0  0  0
  -30.5345  -19.9288   20.1355 H   0  0  0  0  0  0
  -30.0074  -23.9876   21.3107 H   0  0  0  0  0  0
  1 25  1  0  0  0
  1 30  2  0  0  0
  1 83  1  0  0  0
  2  3  1  0  0  0
  2 25  1  0  0  0
  2 87  1  0  0  0
  2 88  1  0  0  0
  3  4  1  0  0  0
  3 89  1  0  0  0
  3 90  1  0  0  0
  4  5  1  0  0  0
  4 91  1  0  0  0
  4 92  1  0  0  0
  5  6  1  0  0  0
  5 26  1  0  0  0
  5 93  1  0  0  0
  6 25  1  0  0  0
  6 94  1  0  0  0
  6 95  1  0  0  0
  7  8  2  0  0  0
  7 26  1  0  0  0
  7 29  1  0  0  0
  8  9  1  0  0  0
  8 22  1  0  0  0
  9 10  1  0  0  0
  9 27  2  0  0  0
 10 11  2  0  0  0
 10 15  1  0  0  0
 11 12  1  0  0  0
 11 96  1  0  0  0
 12 13  2  0  0  0
 12 97  1  0  0  0
 13 14  1  0  0  0
 13 31  1  0  0  0
 14 15  2  0  0  0
 14 98  1  0  0  0
 15 99  1  0  0  0
 16 17  2  0  0  0
 16 21  1  0  0  0
 16 31  1  0  0  0
 17 18  1  0  0  0
 17100  1  0  0  0
 18 19  2  0  0  0
 18101  1  0  0  0
 19 20  1  0  0  0
 19 24  1  0  0  0
 20 21  2  0  0  0
 20102  1  0  0  0
 21 23  1  0  0  0
 22 28  1  0  0  0
 22 32  2  0  0  0
 26 27  1  0  0  0
 28103  1  0  0  0
 28104  1  0  0  0
 29105  1  0  0  0
 29106  1  0  0  0
 33 34  1  0  0  0
 33 66  1  0  0  0
 33 70  2  0  0  0
 34 36  1  0  0  0
 34 59  1  0  0  0
 34107  1  0  0  0
 35 44  2  0  0  0
 35 45  1  0  0  0
 35 68  1  0  0  0
 36 56  1  0  0  0
 36108  1  0  0  0
 37 39  1  0  0  0
 37 47  1  0  0  0
 37 66  1  0  0  0
 37109  1  0  0  0
 38 43  2  0  0  0
 38 46  1  0  0  0
 38 47  1  0  0  0
 39 64  1  0  0  0
 39 67  2  0  0  0
 40 52  1  0  0  0
 40 53  2  0  0  0
 40 58  1  0  0  0
 41110  1  0  0  0
 41111  1  0  0  0
 41112  1  0  0  0
 41 48  1  0  0  0
 42 43  1  0  0  0
 42 66  1  0  0  0
 42113  1  0  0  0
 42114  1  0  0  0
 43 44  1  0  0  0
 44115  1  0  0  0
 45 46  2  0  0  0
 45116  1  0  0  0
 46117  1  0  0  0
 47118  1  0  0  0
 47119  1  0  0  0
 48 56  1  0  0  0
 48 65  1  0  0  0
 48120  1  0  0  0
 49 50  1  0  0  0
 49 53  1  0  0  0
 49 64  1  0  0  0
 49121  1  0  0  0
 50 51  1  0  0  0
 50122  1  0  0  0
 50123  1  0  0  0
 51 52  1  0  0  0
 51124  1  0  0  0
 51125  1  0  0  0
 52126  1  0  0  0
 52127  1  0  0  0
 53 54  1  0  0  0
 54 55  2  0  0  0
 54128  1  0  0  0
 55 57  1  0  0  0
 55129  1  0  0  0
 56 69  2  0  0  0
 57 58  2  0  0  0
 57130  1  0  0  0
 58131  1  0  0  0
 59 60  1  0  0  0
 59 61  1  0  0  0
 59 62  1  0  0  0
 60132  1  0  0  0
 60133  1  0  0  0
 60134  1  0  0  0
 61135  1  0  0  0
 61136  1  0  0  0
 61137  1  0  0  0
 62138  1  0  0  0
 62139  1  0  0  0
 62140  1  0  0  0
 63 65  1  0  0  0
 63141  1  0  0  0
 63142  1  0  0  0
 63143  1  0  0  0
 64144  1  0  0  0
 65145  1  0  0  0
 68 82  1  0  0  0
 71 84  1  0  0  0
 71 86  2  0  0  0
 71 74  1  0  0  0
 72 73  1  0  0  0
 72 74  1  0  0  0
 72146  1  0  0  0
 72147  1  0  0  0
 73 83  1  0  0  0
 73148  1  0  0  0
 73149  1  0  0  0
 74 83  1  0  0  0
 74150  1  0  0  0
 75 76  1  0  0  0
 75 77  1  0  0  0
 75 79  1  0  0  0
 75151  1  0  0  0
 76 78  1  0  0  0
 76 84  1  0  0  0
 76152  1  0  0  0
 77 82  1  0  0  0
 77 85  1  0  0  0
 77153  1  0  0  0
 78 80  1  0  0  0
 78 85  1  0  0  0
 78154  1  0  0  0
 79155  1  0  0  0
 79156  1  0  0  0
 79157  1  0  0  0
 80158  1  0  0  0
 80159  1  0  0  0
 80160  1  0  0  0
 81161  1  0  0  0
 81162  1  0  0  0
 81163  1  0  0  0
 81 85  1  0  0  0
 82164  1  0  0  0
 82165  1  0  0  0
 84166  1  0  0  0
 85167  1  0  0  0
M  CHG  1  85   1
M  ISO  4   1 100  68 101  82 101  83 100
M  END
> <chiral flag>
0

> <version>
0

> <s_m_source_file>
/data/baiqing/PycharmProjects/Reinvent-master-3.2/result/LINK_invent/BTK/process_docking_weight1_custom_sum_contain_oxygen_bond_distance_aromatic_linkinvent_7_9_3/rearranged_h_0161.sdf

> <i_m_source_file_index>
77

> <r_mmod_Potential_Energy-OPLS-2005>
120.423233032227

> <r_mmod_Stretch_Energy-OPLS-2005>
125.945114135742

> <r_mmod_Bend_Energy-OPLS-2005>
223.820617675781

> <r_mmod_Torsional_Energy-OPLS-2005>
338.513854980469

> <r_mmod_Improper_Torsional_Energy-OPLS-2005>
12.0791788101196

> <r_mmod_Van_der_Waal_Energy-OPLS-2005>
115.540176391602

> <r_mmod_Electrostatic_Energy-OPLS-2005>
-330.47900390625

> <r_mmod_Solvation_Energy-OPLS-2005>
-442.248687744141

> <b_mmod_Minimization_Converged-OPLS-2005>
0

> <r_mmod_RMS_Derivative-OPLS-2005>
1.82548177242279

$$$$
77
                    3D
 Structure written by MMmdl.
170179  0  0  1  0            999 V2000
  -30.5430  -15.0317   20.4003 C   0  0  0  0  0  0
  -30.4410  -12.6460   19.4963 C   0  0  0  0  0  0
  -29.5181  -12.4742   18.2655 C   0  0  0  0  0  0
  -28.0506  -12.2853   18.6919 C   0  0  0  0  0  0
  -27.6189  -13.2501   19.8271 C   0  0  2  0  0  0
  -28.6681  -13.3441   20.9521 C   0  0  0  0  0  0
  -25.2430  -13.8224   20.5733 C   0  0  0  0  0  0
  -24.1759  -13.0436   20.9252 C   0  0  0  0  0  0
  -24.6395  -11.6919   20.8798 C   0  0  0  0  0  0
  -23.9098  -10.4287   21.0435 C   0  0  0  0  0  0
  -24.3657   -9.4189   21.9187 C   0  0  0  0  0  0
  -23.6327   -8.2225   22.0750 C   0  0  0  0  0  0
  -22.4299   -8.0271   21.3544 C   0  0  0  0  0  0
  -21.9942   -9.0241   20.4631 C   0  0  0  0  0  0
  -22.7279  -10.2121   20.3054 C   0  0  0  0  0  0
  -21.6854   -6.0758   22.5295 C   0  0  0  0  0  0
  -21.4008   -6.5654   23.8226 C   0  0  0  0  0  0
  -21.3662   -5.6807   24.9183 C   0  0  0  0  0  0
  -21.6047   -4.3076   24.7228 C   0  0  0  0  0  0
  -21.8822   -3.8171   23.4353 C   0  0  0  0  0  0
  -21.9180   -4.6988   22.3413 C   0  0  0  0  0  0
  -22.7773  -13.5161   21.1906 C   0  0  0  0  0  0
  -22.1641   -4.2186   21.0992 F   0  0  0  0  0  0
  -21.5636   -3.4557   25.7735 F   0  0  0  0  0  0
  -29.9188  -13.7780   20.3189 N   0  0  0  0  0  0
  -26.2856  -12.9453   20.3284 N   0  0  0  0  0  0
  -25.9330  -11.6577   20.5824 N   0  0  0  0  0  0
  -22.0445  -12.8102   22.0462 N   0  0  0  0  0  0
  -25.4100  -15.1966   20.4185 N   0  0  0  0  0  0
  -31.7746  -15.0210   20.2896 O   0  0  0  0  0  0
  -21.6634   -6.8891   21.4255 O   0  0  0  0  0  0
  -22.3417  -14.5439   20.6746 O   0  0  0  0  0  0
  -24.6493  -31.8382   23.1889 C   0  0  0  0  0  0
  -25.9248  -32.4659   23.8288 C   0  0  1  0  0  0
  -27.2113  -27.0976   20.1576 C   0  0  0  0  0  0
  -25.5973  -33.8469   24.2183 N   0  0  0  0  0  0
  -23.4521  -30.4595   21.5324 C   0  0  2  0  0  0
  -24.9014  -28.8791   20.1091 C   0  0  0  0  0  0
  -22.7568  -29.4535   22.4850 C   0  0  0  0  0  0
  -18.0299  -28.1392   22.8478 C   0  0  0  0  0  0
  -24.1480  -36.7226   23.2648 C   0  0  0  0  0  0
  -26.0116  -30.7020   21.3901 C   0  0  0  0  0  0
  -26.0804  -29.3103   20.7299 C   0  0  0  0  0  0
  -27.2367  -28.4343   20.7364 C   0  0  0  0  0  0
  -26.0090  -26.7779   19.4914 C   0  0  0  0  0  0
  -24.8802  -27.6281   19.4737 C   0  0  0  0  0  0
  -23.6796  -29.7877   20.1514 C   0  0  0  0  0  0
  -25.4115  -36.3003   24.0320 C   0  0  1  0  0  0
  -20.5908  -28.3716   23.1214 C   0  0  2  0  0  0
  -20.6761  -26.9410   22.5393 C   0  0  0  0  0  0
  -19.5742  -26.6366   21.5195 C   0  0  0  0  0  0
  -18.1929  -26.7934   22.1609 C   0  0  0  0  0  0
  -19.1559  -28.8875   23.2832 C   0  0  0  0  0  0
  -18.9478  -30.1460   23.8869 C   0  0  0  0  0  0
  -17.6481  -30.6581   24.0549 C   0  0  0  0  0  0
  -25.9080  -34.9388   23.5057 C   0  0  0  0  0  0
  -16.5369  -29.9072   23.6335 C   0  0  0  0  0  0
  -16.7287  -28.6485   23.0373 C   0  0  0  0  0  0
  -26.4567  -31.6558   25.0754 C   0  0  0  0  0  0
  -25.3754  -31.3756   26.1450 C   0  0  0  0  0  0
  -27.0448  -30.2948   24.6373 C   0  0  0  0  0  0
  -27.6049  -32.4370   25.7552 C   0  0  0  0  0  0
  -27.5570  -37.1766   24.8469 C   0  0  0  0  0  0
  -21.4260  -29.3040   22.3584 N   0  0  0  0  0  0
  -26.4263  -37.3735   23.9443 N   0  0  0  0  0  0
  -24.7239  -31.0219   22.0924 N   0  0  0  0  0  0
  -23.4183  -28.8064   23.2999 O   0  0  0  0  0  0
  -28.2424  -26.0807   20.2568 O   0  0  0  0  0  0
  -26.5643  -34.8888   22.4626 O   0  0  0  0  0  0
  -23.5594  -32.1296   23.7065 O   0  0  0  0  0  0
  -29.4034  -20.5911   20.7642 C   0  0  0  0  0  0
  -28.6274  -21.7657   20.2415 C   0  0  0  0  0  0
  -29.9713  -23.4407   21.4192 C   0  0  0  0  0  0
  -28.8645  -23.2218   20.5561 C   0  0  0  0  0  0
  -30.7362  -22.3519   21.9405 C   0  0  0  0  0  0
  -30.4177  -20.9855   21.6744 C   0  0  0  0  0  0
  -29.0648  -18.4037   19.0861 C   0  0  0  0  0  0
  -30.0909  -17.6624   21.0352 C   0  0  0  0  0  0
  -29.1587  -18.9370   20.5171 C   0  0  1  0  0  0
  -29.2201  -16.8214   19.0790 C   0  0  1  0  0  0
  -27.4634  -21.4269   19.3249 C   0  0  0  0  0  0
  -30.3117  -24.8781   21.8213 C   0  0  0  0  0  0
  -31.9469  -22.6521   22.8271 C   0  0  0  0  0  0
  -30.0178  -16.4319   17.8171 C   0  0  0  0  0  0
  -30.5682  -19.7825   23.6634 C   0  0  0  0  0  0
  -27.9544  -24.5429   20.0555 C   0  0  0  0  0  0
  -29.8218  -16.2903   20.3452 N   0  0  0  0  0  0
  -31.0989  -20.0132   22.3586 O   0  0  0  0  0  0
  -31.4633  -12.8315   19.1622 H   0  0  0  0  0  0
  -30.4863  -11.7289   20.0866 H   0  0  0  0  0  0
  -29.8419  -11.6203   17.6689 H   0  0  0  0  0  0
  -29.5956  -13.3307   17.6034 H   0  0  0  0  0  0
  -27.9453  -11.2549   19.0285 H   0  0  0  0  0  0
  -27.3903  -12.3876   17.8301 H   0  0  0  0  0  0
  -27.5538  -14.2326   19.3620 H   0  0  0  0  0  0
  -28.7865  -12.3886   21.4668 H   0  0  0  0  0  0
  -28.3610  -14.0706   21.7069 H   0  0  0  0  0  0
  -25.2816   -9.5646   22.4750 H   0  0  0  0  0  0
  -24.0069   -7.4599   22.7423 H   0  0  0  0  0  0
  -21.0903   -8.8730   19.8893 H   0  0  0  0  0  0
  -22.3752  -10.9657   19.6151 H   0  0  0  0  0  0
  -21.1991   -7.6154   23.9744 H   0  0  0  0  0  0
  -21.1479   -6.0529   25.9087 H   0  0  0  0  0  0
  -22.0594   -2.7634   23.2844 H   0  0  0  0  0  0
  -22.4106  -11.9814   22.4906 H   0  0  0  0  0  0
  -21.1035  -13.1044   22.2634 H   0  0  0  0  0  0
  -24.6448  -15.8521   20.5377 H   0  0  0  0  0  0
  -26.2710  -15.6432   20.1318 H   0  0  0  0  0  0
  -26.7316  -32.5244   23.1008 H   0  0  0  0  0  0
  -25.0167  -33.9580   25.0364 H   0  0  0  0  0  0
  -22.7571  -31.2870   21.3757 H   0  0  0  0  0  0
  -23.3763  -35.9533   23.3269 H   0  0  0  0  0  0
  -24.3570  -36.8899   22.2071 H   0  0  0  0  0  0
  -23.7212  -37.6398   23.6719 H   0  0  0  0  0  0
  -26.1679  -31.4558   20.6164 H   0  0  0  0  0  0
  -26.8817  -30.7532   22.0343 H   0  0  0  0  0  0
  -28.1331  -28.7555   21.2483 H   0  0  0  0  0  0
  -25.9014  -25.8202   19.0037 H   0  0  0  0  0  0
  -23.9795  -27.2916   18.9800 H   0  0  0  0  0  0
  -23.8212  -30.5638   19.3980 H   0  0  0  0  0  0
  -22.7913  -29.2345   19.8387 H   0  0  0  0  0  0
  -25.1303  -36.1817   25.0812 H   0  0  0  0  0  0
  -20.9997  -28.3310   24.1330 H   0  0  0  0  0  0
  -20.5600  -26.2340   23.3622 H   0  0  0  0  0  0
  -21.6637  -26.7362   22.1232 H   0  0  0  0  0  0
  -19.6892  -25.6262   21.1255 H   0  0  0  0  0  0
  -19.6687  -27.3139   20.6701 H   0  0  0  0  0  0
  -17.4183  -26.6674   21.4018 H   0  0  0  0  0  0
  -18.0324  -26.0067   22.9002 H   0  0  0  0  0  0
  -19.7948  -30.7286   24.2220 H   0  0  0  0  0  0
  -17.5030  -31.6260   24.5147 H   0  0  0  0  0  0
  -15.5372  -30.2972   23.7681 H   0  0  0  0  0  0
  -15.8677  -28.0796   22.7133 H   0  0  0  0  0  0
  -24.5945  -30.7069   25.7815 H   0  0  0  0  0  0
  -24.8939  -32.2933   26.4836 H   0  0  0  0  0  0
  -25.8069  -30.8995   27.0264 H   0  0  0  0  0  0
  -26.3097  -29.6662   24.1328 H   0  0  0  0  0  0
  -27.3981  -29.7269   25.4996 H   0  0  0  0  0  0
  -27.9037  -30.4187   23.9766 H   0  0  0  0  0  0
  -27.2599  -33.3678   26.2065 H   0  0  0  0  0  0
  -28.3904  -32.6925   25.0431 H   0  0  0  0  0  0
  -28.0677  -31.8566   26.5538 H   0  0  0  0  0  0
  -28.2543  -38.0102   24.7541 H   0  0  0  0  0  0
  -28.1103  -36.2627   24.6253 H   0  0  0  0  0  0
  -27.2288  -37.1360   25.8868 H   0  0  0  0  0  0
  -20.9464  -29.8804   21.6819 H   0  0  0  0  0  0
  -26.0110  -38.2785   24.1494 H   0  0  0  0  0  0
  -29.8732  -18.8611   18.5138 H   0  0  0  0  0  0
  -28.1396  -18.7118   18.5990 H   0  0  0  0  0  0
  -30.0003  -17.5292   22.1117 H   0  0  0  0  0  0
  -31.1396  -17.9012   20.8493 H   0  0  0  0  0  0
  -28.1777  -18.7679   20.9628 H   0  0  0  0  0  0
  -28.2215  -16.3883   19.0100 H   0  0  0  0  0  0
  -26.8597  -20.6264   19.7548 H   0  0  0  0  0  0
  -27.8316  -21.0932   18.3538 H   0  0  0  0  0  0
  -26.8043  -22.2766   19.1566 H   0  0  0  0  0  0
  -29.4657  -25.3329   22.3391 H   0  0  0  0  0  0
  -30.5398  -25.4690   20.9338 H   0  0  0  0  0  0
  -31.1659  -24.9979   22.4839 H   0  0  0  0  0  0
  -32.6310  -23.3333   22.3183 H   0  0  0  0  0  0
  -32.5381  -21.7710   23.0704 H   0  0  0  0  0  0
  -31.6329  -23.1052   23.7681 H   0  0  0  0  0  0
  -31.0286  -16.8400   17.8417 H   0  0  0  0  0  0
  -29.5341  -16.8079   16.9168 H   0  0  0  0  0  0
  -30.1110  -15.3598   17.6887 H   0  0  0  0  0  0
  -31.0875  -18.9473   24.1340 H   0  0  0  0  0  0
  -29.5087  -19.5284   23.6193 H   0  0  0  0  0  0
  -30.6838  -20.6513   24.3117 H   0  0  0  0  0  0
  -26.9753  -24.3669   20.5016 H   0  0  0  0  0  0
  -27.8155  -24.4099   18.9817 H   0  0  0  0  0  0
  1 25  1  0  0  0
  1 30  2  0  0  0
  1 87  1  0  0  0
  2  3  1  0  0  0
  2 25  1  0  0  0
  2 89  1  0  0  0
  2 90  1  0  0  0
  3  4  1  0  0  0
  3 91  1  0  0  0
  3 92  1  0  0  0
  4  5  1  0  0  0
  4 93  1  0  0  0
  4 94  1  0  0  0
  5  6  1  0  0  0
  5 26  1  0  0  0
  5 95  1  0  0  0
  6 25  1  0  0  0
  6 96  1  0  0  0
  6 97  1  0  0  0
  7  8  2  0  0  0
  7 26  1  0  0  0
  7 29  1  0  0  0
  8  9  1  0  0  0
  8 22  1  0  0  0
  9 10  1  0  0  0
  9 27  2  0  0  0
 10 11  2  0  0  0
 10 15  1  0  0  0
 11 12  1  0  0  0
 11 98  1  0  0  0
 12 13  2  0  0  0
 12 99  1  0  0  0
 13 14  1  0  0  0
 13 31  1  0  0  0
 14 15  2  0  0  0
 14100  1  0  0  0
 15101  1  0  0  0
 16 17  2  0  0  0
 16 21  1  0  0  0
 16 31  1  0  0  0
 17 18  1  0  0  0
 17102  1  0  0  0
 18 19  2  0  0  0
 18103  1  0  0  0
 19 20  1  0  0  0
 19 24  1  0  0  0
 20 21  2  0  0  0
 20104  1  0  0  0
 21 23  1  0  0  0
 22 28  1  0  0  0
 22 32  2  0  0  0
 26 27  1  0  0  0
 28105  1  0  0  0
 28106  1  0  0  0
 29107  1  0  0  0
 29108  1  0  0  0
 33 34  1  0  0  0
 33 66  1  0  0  0
 33 70  2  0  0  0
 34 36  1  0  0  0
 34 59  1  0  0  0
 34109  1  0  0  0
 35 44  2  0  0  0
 35 45  1  0  0  0
 35 68  1  0  0  0
 36 56  1  0  0  0
 36110  1  0  0  0
 37 39  1  0  0  0
 37 47  1  0  0  0
 37 66  1  0  0  0
 37111  1  0  0  0
 38 43  2  0  0  0
 38 46  1  0  0  0
 38 47  1  0  0  0
 39 64  1  0  0  0
 39 67  2  0  0  0
 40 52  1  0  0  0
 40 53  2  0  0  0
 40 58  1  0  0  0
 41112  1  0  0  0
 41113  1  0  0  0
 41114  1  0  0  0
 41 48  1  0  0  0
 42 43  1  0  0  0
 42 66  1  0  0  0
 42115  1  0  0  0
 42116  1  0  0  0
 43 44  1  0  0  0
 44117  1  0  0  0
 45 46  2  0  0  0
 45118  1  0  0  0
 46119  1  0  0  0
 47120  1  0  0  0
 47121  1  0  0  0
 48 56  1  0  0  0
 48 65  1  0  0  0
 48122  1  0  0  0
 49 50  1  0  0  0
 49 53  1  0  0  0
 49 64  1  0  0  0
 49123  1  0  0  0
 50 51  1  0  0  0
 50124  1  0  0  0
 50125  1  0  0  0
 51 52  1  0  0  0
 51126  1  0  0  0
 51127  1  0  0  0
 52128  1  0  0  0
 52129  1  0  0  0
 53 54  1  0  0  0
 54 55  2  0  0  0
 54130  1  0  0  0
 55 57  1  0  0  0
 55131  1  0  0  0
 56 69  2  0  0  0
 57 58  2  0  0  0
 57132  1  0  0  0
 58133  1  0  0  0
 59 60  1  0  0  0
 59 61  1  0  0  0
 59 62  1  0  0  0
 60134  1  0  0  0
 60135  1  0  0  0
 60136  1  0  0  0
 61137  1  0  0  0
 61138  1  0  0  0
 61139  1  0  0  0
 62140  1  0  0  0
 62141  1  0  0  0
 62142  1  0  0  0
 63 65  1  0  0  0
 63143  1  0  0  0
 63144  1  0  0  0
 63145  1  0  0  0
 64146  1  0  0  0
 65147  1  0  0  0
 68 86  1  0  0  0
 71 72  2  0  0  0
 71 76  1  0  0  0
 71 79  1  0  0  0
 72 74  1  0  0  0
 72 81  1  0  0  0
 73 74  2  0  0  0
 73 75  1  0  0  0
 73 82  1  0  0  0
 74 86  1  0  0  0
 75 76  2  0  0  0
 75 83  1  0  0  0
 76 88  1  0  0  0
 77 79  1  0  0  0
 77 80  1  0  0  0
 77148  1  0  0  0
 77149  1  0  0  0
 78 79  1  0  0  0
 78 87  1  0  0  0
 78150  1  0  0  0
 78151  1  0  0  0
 79152  1  0  0  0
 80 84  1  0  0  0
 80 87  1  0  0  0
 80153  1  0  0  0
 81154  1  0  0  0
 81155  1  0  0  0
 81156  1  0  0  0
 82157  1  0  0  0
 82158  1  0  0  0
 82159  1  0  0  0
 83160  1  0  0  0
 83161  1  0  0  0
 83162  1  0  0  0
 84163  1  0  0  0
 84164  1  0  0  0
 84165  1  0  0  0
 85 88  1  0  0  0
 85166  1  0  0  0
 85167  1  0  0  0
 85168  1  0  0  0
 86169  1  0  0  0
 86170  1  0  0  0
M  ISO  4   1 100  68 101  86 101  87 100
M  END
> <chiral flag>
0

> <version>
0

> <s_m_source_file>
/data/baiqing/PycharmProjects/Reinvent-master-3.2/result/LINK_invent/BTK/process_docking_weight1_custom_sum_contain_oxygen_bond_distance_aromatic_linkinvent_7_9_3/rearranged_h_0161.sdf

> <i_m_source_file_index>
78

> <r_mmod_Potential_Energy-OPLS-2005>
912.963134765625

> <r_mmod_Stretch_Energy-OPLS-2005>
311.182952880859

> <r_mmod_Bend_Energy-OPLS-2005>
302.5771484375

> <r_mmod_Torsional_Energy-OPLS-2005>
386.780914306641

> <r_mmod_Improper_Torsional_Energy-OPLS-2005>
9.39940071105957

> <r_mmod_Van_der_Waal_Energy-OPLS-2005>
139.479827880859

> <r_mmod_Electrostatic_Energy-OPLS-2005>
-288.731201171875

> <r_mmod_Solvation_Energy-OPLS-2005>
-198.979354858398

> <b_mmod_Minimization_Converged-OPLS-2005>
0

> <r_mmod_RMS_Derivative-OPLS-2005>
3.27512240409851

$$$$
78
                    3D
 Structure written by MMmdl.
171180  0  0  1  0            999 V2000
  -30.6947  -14.5054   20.5845 C   0  0  0  0  0  0
  -30.4216  -12.3383   19.4203 C   0  0  0  0  0  0
  -29.4889  -12.5170   18.2060 C   0  0  0  0  0  0
  -28.0116  -12.3668   18.6173 C   0  0  0  0  0  0
  -27.6550  -13.2067   19.8732 C   0  0  2  0  0  0
  -28.7005  -13.0061   20.9937 C   0  0  0  0  0  0
  -25.2540  -13.8148   20.5695 C   0  0  0  0  0  0
  -24.1804  -13.0426   20.9180 C   0  0  0  0  0  0
  -24.6364  -11.6884   20.8764 C   0  0  0  0  0  0
  -23.9035  -10.4263   21.0423 C   0  0  0  0  0  0
  -24.3589   -9.4164   21.9191 C   0  0  0  0  0  0
  -23.6255   -8.2199   22.0765 C   0  0  0  0  0  0
  -22.4245   -8.0251   21.3543 C   0  0  0  0  0  0
  -21.9877   -9.0227   20.4647 C   0  0  0  0  0  0
  -22.7213  -10.2099   20.3055 C   0  0  0  0  0  0
  -21.6820   -6.0707   22.5269 C   0  0  0  0  0  0
  -21.4021   -6.5625   23.8210 C   0  0  0  0  0  0
  -21.3667   -5.6789   24.9177 C   0  0  0  0  0  0
  -21.6035   -4.3047   24.7234 C   0  0  0  0  0  0
  -21.8820   -3.8124   23.4360 C   0  0  0  0  0  0
  -21.9190   -4.6930   22.3412 C   0  0  0  0  0  0
  -22.7812  -13.5215   21.1843 C   0  0  0  0  0  0
  -22.1649   -4.2114   21.0984 F   0  0  0  0  0  0
  -21.5618   -3.4535   25.7746 F   0  0  0  0  0  0
  -30.0252  -13.3272   20.4377 N   0  0  0  0  0  0
  -26.2971  -12.9322   20.3354 N   0  0  0  0  0  0
  -25.9284  -11.6478   20.5769 N   0  0  0  0  0  0
  -22.0461  -12.8224   22.0409 N   0  0  0  0  0  0
  -25.4282  -15.1883   20.4150 N   0  0  0  0  0  0
  -31.8199  -14.6932   20.1154 O   0  0  0  0  0  0
  -21.6619   -6.8841   21.4231 O   0  0  0  0  0  0
  -22.3490  -14.5512   20.6667 O   0  0  0  0  0  0
  -24.6236  -31.8687   23.2141 C   0  0  0  0  0  0
  -25.9106  -32.4831   23.8436 C   0  0  1  0  0  0
  -27.2110  -27.3650   20.0898 C   0  0  0  0  0  0
  -25.5948  -33.8632   24.2352 N   0  0  0  0  0  0
  -23.4135  -30.4993   21.5588 C   0  0  2  0  0  0
  -24.8514  -28.9675   20.1278 C   0  0  0  0  0  0
  -22.7473  -29.4672   22.4987 C   0  0  0  0  0  0
  -18.0348  -28.1371   22.8442 C   0  0  0  0  0  0
  -24.1490  -36.7303   23.2625 C   0  0  0  0  0  0
  -25.9554  -30.8116   21.3825 C   0  0  0  0  0  0
  -26.0248  -29.4407   20.7288 C   0  0  0  0  0  0
  -27.2096  -28.6478   20.7103 C   0  0  0  0  0  0
  -26.0151  -26.9550   19.4726 C   0  0  0  0  0  0
  -24.8424  -27.7183   19.5037 C   0  0  0  0  0  0
  -23.6248  -29.8484   20.1716 C   0  0  0  0  0  0
  -25.4108  -36.3105   24.0325 C   0  0  1  0  0  0
  -20.5925  -28.3713   23.1318 C   0  0  2  0  0  0
  -20.6887  -26.9438   22.5448 C   0  0  0  0  0  0
  -19.5910  -26.6386   21.5229 C   0  0  0  0  0  0
  -18.2034  -26.7945   22.1507 C   0  0  0  0  0  0
  -19.1568  -28.8856   23.2877 C   0  0  0  0  0  0
  -18.9451  -30.1447   23.8917 C   0  0  0  0  0  0
  -17.6440  -30.6558   24.0548 C   0  0  0  0  0  0
  -25.9047  -34.9474   23.5126 C   0  0  0  0  0  0
  -16.5360  -29.9020   23.6322 C   0  0  0  0  0  0
  -16.7330  -28.6435   23.0350 C   0  0  0  0  0  0
  -26.4514  -31.6614   25.0779 C   0  0  0  0  0  0
  -25.3744  -31.3744   26.1505 C   0  0  0  0  0  0
  -27.0339  -30.3036   24.6178 C   0  0  0  0  0  0
  -27.6092  -32.4330   25.7541 C   0  0  0  0  0  0
  -27.5577  -37.1805   24.8452 C   0  0  0  0  0  0
  -21.4184  -29.3093   22.3737 N   0  0  0  0  0  0
  -26.4292  -37.3790   23.9395 N   0  0  0  0  0  0
  -24.6831  -31.0752   22.1078 N   0  0  0  0  0  0
  -23.4215  -28.8135   23.2991 O   0  0  0  0  0  0
  -28.3405  -26.5495   20.0218 O   0  0  0  0  0  0
  -26.5610  -34.8909   22.4682 O   0  0  0  0  0  0
  -23.5417  -32.1480   23.7492 O   0  0  0  0  0  0
  -27.0203  -21.0606   22.1972 C   0  0  0  0  0  0
  -29.2601  -21.5753   20.6088 C   0  0  0  0  0  0
  -27.0387  -22.2100   21.3803 C   0  0  0  0  0  0
  -28.2113  -22.5512   20.6537 C   0  0  0  0  0  0
  -28.0715  -20.1271   22.1758 C   0  0  0  0  0  0
  -29.1671  -20.3245   21.2967 C   0  0  0  0  0  0
  -26.7795  -23.7254   19.1243 C   0  0  0  0  0  0
  -28.1628  -23.8534   19.7842 C   0  0  2  0  0  0
  -25.7408  -23.0156   21.2042 C   0  0  0  0  0  0
  -27.9761  -18.9223   23.0996 C   0  0  0  0  0  0
  -29.2396  -23.8673   18.6807 C   0  0  0  0  0  0
  -25.3922  -23.7545   22.5137 C   0  0  0  0  0  0
  -24.5664  -22.1067   20.7922 C   0  0  0  0  0  0
  -28.2888  -25.2098   20.6340 C   0  0  0  0  0  0
  -30.5062  -16.8835   21.4617 C   0  0  0  0  0  0
  -29.7693  -18.0290   20.6944 C   0  0  0  0  0  0
  -30.0136  -15.5112   21.1753 N   0  0  0  0  0  0
  -25.8030  -23.9740   20.1419 O   0  0  0  0  0  0
  -30.1569  -19.3601   21.1328 O   0  0  0  0  0  0
  -31.4617  -12.4514   19.1111 H   0  0  0  0  0  0
  -30.3368  -11.3266   19.8244 H   0  0  0  0  0  0
  -29.7379  -11.7945   17.4259 H   0  0  0  0  0  0
  -29.6437  -13.5041   17.7691 H   0  0  0  0  0  0
  -27.8233  -11.3100   18.8071 H   0  0  0  0  0  0
  -27.3626  -12.6402   17.7833 H   0  0  0  0  0  0
  -27.6928  -14.2524   19.5678 H   0  0  0  0  0  0
  -28.6912  -11.9720   21.3430 H   0  0  0  0  0  0
  -28.4543  -13.6082   21.8688 H   0  0  0  0  0  0
  -25.2740   -9.5611   22.4754 H   0  0  0  0  0  0
  -23.9939   -7.4593   22.7499 H   0  0  0  0  0  0
  -21.0793   -8.8762   19.8957 H   0  0  0  0  0  0
  -22.3691  -10.9643   19.6153 H   0  0  0  0  0  0
  -21.2025   -7.6138   23.9701 H   0  0  0  0  0  0
  -21.1494   -6.0526   25.9084 H   0  0  0  0  0  0
  -22.0599   -2.7579   23.2883 H   0  0  0  0  0  0
  -22.4077  -11.9890   22.4813 H   0  0  0  0  0  0
  -21.1074  -13.1260   22.2624 H   0  0  0  0  0  0
  -24.6706  -15.8508   20.5397 H   0  0  0  0  0  0
  -26.2815  -15.6240   20.0908 H   0  0  0  0  0  0
  -26.7158  -32.5523   23.1189 H   0  0  0  0  0  0
  -25.0113  -33.9825   25.0503 H   0  0  0  0  0  0
  -22.7007  -31.3163   21.4276 H   0  0  0  0  0  0
  -23.3758  -35.9633   23.3293 H   0  0  0  0  0  0
  -24.3568  -36.8922   22.2036 H   0  0  0  0  0  0
  -23.7250  -37.6501   23.6655 H   0  0  0  0  0  0
  -26.0840  -31.5739   20.6138 H   0  0  0  0  0  0
  -26.8381  -30.8605   22.0081 H   0  0  0  0  0  0
  -28.1110  -29.0065   21.1827 H   0  0  0  0  0  0
  -25.9430  -26.0513   18.9196 H   0  0  0  0  0  0
  -23.9453  -27.3493   19.0264 H   0  0  0  0  0  0
  -23.7556  -30.6328   19.4248 H   0  0  0  0  0  0
  -22.7428  -29.2877   19.8585 H   0  0  0  0  0  0
  -25.1280  -36.1979   25.0821 H   0  0  0  0  0  0
  -20.9987  -28.3293   24.1445 H   0  0  0  0  0  0
  -20.5848  -26.2349   23.3666 H   0  0  0  0  0  0
  -21.6767  -26.7496   22.1218 H   0  0  0  0  0  0
  -19.7104  -25.6295   21.1287 H   0  0  0  0  0  0
  -19.6911  -27.3185   20.6735 H   0  0  0  0  0  0
  -18.0255  -25.9984   22.8756 H   0  0  0  0  0  0
  -17.4476  -26.6862   21.3708 H   0  0  0  0  0  0
  -19.7887  -30.7264   24.2359 H   0  0  0  0  0  0
  -17.4948  -31.6210   24.5194 H   0  0  0  0  0  0
  -15.5355  -30.2880   23.7663 H   0  0  0  0  0  0
  -15.8771  -28.0717   22.7064 H   0  0  0  0  0  0
  -24.5927  -30.7089   25.7821 H   0  0  0  0  0  0
  -24.8937  -32.2917   26.4915 H   0  0  0  0  0  0
  -25.8072  -30.8931   27.0282 H   0  0  0  0  0  0
  -26.2903  -29.6814   24.1185 H   0  0  0  0  0  0
  -27.4030  -29.7269   25.4664 H   0  0  0  0  0  0
  -27.8776  -30.4313   23.9387 H   0  0  0  0  0  0
  -27.2711  -33.3616   26.2137 H   0  0  0  0  0  0
  -28.3894  -32.6903   25.0367 H   0  0  0  0  0  0
  -28.0765  -31.8442   26.5443 H   0  0  0  0  0  0
  -28.2586  -38.0111   24.7496 H   0  0  0  0  0  0
  -28.1088  -36.2639   24.6291 H   0  0  0  0  0  0
  -27.2280  -37.1443   25.8852 H   0  0  0  0  0  0
  -20.9334  -29.8877   21.7016 H   0  0  0  0  0  0
  -26.0184  -38.2857   24.1448 H   0  0  0  0  0  0
  -26.1508  -20.8608   22.8063 H   0  0  0  0  0  0
  -30.1267  -21.7406   19.9850 H   0  0  0  0  0  0
  -26.6237  -22.7294   18.7030 H   0  0  0  0  0  0
  -26.6838  -24.3723   18.2580 H   0  0  0  0  0  0
  -27.4415  -18.1079   22.6099 H   0  0  0  0  0  0
  -27.4302  -19.1714   24.0098 H   0  0  0  0  0  0
  -28.9606  -18.5725   23.4077 H   0  0  0  0  0  0
  -29.1709  -22.9960   18.0299 H   0  0  0  0  0  0
  -30.2465  -23.9000   19.0946 H   0  0  0  0  0  0
  -29.1238  -24.7481   18.0483 H   0  0  0  0  0  0
  -25.1726  -23.0489   23.3156 H   0  0  0  0  0  0
  -24.5249  -24.4054   22.4014 H   0  0  0  0  0  0
  -26.2143  -24.3717   22.8707 H   0  0  0  0  0  0
  -24.3214  -21.3762   21.5631 H   0  0  0  0  0  0
  -24.7909  -21.5589   19.8764 H   0  0  0  0  0  0
  -23.6631  -22.6897   20.6078 H   0  0  0  0  0  0
  -29.2261  -25.1292   21.1852 H   0  0  0  0  0  0
  -27.5342  -25.2390   21.4142 H   0  0  0  0  0  0
  -30.3960  -17.0385   22.5344 H   0  0  0  0  0  0
  -31.5781  -16.9599   21.2720 H   0  0  0  0  0  0
  -28.6906  -17.8789   20.7328 H   0  0  0  0  0  0
  -30.0270  -17.9555   19.6376 H   0  0  0  0  0  0
  -29.0801  -15.2895   21.4901 H   0  0  0  0  0  0
  1 25  1  0  0  0
  1 30  2  0  0  0
  1 87  1  0  0  0
  2  3  1  0  0  0
  2 25  1  0  0  0
  2 90  1  0  0  0
  2 91  1  0  0  0
  3  4  1  0  0  0
  3 92  1  0  0  0
  3 93  1  0  0  0
  4  5  1  0  0  0
  4 94  1  0  0  0
  4 95  1  0  0  0
  5  6  1  0  0  0
  5 26  1  0  0  0
  5 96  1  0  0  0
  6 25  1  0  0  0
  6 97  1  0  0  0
  6 98  1  0  0  0
  7  8  2  0  0  0
  7 26  1  0  0  0
  7 29  1  0  0  0
  8  9  1  0  0  0
  8 22  1  0  0  0
  9 10  1  0  0  0
  9 27  2  0  0  0
 10 11  2  0  0  0
 10 15  1  0  0  0
 11 12  1  0  0  0
 11 99  1  0  0  0
 12 13  2  0  0  0
 12100  1  0  0  0
 13 14  1  0  0  0
 13 31  1  0  0  0
 14 15  2  0  0  0
 14101  1  0  0  0
 15102  1  0  0  0
 16 17  2  0  0  0
 16 21  1  0  0  0
 16 31  1  0  0  0
 17 18  1  0  0  0
 17103  1  0  0  0
 18 19  2  0  0  0
 18104  1  0  0  0
 19 20  1  0  0  0
 19 24  1  0  0  0
 20 21  2  0  0  0
 20105  1  0  0  0
 21 23  1  0  0  0
 22 28  1  0  0  0
 22 32  2  0  0  0
 26 27  1  0  0  0
 28106  1  0  0  0
 28107  1  0  0  0
 29108  1  0  0  0
 29109  1  0  0  0
 33 34  1  0  0  0
 33 66  1  0  0  0
 33 70  2  0  0  0
 34 36  1  0  0  0
 34 59  1  0  0  0
 34110  1  0  0  0
 35 44  2  0  0  0
 35 45  1  0  0  0
 35 68  1  0  0  0
 36 56  1  0  0  0
 36111  1  0  0  0
 37 39  1  0  0  0
 37 47  1  0  0  0
 37 66  1  0  0  0
 37112  1  0  0  0
 38 43  2  0  0  0
 38 46  1  0  0  0
 38 47  1  0  0  0
 39 64  1  0  0  0
 39 67  2  0  0  0
 40 52  1  0  0  0
 40 53  2  0  0  0
 40 58  1  0  0  0
 41113  1  0  0  0
 41114  1  0  0  0
 41115  1  0  0  0
 41 48  1  0  0  0
 42 43  1  0  0  0
 42 66  1  0  0  0
 42116  1  0  0  0
 42117  1  0  0  0
 43 44  1  0  0  0
 44118  1  0  0  0
 45 46  2  0  0  0
 45119  1  0  0  0
 46120  1  0  0  0
 47121  1  0  0  0
 47122  1  0  0  0
 48 56  1  0  0  0
 48 65  1  0  0  0
 48123  1  0  0  0
 49 50  1  0  0  0
 49 53  1  0  0  0
 49 64  1  0  0  0
 49124  1  0  0  0
 50 51  1  0  0  0
 50125  1  0  0  0
 50126  1  0  0  0
 51 52  1  0  0  0
 51127  1  0  0  0
 51128  1  0  0  0
 52129  1  0  0  0
 52130  1  0  0  0
 53 54  1  0  0  0
 54 55  2  0  0  0
 54131  1  0  0  0
 55 57  1  0  0  0
 55132  1  0  0  0
 56 69  2  0  0  0
 57 58  2  0  0  0
 57133  1  0  0  0
 58134  1  0  0  0
 59 60  1  0  0  0
 59 61  1  0  0  0
 59 62  1  0  0  0
 60135  1  0  0  0
 60136  1  0  0  0
 60137  1  0  0  0
 61138  1  0  0  0
 61139  1  0  0  0
 61140  1  0  0  0
 62141  1  0  0  0
 62142  1  0  0  0
 62143  1  0  0  0
 63 65  1  0  0  0
 63144  1  0  0  0
 63145  1  0  0  0
 63146  1  0  0  0
 64147  1  0  0  0
 65148  1  0  0  0
 68 84  1  0  0  0
 71 73  2  0  0  0
 71 75  1  0  0  0
 71149  1  0  0  0
 72 74  2  0  0  0
 72 76  1  0  0  0
 72150  1  0  0  0
 73 74  1  0  0  0
 73 79  1  0  0  0
 74 78  1  0  0  0
 75 76  2  0  0  0
 75 80  1  0  0  0
 76 89  1  0  0  0
 77 78  1  0  0  0
 77 88  1  0  0  0
 77151  1  0  0  0
 77152  1  0  0  0
 78 81  1  0  0  0
 78 84  1  0  0  0
 79 82  1  0  0  0
 79 83  1  0  0  0
 79 88  1  0  0  0
 80153  1  0  0  0
 80154  1  0  0  0
 80155  1  0  0  0
 81156  1  0  0  0
 81157  1  0  0  0
 81158  1  0  0  0
 82159  1  0  0  0
 82160  1  0  0  0
 82161  1  0  0  0
 83162  1  0  0  0
 83163  1  0  0  0
 83164  1  0  0  0
 84165  1  0  0  0
 84166  1  0  0  0
 85 86  1  0  0  0
 85 87  1  0  0  0
 85167  1  0  0  0
 85168  1  0  0  0
 86 89  1  0  0  0
 86169  1  0  0  0
 86170  1  0  0  0
 87171  1  0  0  0
M  ISO  4   1 100  68 101  84 101  87 100
M  END
> <chiral flag>
0

> <version>
0

> <s_m_source_file>
/data/baiqing/PycharmProjects/Reinvent-master-3.2/result/LINK_invent/BTK/process_docking_weight1_custom_sum_contain_oxygen_bond_distance_aromatic_linkinvent_7_9_3/rearranged_h_0161.sdf

> <i_m_source_file_index>
79

> <r_mmod_Potential_Energy-OPLS-2005>
19.8930816650391

> <r_mmod_Stretch_Energy-OPLS-2005>
66.5755844116211

> <r_mmod_Bend_Energy-OPLS-2005>
145.45393371582

> <r_mmod_Torsional_Energy-OPLS-2005>
267.377716064453

> <r_mmod_Improper_Torsional_Energy-OPLS-2005>
4.08803224563599

> <r_mmod_Van_der_Waal_Energy-OPLS-2005>
167.307693481445

> <r_mmod_Electrostatic_Energy-OPLS-2005>
-447.813812255859

> <r_mmod_Solvation_Energy-OPLS-2005>
-205.760330200195

> <b_mmod_Minimization_Converged-OPLS-2005>
0

> <r_mmod_RMS_Derivative-OPLS-2005>
3.23571491241455

$$$$
79
                    3D
 Structure written by MMmdl.
164173  0  0  1  0            999 V2000
  -30.6877  -14.6624   20.4821 C   0  0  0  0  0  0
  -30.4128  -12.4017   19.4801 C   0  0  0  0  0  0
  -29.5072  -12.5035   18.2360 C   0  0  0  0  0  0
  -28.0266  -12.3674   18.6378 C   0  0  0  0  0  0
  -27.6467  -13.2458   19.8622 C   0  0  2  0  0  0
  -28.6909  -13.1561   20.9970 C   0  0  0  0  0  0
  -25.2507  -13.8246   20.5743 C   0  0  0  0  0  0
  -24.1805  -13.0462   20.9216 C   0  0  0  0  0  0
  -24.6418  -11.6957   20.8750 C   0  0  0  0  0  0
  -23.9102  -10.4318   21.0410 C   0  0  0  0  0  0
  -24.3655   -9.4229   21.9181 C   0  0  0  0  0  0
  -23.6327   -8.2264   22.0749 C   0  0  0  0  0  0
  -22.4309   -8.0301   21.3544 C   0  0  0  0  0  0
  -21.9950   -9.0273   20.4639 C   0  0  0  0  0  0
  -22.7276  -10.2152   20.3061 C   0  0  0  0  0  0
  -21.6867   -6.0747   22.5268 C   0  0  0  0  0  0
  -21.4008   -6.5638   23.8200 C   0  0  0  0  0  0
  -21.3671   -5.6785   24.9160 C   0  0  0  0  0  0
  -21.6068   -4.3052   24.7205 C   0  0  0  0  0  0
  -21.8809   -3.8152   23.4312 C   0  0  0  0  0  0
  -21.9191   -4.6977   22.3378 C   0  0  0  0  0  0
  -22.7819  -13.5218   21.1868 C   0  0  0  0  0  0
  -22.1677   -4.2176   21.0958 F   0  0  0  0  0  0
  -21.5650   -3.4529   25.7710 F   0  0  0  0  0  0
  -30.0032  -13.4696   20.4211 N   0  0  0  0  0  0
  -26.2958  -12.9484   20.3352 N   0  0  0  0  0  0
  -25.9349  -11.6606   20.5776 N   0  0  0  0  0  0
  -22.0477  -12.8209   22.0437 N   0  0  0  0  0  0
  -25.4190  -15.1971   20.4183 N   0  0  0  0  0  0
  -31.8269  -14.7343   20.0087 O   0  0  0  0  0  0
  -21.6659   -6.8907   21.4243 O   0  0  0  0  0  0
  -22.3492  -14.5509   20.6694 O   0  0  0  0  0  0
  -24.6305  -31.8566   23.2024 C   0  0  0  0  0  0
  -25.9133  -32.4766   23.8367 C   0  0  1  0  0  0
  -27.2111  -27.2755   20.1153 C   0  0  0  0  0  0
  -25.5919  -33.8578   24.2267 N   0  0  0  0  0  0
  -23.4277  -30.4811   21.5461 C   0  0  2  0  0  0
  -24.8694  -28.9343   20.1126 C   0  0  0  0  0  0
  -22.7510  -29.4603   22.4936 C   0  0  0  0  0  0
  -18.0285  -28.1420   22.8486 C   0  0  0  0  0  0
  -24.1480  -36.7304   23.2635 C   0  0  0  0  0  0
  -25.9716  -30.7731   21.3800 C   0  0  0  0  0  0
  -26.0412  -29.3962   20.7225 C   0  0  0  0  0  0
  -27.2127  -28.5768   20.7191 C   0  0  0  0  0  0
  -26.0168  -26.8912   19.4590 C   0  0  0  0  0  0
  -24.8602  -27.6879   19.4726 C   0  0  0  0  0  0
  -23.6442  -29.8222   20.1603 C   0  0  0  0  0  0
  -25.4107  -36.3090   24.0325 C   0  0  1  0  0  0
  -20.5891  -28.3715   23.1283 C   0  0  2  0  0  0
  -20.6780  -26.9441   22.5414 C   0  0  0  0  0  0
  -19.5742  -26.6405   21.5229 C   0  0  0  0  0  0
  -18.1920  -26.7955   22.1643 C   0  0  0  0  0  0
  -19.1541  -28.8886   23.2876 C   0  0  0  0  0  0
  -18.9463  -30.1498   23.8884 C   0  0  0  0  0  0
  -17.6460  -30.6607   24.0584 C   0  0  0  0  0  0
  -25.9054  -34.9458   23.5109 C   0  0  0  0  0  0
  -16.5352  -29.9120   23.6338 C   0  0  0  0  0  0
  -16.7273  -28.6553   23.0325 C   0  0  0  0  0  0
  -26.4475  -31.6584   25.0759 C   0  0  0  0  0  0
  -25.3677  -31.3776   26.1462 C   0  0  0  0  0  0
  -27.0300  -30.2986   24.6270 C   0  0  0  0  0  0
  -27.6022  -32.4317   25.7547 C   0  0  0  0  0  0
  -27.5582  -37.1810   24.8461 C   0  0  0  0  0  0
  -21.4217  -29.3053   22.3682 N   0  0  0  0  0  0
  -26.4278  -37.3795   23.9420 N   0  0  0  0  0  0
  -24.6967  -31.0535   22.0999 N   0  0  0  0  0  0
  -23.4204  -28.8121   23.3026 O   0  0  0  0  0  0
  -28.3094  -26.3901   20.1879 O   0  0  0  0  0  0
  -26.5643  -34.8928   22.4689 O   0  0  0  0  0  0
  -23.5461  -32.1378   23.7318 O   0  0  0  0  0  0
  -29.2317  -19.6404   20.1375 C   0  0  0  0  0  0
  -30.2947  -19.8872   22.6869 C   0  0  0  0  0  0
  -29.6155  -18.4331   20.8427 C   0  0  0  0  0  0
  -30.0748  -18.6034   22.1582 C   0  0  0  0  0  0
  -29.3808  -20.9777   20.6864 C   0  0  0  0  0  0
  -30.0153  -21.0682   21.9537 C   0  0  0  0  0  0
  -30.3422  -17.3845   23.0098 C   0  0  0  0  0  0
  -29.5433  -16.9526   20.2709 C   0  0  0  0  0  0
  -30.9679  -16.2573   22.1902 C   0  0  0  0  0  0
  -31.9963  -23.7935   23.3998 C   0  0  0  0  0  0
  -28.8738  -22.2775   19.9137 C   0  0  0  0  0  0
  -28.9785  -23.7780   20.5125 C   0  0  0  0  0  0
  -31.4518  -22.3655   23.3544 C   0  0  0  0  0  0
  -28.1313  -24.9488   19.8200 C   0  0  0  0  0  0
  -30.1307  -15.7873   21.0703 N   0  0  0  0  0  0
  -30.3511  -22.3055   22.4547 O   0  0  0  0  0  0
  -31.4622  -12.4713   19.1907 H   0  0  0  0  0  0
  -30.3051  -11.4224   19.9504 H   0  0  0  0  0  0
  -29.7696  -11.7280   17.5153 H   0  0  0  0  0  0
  -29.6749  -13.4604   17.7397 H   0  0  0  0  0  0
  -27.8408  -11.3169   18.8600 H   0  0  0  0  0  0
  -27.3836  -12.6151   17.7918 H   0  0  0  0  0  0
  -27.6474  -14.2771   19.5071 H   0  0  0  0  0  0
  -28.6953  -12.1579   21.4362 H   0  0  0  0  0  0
  -28.4407  -13.8431   21.8067 H   0  0  0  0  0  0
  -25.2811   -9.5710   22.4749 H   0  0  0  0  0  0
  -24.0051   -7.4655   22.7450 H   0  0  0  0  0  0
  -21.0896   -8.8781   19.8925 H   0  0  0  0  0  0
  -22.3741  -10.9698   19.6171 H   0  0  0  0  0  0
  -21.1992   -7.6152   23.9711 H   0  0  0  0  0  0
  -21.1527   -6.0517   25.9070 H   0  0  0  0  0  0
  -22.0585   -2.7613   23.2791 H   0  0  0  0  0  0
  -22.4115  -11.9892   22.4865 H   0  0  0  0  0  0
  -21.1073  -13.1196   22.2605 H   0  0  0  0  0  0
  -24.6572  -15.8541   20.5513 H   0  0  0  0  0  0
  -26.2779  -15.6428   20.1243 H   0  0  0  0  0  0
  -26.7216  -32.5399   23.1124 H   0  0  0  0  0  0
  -24.9984  -33.9730   25.0353 H   0  0  0  0  0  0
  -22.7253  -31.3035   21.4046 H   0  0  0  0  0  0
  -23.3751  -35.9626   23.3276 H   0  0  0  0  0  0
  -24.3554  -36.8955   22.2051 H   0  0  0  0  0  0
  -23.7224  -37.6502   23.6667 H   0  0  0  0  0  0
  -26.1070  -31.5331   20.6085 H   0  0  0  0  0  0
  -26.8523  -30.8248   22.0096 H   0  0  0  0  0  0
  -28.1101  -28.9192   21.2156 H   0  0  0  0  0  0
  -25.9354  -25.9558   18.9271 H   0  0  0  0  0  0
  -23.9632  -27.3369   18.9803 H   0  0  0  0  0  0
  -23.7780  -30.6026   19.4098 H   0  0  0  0  0  0
  -22.7621  -29.2617   19.8480 H   0  0  0  0  0  0
  -25.1289  -36.1935   25.0817 H   0  0  0  0  0  0
  -20.9973  -28.3285   24.1409 H   0  0  0  0  0  0
  -20.5696  -26.2334   23.3618 H   0  0  0  0  0  0
  -21.6641  -26.7464   22.1195 H   0  0  0  0  0  0
  -19.6900  -25.6312   21.1278 H   0  0  0  0  0  0
  -19.6676  -27.3210   20.6749 H   0  0  0  0  0  0
  -17.4193  -26.6700   21.4048 H   0  0  0  0  0  0
  -18.0307  -26.0105   22.9045 H   0  0  0  0  0  0
  -19.7930  -30.7340   24.2220 H   0  0  0  0  0  0
  -17.5005  -31.6271   24.5222 H   0  0  0  0  0  0
  -15.5360  -30.3024   23.7663 H   0  0  0  0  0  0
  -15.8665  -28.0906   22.6990 H   0  0  0  0  0  0
  -24.5832  -30.7153   25.7781 H   0  0  0  0  0  0
  -24.8883  -32.2965   26.4855 H   0  0  0  0  0  0
  -25.7939  -30.8964   27.0269 H   0  0  0  0  0  0
  -26.2896  -29.6776   24.1216 H   0  0  0  0  0  0
  -27.3861  -29.7224   25.4820 H   0  0  0  0  0  0
  -27.8826  -30.4238   23.9591 H   0  0  0  0  0  0
  -27.2613  -33.3603   26.2146 H   0  0  0  0  0  0
  -28.3830  -32.6900   25.0382 H   0  0  0  0  0  0
  -28.0683  -31.8430   26.5462 H   0  0  0  0  0  0
  -28.2587  -38.0123   24.7529 H   0  0  0  0  0  0
  -28.1095  -36.2659   24.6242 H   0  0  0  0  0  0
  -27.2309  -37.1407   25.8867 H   0  0  0  0  0  0
  -20.9410  -29.8789   21.6894 H   0  0  0  0  0  0
  -26.0164  -38.2873   24.1426 H   0  0  0  0  0  0
  -28.8119  -19.5406   19.1458 H   0  0  0  0  0  0
  -30.6944  -19.9469   23.6895 H   0  0  0  0  0  0
  -29.4037  -17.0581   23.4568 H   0  0  0  0  0  0
  -31.0057  -17.6480   23.8353 H   0  0  0  0  0  0
  -30.0012  -16.9612   19.2817 H   0  0  0  0  0  0
  -28.4915  -16.7236   20.1003 H   0  0  0  0  0  0
  -31.1990  -15.4282   22.8613 H   0  0  0  0  0  0
  -31.9257  -16.6146   21.8012 H   0  0  0  0  0  0
  -32.8416  -23.8551   24.0857 H   0  0  0  0  0  0
  -31.2361  -24.4954   23.7422 H   0  0  0  0  0  0
  -32.3377  -24.1142   22.4151 H   0  0  0  0  0  0
  -27.8218  -22.0914   19.6938 H   0  0  0  0  0  0
  -29.3661  -22.2817   18.9409 H   0  0  0  0  0  0
  -30.0283  -24.0733   20.5505 H   0  0  0  0  0  0
  -28.6306  -23.7484   21.5440 H   0  0  0  0  0  0
  -31.1349  -22.0581   24.3516 H   0  0  0  0  0  0
  -32.2520  -21.6989   23.0290 H   0  0  0  0  0  0
  -27.1057  -24.6431   20.0205 H   0  0  0  0  0  0
  -28.2658  -24.8802   18.7395 H   0  0  0  0  0  0
  1 25  1  0  0  0
  1 30  2  0  0  0
  1 85  1  0  0  0
  2  3  1  0  0  0
  2 25  1  0  0  0
  2 87  1  0  0  0
  2 88  1  0  0  0
  3  4  1  0  0  0
  3 89  1  0  0  0
  3 90  1  0  0  0
  4  5  1  0  0  0
  4 91  1  0  0  0
  4 92  1  0  0  0
  5  6  1  0  0  0
  5 26  1  0  0  0
  5 93  1  0  0  0
  6 25  1  0  0  0
  6 94  1  0  0  0
  6 95  1  0  0  0
  7  8  2  0  0  0
  7 26  1  0  0  0
  7 29  1  0  0  0
  8  9  1  0  0  0
  8 22  1  0  0  0
  9 10  1  0  0  0
  9 27  2  0  0  0
 10 11  2  0  0  0
 10 15  1  0  0  0
 11 12  1  0  0  0
 11 96  1  0  0  0
 12 13  2  0  0  0
 12 97  1  0  0  0
 13 14  1  0  0  0
 13 31  1  0  0  0
 14 15  2  0  0  0
 14 98  1  0  0  0
 15 99  1  0  0  0
 16 17  2  0  0  0
 16 21  1  0  0  0
 16 31  1  0  0  0
 17 18  1  0  0  0
 17100  1  0  0  0
 18 19  2  0  0  0
 18101  1  0  0  0
 19 20  1  0  0  0
 19 24  1  0  0  0
 20 21  2  0  0  0
 20102  1  0  0  0
 21 23  1  0  0  0
 22 28  1  0  0  0
 22 32  2  0  0  0
 26 27  1  0  0  0
 28103  1  0  0  0
 28104  1  0  0  0
 29105  1  0  0  0
 29106  1  0  0  0
 33 34  1  0  0  0
 33 66  1  0  0  0
 33 70  2  0  0  0
 34 36  1  0  0  0
 34 59  1  0  0  0
 34107  1  0  0  0
 35 44  2  0  0  0
 35 45  1  0  0  0
 35 68  1  0  0  0
 36 56  1  0  0  0
 36108  1  0  0  0
 37 39  1  0  0  0
 37 47  1  0  0  0
 37 66  1  0  0  0
 37109  1  0  0  0
 38 43  2  0  0  0
 38 46  1  0  0  0
 38 47  1  0  0  0
 39 64  1  0  0  0
 39 67  2  0  0  0
 40 52  1  0  0  0
 40 53  2  0  0  0
 40 58  1  0  0  0
 41110  1  0  0  0
 41111  1  0  0  0
 41112  1  0  0  0
 41 48  1  0  0  0
 42 43  1  0  0  0
 42 66  1  0  0  0
 42113  1  0  0  0
 42114  1  0  0  0
 43 44  1  0  0  0
 44115  1  0  0  0
 45 46  2  0  0  0
 45116  1  0  0  0
 46117  1  0  0  0
 47118  1  0  0  0
 47119  1  0  0  0
 48 56  1  0  0  0
 48 65  1  0  0  0
 48120  1  0  0  0
 49 50  1  0  0  0
 49 53  1  0  0  0
 49 64  1  0  0  0
 49121  1  0  0  0
 50 51  1  0  0  0
 50122  1  0  0  0
 50123  1  0  0  0
 51 52  1  0  0  0
 51124  1  0  0  0
 51125  1  0  0  0
 52126  1  0  0  0
 52127  1  0  0  0
 53 54  1  0  0  0
 54 55  2  0  0  0
 54128  1  0  0  0
 55 57  1  0  0  0
 55129  1  0  0  0
 56 69  2  0  0  0
 57 58  2  0  0  0
 57130  1  0  0  0
 58131  1  0  0  0
 59 60  1  0  0  0
 59 61  1  0  0  0
 59 62  1  0  0  0
 60132  1  0  0  0
 60133  1  0  0  0
 60134  1  0  0  0
 61135  1  0  0  0
 61136  1  0  0  0
 61137  1  0  0  0
 62138  1  0  0  0
 62139  1  0  0  0
 62140  1  0  0  0
 63 65  1  0  0  0
 63141  1  0  0  0
 63142  1  0  0  0
 63143  1  0  0  0
 64144  1  0  0  0
 65145  1  0  0  0
 68 84  1  0  0  0
 71 73  2  0  0  0
 71 75  1  0  0  0
 71146  1  0  0  0
 72 74  2  0  0  0
 72 76  1  0  0  0
 72147  1  0  0  0
 73 74  1  0  0  0
 73 78  1  0  0  0
 74 77  1  0  0  0
 75 76  2  0  0  0
 75 81  1  0  0  0
 76 86  1  0  0  0
 77 79  1  0  0  0
 77148  1  0  0  0
 77149  1  0  0  0
 78 85  1  0  0  0
 78150  1  0  0  0
 78151  1  0  0  0
 79 85  1  0  0  0
 79152  1  0  0  0
 79153  1  0  0  0
 80 83  1  0  0  0
 80154  1  0  0  0
 80155  1  0  0  0
 80156  1  0  0  0
 81 82  1  0  0  0
 81157  1  0  0  0
 81158  1  0  0  0
 82 84  1  0  0  0
 82159  1  0  0  0
 82160  1  0  0  0
 83 86  1  0  0  0
 83161  1  0  0  0
 83162  1  0  0  0
 84163  1  0  0  0
 84164  1  0  0  0
M  ISO  4   1 100  68 101  84 101  85 100
M  END
> <chiral flag>
0

> <version>
0

> <s_m_source_file>
/data/baiqing/PycharmProjects/Reinvent-master-3.2/result/LINK_invent/BTK/process_docking_weight1_custom_sum_contain_oxygen_bond_distance_aromatic_linkinvent_7_9_3/rearranged_h_0161.sdf

> <i_m_source_file_index>
80

> <r_mmod_Potential_Energy-OPLS-2005>
278.242919921875

> <r_mmod_Stretch_Energy-OPLS-2005>
112.754577636719

> <r_mmod_Bend_Energy-OPLS-2005>
169.086334228516

> <r_mmod_Torsional_Energy-OPLS-2005>
299.198028564453

> <r_mmod_Improper_Torsional_Energy-OPLS-2005>
5.61408615112305

> <r_mmod_Van_der_Waal_Energy-OPLS-2005>
162.096527099609

> <r_mmod_Electrostatic_Energy-OPLS-2005>
-333.392639160156

> <r_mmod_Solvation_Energy-OPLS-2005>
-202.861190795898

> <b_mmod_Minimization_Converged-OPLS-2005>
0

> <r_mmod_RMS_Derivative-OPLS-2005>
2.86909246444702

$$$$
80
                    3D
 Structure written by MMmdl.
178187  0  0  1  0            999 V2000
  -30.7118  -14.7148   20.4978 C   0  0  0  0  0  0
  -30.3948  -12.4601   19.4860 C   0  0  0  0  0  0
  -29.5030  -12.5116   18.2306 C   0  0  0  0  0  0
  -28.0207  -12.3669   18.6198 C   0  0  0  0  0  0
  -27.6232  -13.2533   19.8351 C   0  0  2  0  0  0
  -28.6623  -13.2104   20.9736 C   0  0  0  0  0  0
  -25.2313  -13.8022   20.5618 C   0  0  0  0  0  0
  -24.1623  -13.0275   20.9266 C   0  0  0  0  0  0
  -24.6372  -11.6821   20.8797 C   0  0  0  0  0  0
  -23.9083  -10.4188   21.0425 C   0  0  0  0  0  0
  -24.3622   -9.4069   21.9179 C   0  0  0  0  0  0
  -23.6255   -8.2103   22.0682 C   0  0  0  0  0  0
  -22.4220   -8.0190   21.3495 C   0  0  0  0  0  0
  -21.9914   -9.0194   20.4585 C   0  0  0  0  0  0
  -22.7282  -10.2062   20.3045 C   0  0  0  0  0  0
  -21.6833   -6.0673   22.5313 C   0  0  0  0  0  0
  -21.3955   -6.5567   23.8262 C   0  0  0  0  0  0
  -21.3674   -5.6736   24.9245 C   0  0  0  0  0  0
  -21.6089   -4.3006   24.7320 C   0  0  0  0  0  0
  -21.8783   -3.8084   23.4440 C   0  0  0  0  0  0
  -21.9157   -4.6876   22.3481 C   0  0  0  0  0  0
  -22.7657  -13.5037   21.1919 C   0  0  0  0  0  0
  -22.1659   -4.2045   21.1076 F   0  0  0  0  0  0
  -21.5671   -3.4512   25.7855 F   0  0  0  0  0  0
  -29.9607  -13.5585   20.3932 N   0  0  0  0  0  0
  -26.2813  -12.9414   20.3197 N   0  0  0  0  0  0
  -25.9285  -11.6541   20.5705 N   0  0  0  0  0  0
  -22.0320  -12.8006   22.0521 N   0  0  0  0  0  0
  -25.3638  -15.1636   20.3978 N   0  0  0  0  0  0
  -31.8833  -14.6734   20.1253 O   0  0  0  0  0  0
  -21.6577   -6.8784   21.4248 O   0  0  0  0  0  0
  -22.3305  -14.5349   20.6779 O   0  0  0  0  0  0
  -24.6316  -31.8578   23.2001 C   0  0  0  0  0  0
  -25.9175  -32.4742   23.8308 C   0  0  1  0  0  0
  -27.2359  -27.3044   20.0881 C   0  0  0  0  0  0
  -25.5933  -33.8535   24.2205 N   0  0  0  0  0  0
  -23.4234  -30.4774   21.5503 C   0  0  2  0  0  0
  -24.8619  -28.9299   20.1176 C   0  0  0  0  0  0
  -22.7538  -29.4508   22.4949 C   0  0  0  0  0  0
  -18.0298  -28.1376   22.8372 C   0  0  0  0  0  0
  -24.1490  -36.7273   23.2635 C   0  0  0  0  0  0
  -25.9684  -30.7801   21.3733 C   0  0  0  0  0  0
  -26.0363  -29.4046   20.7142 C   0  0  0  0  0  0
  -27.2177  -28.6048   20.6897 C   0  0  0  0  0  0
  -26.0264  -26.8722   19.4872 C   0  0  0  0  0  0
  -24.8621  -27.6697   19.5039 C   0  0  0  0  0  0
  -23.6365  -29.8182   20.1646 C   0  0  0  0  0  0
  -25.4111  -36.3052   24.0331 C   0  0  1  0  0  0
  -20.5967  -28.3444   23.1214 C   0  0  2  0  0  0
  -20.6753  -26.9217   22.5236 C   0  0  0  0  0  0
  -19.5593  -26.6202   21.5151 C   0  0  0  0  0  0
  -18.1758  -26.7944   22.1481 C   0  0  0  0  0  0
  -19.1635  -28.8684   23.2833 C   0  0  0  0  0  0
  -18.9613  -30.1258   23.8919 C   0  0  0  0  0  0
  -17.6663  -30.6484   24.0563 C   0  0  0  0  0  0
  -25.9078  -34.9436   23.5075 C   0  0  0  0  0  0
  -16.5488  -29.9125   23.6302 C   0  0  0  0  0  0
  -16.7321  -28.6612   23.0212 C   0  0  0  0  0  0
  -26.4533  -31.6566   25.0685 C   0  0  0  0  0  0
  -25.3674  -31.3763   26.1321 C   0  0  0  0  0  0
  -27.0370  -30.2976   24.6153 C   0  0  0  0  0  0
  -27.6032  -32.4341   25.7466 C   0  0  0  0  0  0
  -27.5583  -37.1799   24.8484 C   0  0  0  0  0  0
  -21.4281  -29.2857   22.3629 N   0  0  0  0  0  0
  -26.4286  -37.3762   23.9434 N   0  0  0  0  0  0
  -24.6941  -31.0547   22.0983 N   0  0  0  0  0  0
  -23.4261  -28.8090   23.3043 O   0  0  0  0  0  0
  -28.3976  -26.5093   20.1237 O   0  0  0  0  0  0
  -26.5672  -34.8924   22.4651 O   0  0  0  0  0  0
  -23.5456  -32.1428   23.7288 O   0  0  0  0  0  0
  -28.7564  -17.9393   20.0427 C   0  0  0  0  0  0
  -27.3705  -18.0858   19.7652 C   0  0  0  0  0  0
  -26.4683  -17.9139   20.8398 C   0  0  0  0  0  0
  -26.9557  -17.3424   22.0457 C   0  0  0  0  0  0
  -28.2219  -16.6967   22.0457 C   0  0  0  0  0  0
  -29.0522  -16.7890   20.8957 C   0  0  0  0  0  0
  -29.4575  -20.4086   19.0936 C   0  0  0  0  0  0
  -28.7218  -20.1465   21.4634 C   0  0  0  0  0  0
  -29.7158  -21.9392   19.3987 C   0  0  0  0  0  0
  -29.4306  -19.3774   20.2946 C   0  0  1  0  0  0
  -29.1511  -21.6333   21.6895 C   0  0  2  0  0  0
  -26.8704  -18.5610   18.4070 C   0  0  0  0  0  0
  -25.0328  -18.4231   20.7115 C   0  0  0  0  0  0
  -26.1126  -17.3759   23.3121 C   0  0  0  0  0  0
  -28.7144  -16.0286   23.3294 C   0  0  0  0  0  0
  -28.5637  -22.1672   23.0072 C   0  0  0  0  0  0
  -29.0283  -24.0377   20.7421 C   0  0  0  0  0  0
  -28.4708  -25.0892   19.6785 C   0  0  0  0  0  0
  -30.2818  -15.9944   20.8422 N   0  0  0  0  0  0
  -28.8717  -22.5167   20.4954 N   0  3  1  0  0  0
  -31.4423  -12.5294   19.1889 H   0  0  0  0  0  0
  -30.3036  -11.4920   19.9784 H   0  0  0  0  0  0
  -29.7829  -11.7222   17.5333 H   0  0  0  0  0  0
  -29.6577  -13.4541   17.7049 H   0  0  0  0  0  0
  -27.8440  -11.3173   18.8527 H   0  0  0  0  0  0
  -27.3813  -12.6035   17.7656 H   0  0  0  0  0  0
  -27.6031  -14.2792   19.4707 H   0  0  0  0  0  0
  -28.6913  -12.2197   21.4275 H   0  0  0  0  0  0
  -28.3803  -13.8909   21.7731 H   0  0  0  0  0  0
  -25.2741   -9.5477   22.4807 H   0  0  0  0  0  0
  -23.9946   -7.4415   22.7319 H   0  0  0  0  0  0
  -21.0878   -8.8772   19.8822 H   0  0  0  0  0  0
  -22.3776  -10.9656   19.6176 H   0  0  0  0  0  0
  -21.1870   -7.6059   23.9793 H   0  0  0  0  0  0
  -21.1577   -6.0445   25.9183 H   0  0  0  0  0  0
  -22.0537   -2.7528   23.3031 H   0  0  0  0  0  0
  -22.3971  -11.9714   22.4967 H   0  0  0  0  0  0
  -21.0850  -13.0893   22.2579 H   0  0  0  0  0  0
  -24.6092  -15.7735   20.6828 H   0  0  0  0  0  0
  -26.2461  -15.6602   20.3571 H   0  0  0  0  0  0
  -26.7225  -32.5399   23.1028 H   0  0  0  0  0  0
  -25.0066  -33.9703   25.0333 H   0  0  0  0  0  0
  -22.7176  -31.2985   21.4198 H   0  0  0  0  0  0
  -23.3742  -35.9618   23.3299 H   0  0  0  0  0  0
  -24.3594  -36.8908   22.2058 H   0  0  0  0  0  0
  -23.7300  -37.6481   23.6684 H   0  0  0  0  0  0
  -26.1103  -31.5456   20.6063 H   0  0  0  0  0  0
  -26.8457  -30.8196   22.0080 H   0  0  0  0  0  0
  -28.1235  -28.9839   21.1479 H   0  0  0  0  0  0
  -25.9251  -25.9193   18.9902 H   0  0  0  0  0  0
  -23.9570  -27.2995   19.0428 H   0  0  0  0  0  0
  -23.7765  -30.6046   19.4216 H   0  0  0  0  0  0
  -22.7525  -29.2614   19.8498 H   0  0  0  0  0  0
  -25.1296  -36.1871   25.0833 H   0  0  0  0  0  0
  -21.0172  -28.2773   24.1255 H   0  0  0  0  0  0
  -21.6520  -26.7416   22.0799 H   0  0  0  0  0  0
  -20.6052  -26.1997   23.3360 H   0  0  0  0  0  0
  -19.6565  -25.6074   21.1260 H   0  0  0  0  0  0
  -19.6589  -27.2877   20.6588 H   0  0  0  0  0  0
  -18.0077  -26.0129   22.8867 H   0  0  0  0  0  0
  -17.3925  -26.6785   21.3924 H   0  0  0  0  0  0
  -19.8140  -30.6972   24.2329 H   0  0  0  0  0  0
  -17.5414  -31.6144   24.5285 H   0  0  0  0  0  0
  -15.5545  -30.3196   23.7642 H   0  0  0  0  0  0
  -15.8718  -28.1013   22.6856 H   0  0  0  0  0  0
  -24.5800  -30.7213   25.7584 H   0  0  0  0  0  0
  -24.8903  -32.2966   26.4685 H   0  0  0  0  0  0
  -25.7842  -30.8912   27.0134 H   0  0  0  0  0  0
  -26.2960  -29.6731   24.1134 H   0  0  0  0  0  0
  -27.4040  -29.7219   25.4656 H   0  0  0  0  0  0
  -27.8840  -30.4247   23.9395 H   0  0  0  0  0  0
  -27.2572  -33.3611   26.2025 H   0  0  0  0  0  0
  -28.3813  -32.6964   25.0298 H   0  0  0  0  0  0
  -28.0716  -31.8505   26.5394 H   0  0  0  0  0  0
  -28.2568  -38.0108   24.7474 H   0  0  0  0  0  0
  -28.1095  -36.2636   24.6331 H   0  0  0  0  0  0
  -27.2306  -37.1471   25.8884 H   0  0  0  0  0  0
  -20.9568  -29.8490   21.6695 H   0  0  0  0  0  0
  -26.0134  -38.2825   24.1402 H   0  0  0  0  0  0
  -30.1943  -20.0793   18.3591 H   0  0  0  0  0  0
  -28.5094  -20.4272   18.5739 H   0  0  0  0  0  0
  -28.8955  -19.5809   22.3803 H   0  0  0  0  0  0
  -27.6436  -20.1637   21.3158 H   0  0  0  0  0  0
  -29.5747  -22.5246   18.4880 H   0  0  0  0  0  0
  -30.7594  -22.0676   19.6706 H   0  0  0  0  0  0
  -30.4669  -19.1896   20.5851 H   0  0  0  0  0  0
  -30.2305  -21.6091   21.8482 H   0  0  0  0  0  0
  -27.6784  -18.6983   17.6881 H   0  0  0  0  0  0
  -26.3229  -19.4966   18.4963 H   0  0  0  0  0  0
  -26.2049  -17.8160   17.9632 H   0  0  0  0  0  0
  -24.3507  -17.9997   21.4450 H   0  0  0  0  0  0
  -24.6059  -18.1742   19.7416 H   0  0  0  0  0  0
  -25.0049  -19.5073   20.8068 H   0  0  0  0  0  0
  -25.5525  -16.4455   23.3941 H   0  0  0  0  0  0
  -25.4231  -18.2216   23.3405 H   0  0  0  0  0  0
  -26.7333  -17.4874   24.2013 H   0  0  0  0  0  0
  -29.0040  -16.7991   24.0434 H   0  0  0  0  0  0
  -29.5831  -15.3889   23.1880 H   0  0  0  0  0  0
  -27.9345  -15.4296   23.7978 H   0  0  0  0  0  0
  -29.1570  -23.0103   23.3527 H   0  0  0  0  0  0
  -28.5959  -21.4222   23.8058 H   0  0  0  0  0  0
  -27.5359  -22.5061   22.8834 H   0  0  0  0  0  0
  -28.4834  -24.3048   21.6462 H   0  0  0  0  0  0
  -30.0680  -24.2501   20.9918 H   0  0  0  0  0  0
  -27.5256  -24.7002   19.3105 H   0  0  0  0  0  0
  -29.1427  -25.0955   18.8142 H   0  0  0  0  0  0
  -31.0959  -16.5870   20.8288 H   0  0  0  0  0  0
  -27.8981  -22.3765   20.2488 H   0  0  0  0  0  0
  1 25  1  0  0  0
  1 30  2  0  0  0
  1 89  1  0  0  0
  2  3  1  0  0  0
  2 25  1  0  0  0
  2 91  1  0  0  0
  2 92  1  0  0  0
  3  4  1  0  0  0
  3 93  1  0  0  0
  3 94  1  0  0  0
  4  5  1  0  0  0
  4 95  1  0  0  0
  4 96  1  0  0  0
  5  6  1  0  0  0
  5 26  1  0  0  0
  5 97  1  0  0  0
  6 25  1  0  0  0
  6 98  1  0  0  0
  6 99  1  0  0  0
  7  8  2  0  0  0
  7 26  1  0  0  0
  7 29  1  0  0  0
  8  9  1  0  0  0
  8 22  1  0  0  0
  9 10  1  0  0  0
  9 27  2  0  0  0
 10 11  2  0  0  0
 10 15  1  0  0  0
 11 12  1  0  0  0
 11100  1  0  0  0
 12 13  2  0  0  0
 12101  1  0  0  0
 13 14  1  0  0  0
 13 31  1  0  0  0
 14 15  2  0  0  0
 14102  1  0  0  0
 15103  1  0  0  0
 16 17  2  0  0  0
 16 21  1  0  0  0
 16 31  1  0  0  0
 17 18  1  0  0  0
 17104  1  0  0  0
 18 19  2  0  0  0
 18105  1  0  0  0
 19 20  1  0  0  0
 19 24  1  0  0  0
 20 21  2  0  0  0
 20106  1  0  0  0
 21 23  1  0  0  0
 22 28  1  0  0  0
 22 32  2  0  0  0
 26 27  1  0  0  0
 28107  1  0  0  0
 28108  1  0  0  0
 29109  1  0  0  0
 29110  1  0  0  0
 33 34  1  0  0  0
 33 66  1  0  0  0
 33 70  2  0  0  0
 34 36  1  0  0  0
 34 59  1  0  0  0
 34111  1  0  0  0
 35 44  2  0  0  0
 35 45  1  0  0  0
 35 68  1  0  0  0
 36 56  1  0  0  0
 36112  1  0  0  0
 37 39  1  0  0  0
 37 47  1  0  0  0
 37 66  1  0  0  0
 37113  1  0  0  0
 38 43  2  0  0  0
 38 46  1  0  0  0
 38 47  1  0  0  0
 39 64  1  0  0  0
 39 67  2  0  0  0
 40 52  1  0  0  0
 40 53  2  0  0  0
 40 58  1  0  0  0
 41114  1  0  0  0
 41115  1  0  0  0
 41116  1  0  0  0
 41 48  1  0  0  0
 42 43  1  0  0  0
 42 66  1  0  0  0
 42117  1  0  0  0
 42118  1  0  0  0
 43 44  1  0  0  0
 44119  1  0  0  0
 45 46  2  0  0  0
 45120  1  0  0  0
 46121  1  0  0  0
 47122  1  0  0  0
 47123  1  0  0  0
 48 56  1  0  0  0
 48 65  1  0  0  0
 48124  1  0  0  0
 49 50  1  0  0  0
 49 53  1  0  0  0
 49 64  1  0  0  0
 49125  1  0  0  0
 50 51  1  0  0  0
 50126  1  0  0  0
 50127  1  0  0  0
 51 52  1  0  0  0
 51128  1  0  0  0
 51129  1  0  0  0
 52130  1  0  0  0
 52131  1  0  0  0
 53 54  1  0  0  0
 54 55  2  0  0  0
 54132  1  0  0  0
 55 57  1  0  0  0
 55133  1  0  0  0
 56 69  2  0  0  0
 57 58  2  0  0  0
 57134  1  0  0  0
 58135  1  0  0  0
 59 60  1  0  0  0
 59 61  1  0  0  0
 59 62  1  0  0  0
 60136  1  0  0  0
 60137  1  0  0  0
 60138  1  0  0  0
 61139  1  0  0  0
 61140  1  0  0  0
 61141  1  0  0  0
 62142  1  0  0  0
 62143  1  0  0  0
 62144  1  0  0  0
 63 65  1  0  0  0
 63145  1  0  0  0
 63146  1  0  0  0
 63147  1  0  0  0
 64148  1  0  0  0
 65149  1  0  0  0
 68 88  1  0  0  0
 71 72  2  0  0  0
 71 76  1  0  0  0
 71 80  1  0  0  0
 72 73  1  0  0  0
 72 82  1  0  0  0
 73 74  2  0  0  0
 73 83  1  0  0  0
 74 75  1  0  0  0
 74 84  1  0  0  0
 75 76  2  0  0  0
 75 85  1  0  0  0
 76 89  1  0  0  0
 77 79  1  0  0  0
 77 80  1  0  0  0
 77150  1  0  0  0
 77151  1  0  0  0
 78 80  1  0  0  0
 78 81  1  0  0  0
 78152  1  0  0  0
 78153  1  0  0  0
 79 90  1  0  0  0
 79154  1  0  0  0
 79155  1  0  0  0
 80156  1  0  0  0
 81 86  1  0  0  0
 81 90  1  0  0  0
 81157  1  0  0  0
 82158  1  0  0  0
 82159  1  0  0  0
 82160  1  0  0  0
 83161  1  0  0  0
 83162  1  0  0  0
 83163  1  0  0  0
 84164  1  0  0  0
 84165  1  0  0  0
 84166  1  0  0  0
 85167  1  0  0  0
 85168  1  0  0  0
 85169  1  0  0  0
 86170  1  0  0  0
 86171  1  0  0  0
 86172  1  0  0  0
 87 88  1  0  0  0
 87173  1  0  0  0
 87174  1  0  0  0
 87 90  1  0  0  0
 88175  1  0  0  0
 88176  1  0  0  0
 89177  1  0  0  0
 90178  1  0  0  0
M  CHG  1  90   1
M  ISO  4   1 100  68 101  88 101  89 100
M  END
> <chiral flag>
0

> <version>
0

> <s_m_source_file>
/data/baiqing/PycharmProjects/Reinvent-master-3.2/result/LINK_invent/BTK/process_docking_weight1_custom_sum_contain_oxygen_bond_distance_aromatic_linkinvent_7_9_3/rearranged_h_0161.sdf

> <i_m_source_file_index>
81

> <r_mmod_Potential_Energy-OPLS-2005>
369.142913818359

> <r_mmod_Stretch_Energy-OPLS-2005>
116.817138671875

> <r_mmod_Bend_Energy-OPLS-2005>
260.070556640625

> <r_mmod_Torsional_Energy-OPLS-2005>
468.548370361328

> <r_mmod_Improper_Torsional_Energy-OPLS-2005>
25.2413902282715

> <r_mmod_Van_der_Waal_Energy-OPLS-2005>
164.794876098633

> <r_mmod_Electrostatic_Energy-OPLS-2005>
-335.926025390625

> <r_mmod_Solvation_Energy-OPLS-2005>
-400.531860351562

> <b_mmod_Minimization_Converged-OPLS-2005>
0

> <r_mmod_RMS_Derivative-OPLS-2005>
9.62556743621826

$$$$
81
                    3D
 Structure written by MMmdl.
167176  0  0  1  0            999 V2000
  -30.7114  -14.6938   20.4744 C   0  0  0  0  0  0
  -30.4035  -12.4397   19.4556 C   0  0  0  0  0  0
  -29.4867  -12.5016   18.2191 C   0  0  0  0  0  0
  -28.0136  -12.3500   18.6411 C   0  0  0  0  0  0
  -27.6353  -13.2449   19.8536 C   0  0  2  0  0  0
  -28.6923  -13.1740   20.9780 C   0  0  0  0  0  0
  -25.2452  -13.8231   20.5729 C   0  0  0  0  0  0
  -24.1764  -13.0453   20.9233 C   0  0  0  0  0  0
  -24.6392  -11.6942   20.8786 C   0  0  0  0  0  0
  -23.9088  -10.4306   21.0412 C   0  0  0  0  0  0
  -24.3643   -9.4218   21.9187 C   0  0  0  0  0  0
  -23.6319   -8.2245   22.0742 C   0  0  0  0  0  0
  -22.4301   -8.0289   21.3540 C   0  0  0  0  0  0
  -21.9950   -9.0264   20.4636 C   0  0  0  0  0  0
  -22.7273  -10.2148   20.3046 C   0  0  0  0  0  0
  -21.6865   -6.0758   22.5288 C   0  0  0  0  0  0
  -21.4027   -6.5650   23.8223 C   0  0  0  0  0  0
  -21.3660   -5.6791   24.9178 C   0  0  0  0  0  0
  -21.6045   -4.3052   24.7220 C   0  0  0  0  0  0
  -21.8816   -3.8161   23.4339 C   0  0  0  0  0  0
  -21.9192   -4.6982   22.3400 C   0  0  0  0  0  0
  -22.7781  -13.5204   21.1881 C   0  0  0  0  0  0
  -22.1649   -4.2182   21.0972 F   0  0  0  0  0  0
  -21.5631   -3.4525   25.7725 F   0  0  0  0  0  0
  -29.9766  -13.5306   20.3661 N   0  0  0  0  0  0
  -26.2918  -12.9478   20.3372 N   0  0  0  0  0  0
  -25.9337  -11.6610   20.5849 N   0  0  0  0  0  0
  -22.0436  -12.8179   22.0431 N   0  0  0  0  0  0
  -25.4075  -15.1957   20.4110 N   0  0  0  0  0  0
  -31.9177  -14.6222   20.2236 O   0  0  0  0  0  0
  -21.6646   -6.8899   21.4247 O   0  0  0  0  0  0
  -22.3463  -14.5519   20.6737 O   0  0  0  0  0  0
  -24.6341  -31.8583   23.2063 C   0  0  0  0  0  0
  -25.9176  -32.4764   23.8387 C   0  0  1  0  0  0
  -27.1895  -27.2626   20.1077 C   0  0  0  0  0  0
  -25.5988  -33.8568   24.2303 N   0  0  0  0  0  0
  -23.4272  -30.4893   21.5508 C   0  0  2  0  0  0
  -24.8676  -28.9546   20.1062 C   0  0  0  0  0  0
  -22.7508  -29.4628   22.4925 C   0  0  0  0  0  0
  -18.0291  -28.1404   22.8483 C   0  0  0  0  0  0
  -24.1477  -36.7264   23.2628 C   0  0  0  0  0  0
  -25.9771  -30.7674   21.3919 C   0  0  0  0  0  0
  -26.0435  -29.3941   20.7284 C   0  0  0  0  0  0
  -27.2100  -28.5577   20.7296 C   0  0  0  0  0  0
  -26.0052  -26.9336   19.4052 C   0  0  0  0  0  0
  -24.8542  -27.7306   19.4331 C   0  0  0  0  0  0
  -23.6428  -29.8432   20.1613 C   0  0  0  0  0  0
  -25.4104  -36.3062   24.0324 C   0  0  1  0  0  0
  -20.5892  -28.3715   23.1258 C   0  0  2  0  0  0
  -20.6785  -26.9433   22.5396 C   0  0  0  0  0  0
  -19.5754  -26.6393   21.5209 C   0  0  0  0  0  0
  -18.1932  -26.7947   22.1619 C   0  0  0  0  0  0
  -19.1544  -28.8881   23.2860 C   0  0  0  0  0  0
  -18.9469  -30.1478   23.8884 C   0  0  0  0  0  0
  -17.6466  -30.6597   24.0571 C   0  0  0  0  0  0
  -25.9073  -34.9437   23.5103 C   0  0  0  0  0  0
  -16.5352  -29.9094   23.6341 C   0  0  0  0  0  0
  -16.7277  -28.6516   23.0355 C   0  0  0  0  0  0
  -26.4542  -31.6574   25.0767 C   0  0  0  0  0  0
  -25.3762  -31.3697   26.1476 C   0  0  0  0  0  0
  -27.0407  -30.2998   24.6248 C   0  0  0  0  0  0
  -27.6092  -32.4313   25.7540 C   0  0  0  0  0  0
  -27.5578  -37.1768   24.8447 C   0  0  0  0  0  0
  -21.4217  -29.3060   22.3657 N   0  0  0  0  0  0
  -26.4256  -37.3783   23.9444 N   0  0  0  0  0  0
  -24.6986  -31.0545   22.1057 N   0  0  0  0  0  0
  -23.4204  -28.8146   23.3010 O   0  0  0  0  0  0
  -28.2152  -26.2862   20.1851 O   0  0  0  0  0  0
  -26.5611  -34.8902   22.4655 O   0  0  0  0  0  0
  -23.5495  -32.1427   23.7354 O   0  0  0  0  0  0
  -28.9500  -21.2813   19.4230 C   0  0  0  0  0  0
  -29.2439  -20.6383   20.6567 C   0  0  0  0  0  0
  -28.5970  -22.6696   19.3226 C   0  0  0  0  0  0
  -28.5150  -23.5236   20.4694 C   0  0  0  0  0  0
  -28.8916  -22.9056   21.7009 C   0  0  0  0  0  0
  -29.2090  -21.5020   21.7924 C   0  0  0  0  0  0
  -28.5832  -18.0271   21.1170 C   0  0  0  0  0  0
  -30.3591  -18.4687   19.5553 C   0  0  0  0  0  0
  -29.0831  -16.5261   21.3296 C   0  0  0  0  0  0
  -30.9880  -17.0645   19.8486 C   0  0  0  0  0  0
  -29.6681  -19.0985   20.7787 C   0  0  0  0  0  0
  -28.2639  -23.2077   17.9408 C   0  0  0  0  0  0
  -28.9269  -23.7633   22.9586 C   0  0  0  0  0  0
  -28.3179  -20.6820   23.7908 C   0  0  0  0  0  0
  -27.6978  -24.8952   20.4504 C   0  0  0  0  0  0
  -30.1256  -15.9707   20.4124 N   0  0  0  0  0  0
  -29.4819  -20.9466   23.0160 O   0  0  0  0  0  0
  -31.4446  -12.5171   19.1428 H   0  0  0  0  0  0
  -30.3211  -11.4704   19.9503 H   0  0  0  0  0  0
  -29.7537  -11.7195   17.5073 H   0  0  0  0  0  0
  -29.6270  -13.4521   17.7010 H   0  0  0  0  0  0
  -27.8537  -11.3010   18.8911 H   0  0  0  0  0  0
  -27.3551  -12.5619   17.7972 H   0  0  0  0  0  0
  -27.6273  -14.2709   19.4815 H   0  0  0  0  0  0
  -28.7339  -12.1676   21.3999 H   0  0  0  0  0  0
  -28.4466  -13.8279   21.8127 H   0  0  0  0  0  0
  -25.2790   -9.5691   22.4767 H   0  0  0  0  0  0
  -24.0040   -7.4631   22.7451 H   0  0  0  0  0  0
  -21.0898   -8.8788   19.8925 H   0  0  0  0  0  0
  -22.3751  -10.9688   19.6145 H   0  0  0  0  0  0
  -21.2016   -7.6159   23.9749 H   0  0  0  0  0  0
  -21.1480   -6.0506   25.9085 H   0  0  0  0  0  0
  -22.0595   -2.7627   23.2817 H   0  0  0  0  0  0
  -22.4088  -11.9854   22.4817 H   0  0  0  0  0  0
  -21.1033  -13.1151   22.2623 H   0  0  0  0  0  0
  -24.6364  -15.8447   20.5223 H   0  0  0  0  0  0
  -26.2563  -15.6412   20.0883 H   0  0  0  0  0  0
  -26.7239  -32.5403   23.1125 H   0  0  0  0  0  0
  -25.0197  -33.9727   25.0489 H   0  0  0  0  0  0
  -22.7238  -31.3131   21.4156 H   0  0  0  0  0  0
  -23.3774  -35.9553   23.3219 H   0  0  0  0  0  0
  -24.3592  -36.8972   22.2061 H   0  0  0  0  0  0
  -23.7173  -37.6415   23.6707 H   0  0  0  0  0  0
  -26.1182  -31.5284   20.6234 H   0  0  0  0  0  0
  -26.8559  -30.8126   22.0235 H   0  0  0  0  0  0
  -28.0993  -28.8757   21.2554 H   0  0  0  0  0  0
  -25.9197  -26.0417   18.8074 H   0  0  0  0  0  0
  -23.9657  -27.4040   18.9109 H   0  0  0  0  0  0
  -23.7742  -30.6305   19.4181 H   0  0  0  0  0  0
  -22.7585  -29.2864   19.8467 H   0  0  0  0  0  0
  -25.1272  -36.1892   25.0812 H   0  0  0  0  0  0
  -20.9979  -28.3291   24.1378 H   0  0  0  0  0  0
  -20.5709  -26.2325   23.3602 H   0  0  0  0  0  0
  -21.6652  -26.7467   22.1174 H   0  0  0  0  0  0
  -19.6918  -25.6302   21.1248 H   0  0  0  0  0  0
  -19.6694  -27.3197   20.6735 H   0  0  0  0  0  0
  -17.4202  -26.6705   21.4016 H   0  0  0  0  0  0
  -18.0323  -26.0086   22.9015 H   0  0  0  0  0  0
  -19.7937  -30.7310   24.2237 H   0  0  0  0  0  0
  -17.5012  -31.6277   24.5180 H   0  0  0  0  0  0
  -15.5356  -30.2994   23.7687 H   0  0  0  0  0  0
  -15.8672  -28.0842   22.7071 H   0  0  0  0  0  0
  -24.5983  -30.6993   25.7796 H   0  0  0  0  0  0
  -24.8904  -32.2849   26.4869 H   0  0  0  0  0  0
  -25.8099  -30.8911   27.0266 H   0  0  0  0  0  0
  -26.3008  -29.6722   24.1266 H   0  0  0  0  0  0
  -27.4097  -29.7276   25.4770 H   0  0  0  0  0  0
  -27.8878  -30.4287   23.9508 H   0  0  0  0  0  0
  -27.2724  -33.3645   26.2061 H   0  0  0  0  0  0
  -28.3943  -32.6811   25.0390 H   0  0  0  0  0  0
  -28.0709  -31.8464   26.5507 H   0  0  0  0  0  0
  -28.2494  -38.0159   24.7640 H   0  0  0  0  0  0
  -28.1179  -36.2709   24.6088 H   0  0  0  0  0  0
  -27.2326  -37.1175   25.8847 H   0  0  0  0  0  0
  -20.9407  -29.8798   21.6871 H   0  0  0  0  0  0
  -26.0118  -38.2822   24.1565 H   0  0  0  0  0  0
  -28.9721  -20.6874   18.5201 H   0  0  0  0  0  0
  -28.0461  -18.3319   22.0129 H   0  0  0  0  0  0
  -27.8352  -18.0333   20.3228 H   0  0  0  0  0  0
  -29.6538  -18.3865   18.7263 H   0  0  0  0  0  0
  -31.1512  -19.1338   19.2110 H   0  0  0  0  0  0
  -28.2009  -15.8913   21.2915 H   0  0  0  0  0  0
  -29.4749  -16.4329   22.3433 H   0  0  0  0  0  0
  -31.8183  -17.2160   20.5417 H   0  0  0  0  0  0
  -31.4383  -16.7196   18.9157 H   0  0  0  0  0  0
  -30.4014  -19.0765   21.5868 H   0  0  0  0  0  0
  -28.9031  -22.7479   17.1852 H   0  0  0  0  0  0
  -28.4198  -24.2857   17.8824 H   0  0  0  0  0  0
  -27.2270  -22.9931   17.6802 H   0  0  0  0  0  0
  -27.9282  -23.8766   23.3804 H   0  0  0  0  0  0
  -29.3224  -24.7559   22.7382 H   0  0  0  0  0  0
  -29.5724  -23.3351   23.7256 H   0  0  0  0  0  0
  -28.5503  -19.9470   24.5603 H   0  0  0  0  0  0
  -27.5027  -20.2819   23.1852 H   0  0  0  0  0  0
  -27.9572  -21.5802   24.2918 H   0  0  0  0  0  0
  -27.1533  -24.9595   21.3934 H   0  0  0  0  0  0
  -26.9189  -24.6286   19.7464 H   0  0  0  0  0  0
  1 25  1  0  0  0
  1 30  2  0  0  0
  1 86  1  0  0  0
  2  3  1  0  0  0
  2 25  1  0  0  0
  2 88  1  0  0  0
  2 89  1  0  0  0
  3  4  1  0  0  0
  3 90  1  0  0  0
  3 91  1  0  0  0
  4  5  1  0  0  0
  4 92  1  0  0  0
  4 93  1  0  0  0
  5  6  1  0  0  0
  5 26  1  0  0  0
  5 94  1  0  0  0
  6 25  1  0  0  0
  6 95  1  0  0  0
  6 96  1  0  0  0
  7  8  2  0  0  0
  7 26  1  0  0  0
  7 29  1  0  0  0
  8  9  1  0  0  0
  8 22  1  0  0  0
  9 10  1  0  0  0
  9 27  2  0  0  0
 10 11  2  0  0  0
 10 15  1  0  0  0
 11 12  1  0  0  0
 11 97  1  0  0  0
 12 13  2  0  0  0
 12 98  1  0  0  0
 13 14  1  0  0  0
 13 31  1  0  0  0
 14 15  2  0  0  0
 14 99  1  0  0  0
 15100  1  0  0  0
 16 17  2  0  0  0
 16 21  1  0  0  0
 16 31  1  0  0  0
 17 18  1  0  0  0
 17101  1  0  0  0
 18 19  2  0  0  0
 18102  1  0  0  0
 19 20  1  0  0  0
 19 24  1  0  0  0
 20 21  2  0  0  0
 20103  1  0  0  0
 21 23  1  0  0  0
 22 28  1  0  0  0
 22 32  2  0  0  0
 26 27  1  0  0  0
 28104  1  0  0  0
 28105  1  0  0  0
 29106  1  0  0  0
 29107  1  0  0  0
 33 34  1  0  0  0
 33 66  1  0  0  0
 33 70  2  0  0  0
 34 36  1  0  0  0
 34 59  1  0  0  0
 34108  1  0  0  0
 35 44  2  0  0  0
 35 45  1  0  0  0
 35 68  1  0  0  0
 36 56  1  0  0  0
 36109  1  0  0  0
 37 39  1  0  0  0
 37 47  1  0  0  0
 37 66  1  0  0  0
 37110  1  0  0  0
 38 43  2  0  0  0
 38 46  1  0  0  0
 38 47  1  0  0  0
 39 64  1  0  0  0
 39 67  2  0  0  0
 40 52  1  0  0  0
 40 53  2  0  0  0
 40 58  1  0  0  0
 41111  1  0  0  0
 41112  1  0  0  0
 41113  1  0  0  0
 41 48  1  0  0  0
 42 43  1  0  0  0
 42 66  1  0  0  0
 42114  1  0  0  0
 42115  1  0  0  0
 43 44  1  0  0  0
 44116  1  0  0  0
 45 46  2  0  0  0
 45117  1  0  0  0
 46118  1  0  0  0
 47119  1  0  0  0
 47120  1  0  0  0
 48 56  1  0  0  0
 48 65  1  0  0  0
 48121  1  0  0  0
 49 50  1  0  0  0
 49 53  1  0  0  0
 49 64  1  0  0  0
 49122  1  0  0  0
 50 51  1  0  0  0
 50123  1  0  0  0
 50124  1  0  0  0
 51 52  1  0  0  0
 51125  1  0  0  0
 51126  1  0  0  0
 52127  1  0  0  0
 52128  1  0  0  0
 53 54  1  0  0  0
 54 55  2  0  0  0
 54129  1  0  0  0
 55 57  1  0  0  0
 55130  1  0  0  0
 56 69  2  0  0  0
 57 58  2  0  0  0
 57131  1  0  0  0
 58132  1  0  0  0
 59 60  1  0  0  0
 59 61  1  0  0  0
 59 62  1  0  0  0
 60133  1  0  0  0
 60134  1  0  0  0
 60135  1  0  0  0
 61136  1  0  0  0
 61137  1  0  0  0
 61138  1  0  0  0
 62139  1  0  0  0
 62140  1  0  0  0
 62141  1  0  0  0
 63 65  1  0  0  0
 63142  1  0  0  0
 63143  1  0  0  0
 63144  1  0  0  0
 64145  1  0  0  0
 65146  1  0  0  0
 68 85  1  0  0  0
 71 72  2  0  0  0
 71 73  1  0  0  0
 71147  1  0  0  0
 72 76  1  0  0  0
 72 81  1  0  0  0
 73 74  2  0  0  0
 73 82  1  0  0  0
 74 75  1  0  0  0
 74 85  1  0  0  0
 75 76  2  0  0  0
 75 83  1  0  0  0
 76 87  1  0  0  0
 77 79  1  0  0  0
 77 81  1  0  0  0
 77148  1  0  0  0
 77149  1  0  0  0
 78 80  1  0  0  0
 78 81  1  0  0  0
 78150  1  0  0  0
 78151  1  0  0  0
 79 86  1  0  0  0
 79152  1  0  0  0
 79153  1  0  0  0
 80 86  1  0  0  0
 80154  1  0  0  0
 80155  1  0  0  0
 81156  1  0  0  0
 82157  1  0  0  0
 82158  1  0  0  0
 82159  1  0  0  0
 83160  1  0  0  0
 83161  1  0  0  0
 83162  1  0  0  0
 84 87  1  0  0  0
 84163  1  0  0  0
 84164  1  0  0  0
 84165  1  0  0  0
 85166  1  0  0  0
 85167  1  0  0  0
M  ISO  4   1 100  68 101  85 101  86 100
M  END
> <chiral flag>
0

> <version>
0

> <s_m_source_file>
/data/baiqing/PycharmProjects/Reinvent-master-3.2/result/LINK_invent/BTK/process_docking_weight1_custom_sum_contain_oxygen_bond_distance_aromatic_linkinvent_7_9_3/rearranged_h_0161.sdf

> <i_m_source_file_index>
82

> <r_mmod_Potential_Energy-OPLS-2005>
471.044677734375

> <r_mmod_Stretch_Energy-OPLS-2005>
115.910667419434

> <r_mmod_Bend_Energy-OPLS-2005>
203.528228759766

> <r_mmod_Torsional_Energy-OPLS-2005>
371.139129638672

> <r_mmod_Improper_Torsional_Energy-OPLS-2005>
18.390230178833

> <r_mmod_Van_der_Waal_Energy-OPLS-2005>
165.102783203125

> <r_mmod_Electrostatic_Energy-OPLS-2005>
-296.649841308594

> <r_mmod_Solvation_Energy-OPLS-2005>
-198.568771362305

> <b_mmod_Minimization_Converged-OPLS-2005>
0

> <r_mmod_RMS_Derivative-OPLS-2005>
2.05349397659302

$$$$
82
                    3D
 Structure written by MMmdl.
176185  0  0  1  0            999 V2000
  -30.6123  -14.7081   20.3603 C   0  0  0  0  0  0
  -30.4634  -12.3775   19.5019 C   0  0  0  0  0  0
  -29.5174  -12.2564   18.2756 C   0  0  0  0  0  0
  -28.0314  -12.2429   18.6747 C   0  0  0  0  0  0
  -27.6414  -13.2063   19.8274 C   0  0  2  0  0  0
  -28.6920  -13.1981   20.9604 C   0  0  0  0  0  0
  -25.2611  -13.8193   20.5749 C   0  0  0  0  0  0
  -24.1825  -13.0465   20.9209 C   0  0  0  0  0  0
  -24.6356  -11.6949   20.8736 C   0  0  0  0  0  0
  -23.9040  -10.4323   21.0386 C   0  0  0  0  0  0
  -24.3635   -9.4261   21.9144 C   0  0  0  0  0  0
  -23.6322   -8.2286   22.0741 C   0  0  0  0  0  0
  -22.4306   -8.0322   21.3531 C   0  0  0  0  0  0
  -21.9909   -9.0289   20.4647 C   0  0  0  0  0  0
  -22.7219  -10.2173   20.3045 C   0  0  0  0  0  0
  -21.6854   -6.0764   22.5275 C   0  0  0  0  0  0
  -21.3987   -6.5639   23.8232 C   0  0  0  0  0  0
  -21.3684   -5.6787   24.9166 C   0  0  0  0  0  0
  -21.6046   -4.3049   24.7205 C   0  0  0  0  0  0
  -21.8834   -3.8173   23.4310 C   0  0  0  0  0  0
  -21.9207   -4.6983   22.3394 C   0  0  0  0  0  0
  -22.7842  -13.5302   21.1860 C   0  0  0  0  0  0
  -22.1681   -4.2181   21.0961 F   0  0  0  0  0  0
  -21.5650   -3.4547   25.7710 F   0  0  0  0  0  0
  -30.0106  -13.4761   20.3753 N   0  0  0  0  0  0
  -26.2974  -12.9326   20.3237 N   0  0  0  0  0  0
  -25.9275  -11.6518   20.5756 N   0  0  0  0  0  0
  -22.0510  -12.8318   22.0453 N   0  0  0  0  0  0
  -25.4332  -15.1878   20.4370 N   0  0  0  0  0  0
  -31.8340  -14.8234   20.2184 O   0  0  0  0  0  0
  -21.6669   -6.8898   21.4245 O   0  0  0  0  0  0
  -22.3516  -14.5596   20.6724 O   0  0  0  0  0  0
  -24.6156  -31.8679   23.2040 C   0  0  0  0  0  0
  -25.9043  -32.4798   23.8389 C   0  0  1  0  0  0
  -27.2381  -27.3366   20.1725 C   0  0  0  0  0  0
  -25.5930  -33.8601   24.2323 N   0  0  0  0  0  0
  -23.4132  -30.4814   21.5438 C   0  0  2  0  0  0
  -24.8620  -28.9300   20.1282 C   0  0  0  0  0  0
  -22.7477  -29.4606   22.4963 C   0  0  0  0  0  0
  -18.0355  -28.1505   22.8442 C   0  0  0  0  0  0
  -24.1511  -36.7270   23.2630 C   0  0  0  0  0  0
  -25.9467  -30.8069   21.3657 C   0  0  0  0  0  0
  -26.0236  -29.4276   20.7287 C   0  0  0  0  0  0
  -27.2058  -28.6409   20.7446 C   0  0  0  0  0  0
  -26.0621  -26.8948   19.5198 C   0  0  0  0  0  0
  -24.8844  -27.6683   19.5141 C   0  0  0  0  0  0
  -23.6328  -29.8120   20.1582 C   0  0  0  0  0  0
  -25.4116  -36.3052   24.0341 C   0  0  1  0  0  0
  -20.5894  -28.3662   23.1366 C   0  0  2  0  0  0
  -20.6675  -26.9354   22.5583 C   0  0  0  0  0  0
  -19.5795  -26.6396   21.5250 C   0  0  0  0  0  0
  -18.1925  -26.8056   22.1563 C   0  0  0  0  0  0
  -19.1597  -28.8794   23.3058 C   0  0  0  0  0  0
  -18.9524  -30.1277   23.9271 C   0  0  0  0  0  0
  -17.6541  -30.6479   24.0889 C   0  0  0  0  0  0
  -25.9031  -34.9423   23.5088 C   0  0  0  0  0  0
  -16.5369  -29.9220   23.6440 C   0  0  0  0  0  0
  -16.7330  -28.6709   23.0261 C   0  0  0  0  0  0
  -26.4516  -31.6543   25.0728 C   0  0  0  0  0  0
  -25.3788  -31.3643   26.1473 C   0  0  0  0  0  0
  -27.0346  -30.2951   24.6192 C   0  0  0  0  0  0
  -27.6095  -32.4261   25.7508 C   0  0  0  0  0  0
  -27.5593  -37.1809   24.8467 C   0  0  0  0  0  0
  -21.4186  -29.2884   22.3590 N   0  0  0  0  0  0
  -26.4298  -37.3739   23.9407 N   0  0  0  0  0  0
  -24.6784  -31.0699   22.0983 N   0  0  0  0  0  0
  -23.4216  -28.8390   23.3229 O   0  0  0  0  0  0
  -28.3944  -26.5526   20.2837 O   0  0  0  0  0  0
  -26.5598  -34.8873   22.4646 O   0  0  0  0  0  0
  -23.5350  -32.1449   23.7449 O   0  0  0  0  0  0
  -29.7133  -15.9252   20.0133 C   0  0  0  0  0  0
  -29.3778  -17.0204   20.8792 C   0  0  0  0  0  0
  -28.1877  -17.7249   20.6713 C   0  0  0  0  0  0
  -29.1573  -16.0536   18.6953 C   0  0  0  0  0  0
  -27.3804  -17.5223   19.5537 C   0  0  0  0  0  0
  -27.9625  -16.8172   18.4783 C   0  0  0  0  0  0
  -30.3043  -17.9971   21.6322 C   0  0  0  0  0  0
  -28.1399  -18.9944   21.4660 C   0  0  0  0  0  0
  -29.6191  -19.4384   21.4352 C   0  0  2  0  0  0
  -29.8932  -15.4650   17.4937 C   0  0  0  0  0  0
  -26.0380  -18.2345   19.4334 C   0  0  0  0  0  0
  -27.3218  -16.9658   17.1041 C   0  0  0  0  0  0
  -30.0286  -19.9678   20.0335 C   0  0  0  0  0  0
  -29.5784  -24.7683   19.2958 C   0  0  0  0  0  0
  -29.8346  -20.5917   22.4963 C   0  0  0  0  0  0
  -29.7941  -22.1409   22.0962 C   0  0  0  0  0  0
  -28.4839  -24.2906   21.5694 C   0  0  0  0  0  0
  -28.3774  -25.0773   20.1986 C   0  0  1  0  0  0
  -28.5571  -22.7723   21.5177 N   0  3  0  0  0  0
  -31.4941  -12.5145   19.1759 H   0  0  0  0  0  0
  -30.4530  -11.4486   20.0754 H   0  0  0  0  0  0
  -29.7487  -11.3154   17.7783 H   0  0  0  0  0  0
  -29.6927  -12.9760   17.4940 H   0  0  0  0  0  0
  -27.8370  -11.2207   18.9978 H   0  0  0  0  0  0
  -27.4043  -12.4109   17.8016 H   0  0  0  0  0  0
  -27.6038  -14.2017   19.3998 H   0  0  0  0  0  0
  -28.7034  -12.2424   21.4956 H   0  0  0  0  0  0
  -28.4421  -13.9647   21.6968 H   0  0  0  0  0  0
  -25.2768   -9.5782   22.4718 H   0  0  0  0  0  0
  -24.0067   -7.4690   22.7465 H   0  0  0  0  0  0
  -21.0846   -8.8826   19.8950 H   0  0  0  0  0  0
  -22.3661  -10.9742   19.6223 H   0  0  0  0  0  0
  -21.1934   -7.6150   23.9718 H   0  0  0  0  0  0
  -21.1482   -6.0507   25.9069 H   0  0  0  0  0  0
  -22.0577   -2.7635   23.2798 H   0  0  0  0  0  0
  -22.4105  -11.9996   22.4919 H   0  0  0  0  0  0
  -21.1146  -13.1372   22.2658 H   0  0  0  0  0  0
  -24.6900  -15.8505   20.6184 H   0  0  0  0  0  0
  -26.3071  -15.6411   20.1866 H   0  0  0  0  0  0
  -26.7052  -32.5546   23.1096 H   0  0  0  0  0  0
  -25.0268  -33.9803   25.0616 H   0  0  0  0  0  0
  -22.7139  -31.3021   21.3778 H   0  0  0  0  0  0
  -23.3789  -35.9586   23.3274 H   0  0  0  0  0  0
  -24.3578  -36.8949   22.2044 H   0  0  0  0  0  0
  -23.7284  -37.6497   23.6645 H   0  0  0  0  0  0
  -26.0768  -31.5747   20.5993 H   0  0  0  0  0  0
  -26.8193  -30.8598   22.0035 H   0  0  0  0  0  0
  -28.0834  -29.0318   21.2405 H   0  0  0  0  0  0
  -26.0166  -25.9503   19.0081 H   0  0  0  0  0  0
  -23.9983  -27.2827   19.0305 H   0  0  0  0  0  0
  -23.7721  -30.5795   19.3940 H   0  0  0  0  0  0
  -22.7527  -29.2455   19.8524 H   0  0  0  0  0  0
  -25.1302  -36.1959   25.0861 H   0  0  0  0  0  0
  -21.0062  -28.3414   24.1524 H   0  0  0  0  0  0
  -20.5441  -26.2278   23.3862 H   0  0  0  0  0  0
  -21.6547  -26.7312   22.1402 H   0  0  0  0  0  0
  -19.6704  -25.6200   21.1409 H   0  0  0  0  0  0
  -19.6677  -27.3053   20.6632 H   0  0  0  0  0  0
  -17.4198  -26.6981   21.3954 H   0  0  0  0  0  0
  -18.0193  -26.0223   22.8842 H   0  0  0  0  0  0
  -19.7948  -30.6864   24.3095 H   0  0  0  0  0  0
  -17.5096  -31.5973   24.5876 H   0  0  0  0  0  0
  -15.5315  -30.3134   23.7783 H   0  0  0  0  0  0
  -15.8671  -28.1170   22.6972 H   0  0  0  0  0  0
  -24.5991  -30.6972   25.7787 H   0  0  0  0  0  0
  -24.8913  -32.2799   26.4843 H   0  0  0  0  0  0
  -25.8150  -30.8871   27.0265 H   0  0  0  0  0  0
  -26.2894  -29.6725   24.1226 H   0  0  0  0  0  0
  -27.4059  -29.7214   25.4710 H   0  0  0  0  0  0
  -27.8762  -30.4215   23.9358 H   0  0  0  0  0  0
  -27.2712  -33.3557   26.2075 H   0  0  0  0  0  0
  -28.3896  -32.6874   25.0336 H   0  0  0  0  0  0
  -28.0727  -31.8392   26.5476 H   0  0  0  0  0  0
  -28.2607  -38.0105   24.7507 H   0  0  0  0  0  0
  -28.1116  -36.2681   24.6275 H   0  0  0  0  0  0
  -27.2291  -37.1372   25.8853 H   0  0  0  0  0  0
  -20.9461  -29.8071   21.6339 H   0  0  0  0  0  0
  -26.0215  -38.2862   24.1333 H   0  0  0  0  0  0
  -31.3226  -17.9452   21.2425 H   0  0  0  0  0  0
  -30.3369  -17.7012   22.6824 H   0  0  0  0  0  0
  -27.4574  -19.7522   21.0934 H   0  0  0  0  0  0
  -27.8145  -18.7325   22.4756 H   0  0  0  0  0  0
  -30.6476  -14.7375   17.7733 H   0  0  0  0  0  0
  -30.4605  -16.2377   16.9827 H   0  0  0  0  0  0
  -29.2181  -14.9937   16.7779 H   0  0  0  0  0  0
  -25.5560  -18.3098   20.4160 H   0  0  0  0  0  0
  -25.3644  -17.6764   18.7852 H   0  0  0  0  0  0
  -26.1640  -19.2469   19.0330 H   0  0  0  0  0  0
  -28.0141  -16.7679   16.2898 H   0  0  0  0  0  0
  -26.9819  -17.9934   16.9536 H   0  0  0  0  0  0
  -26.4477  -16.3164   17.0149 H   0  0  0  0  0  0
  -30.1615  -19.1541   19.3135 H   0  0  0  0  0  0
  -30.9845  -20.5020   20.0534 H   0  0  0  0  0  0
  -29.2694  -20.6214   19.5978 H   0  0  0  0  0  0
  -29.5674  -23.7297   18.9709 H   0  0  0  0  0  0
  -30.5205  -24.9436   19.8149 H   0  0  0  0  0  0
  -29.5479  -25.3775   18.3875 H   0  0  0  0  0  0
  -30.8282  -20.4483   22.9179 H   0  0  0  0  0  0
  -29.1636  -20.4327   23.3413 H   0  0  0  0  0  0
  -30.6377  -22.3639   21.4454 H   0  0  0  0  0  0
  -29.9842  -22.6781   23.0318 H   0  0  0  0  0  0
  -27.5987  -24.5182   22.1675 H   0  0  0  0  0  0
  -29.3233  -24.6750   22.1466 H   0  0  0  0  0  0
  -27.4996  -24.7154   19.6852 H   0  0  0  0  0  0
  -27.7605  -22.4285   22.0265 H   0  0  0  0  0  0
  -28.4352  -22.4791   20.5593 H   0  0  0  0  0  0
  1 25  1  0  0  0
  1 30  2  0  0  0
  1 71  1  0  0  0
  2  3  1  0  0  0
  2 25  1  0  0  0
  2 90  1  0  0  0
  2 91  1  0  0  0
  3  4  1  0  0  0
  3 92  1  0  0  0
  3 93  1  0  0  0
  4  5  1  0  0  0
  4 94  1  0  0  0
  4 95  1  0  0  0
  5  6  1  0  0  0
  5 26  1  0  0  0
  5 96  1  0  0  0
  6 25  1  0  0  0
  6 97  1  0  0  0
  6 98  1  0  0  0
  7  8  2  0  0  0
  7 26  1  0  0  0
  7 29  1  0  0  0
  8  9  1  0  0  0
  8 22  1  0  0  0
  9 10  1  0  0  0
  9 27  2  0  0  0
 10 11  2  0  0  0
 10 15  1  0  0  0
 11 12  1  0  0  0
 11 99  1  0  0  0
 12 13  2  0  0  0
 12100  1  0  0  0
 13 14  1  0  0  0
 13 31  1  0  0  0
 14 15  2  0  0  0
 14101  1  0  0  0
 15102  1  0  0  0
 16 17  2  0  0  0
 16 21  1  0  0  0
 16 31  1  0  0  0
 17 18  1  0  0  0
 17103  1  0  0  0
 18 19  2  0  0  0
 18104  1  0  0  0
 19 20  1  0  0  0
 19 24  1  0  0  0
 20 21  2  0  0  0
 20105  1  0  0  0
 21 23  1  0  0  0
 22 28  1  0  0  0
 22 32  2  0  0  0
 26 27  1  0  0  0
 28106  1  0  0  0
 28107  1  0  0  0
 29108  1  0  0  0
 29109  1  0  0  0
 33 34  1  0  0  0
 33 66  1  0  0  0
 33 70  2  0  0  0
 34 36  1  0  0  0
 34 59  1  0  0  0
 34110  1  0  0  0
 35 44  2  0  0  0
 35 45  1  0  0  0
 35 68  1  0  0  0
 36 56  1  0  0  0
 36111  1  0  0  0
 37 39  1  0  0  0
 37 47  1  0  0  0
 37 66  1  0  0  0
 37112  1  0  0  0
 38 43  2  0  0  0
 38 46  1  0  0  0
 38 47  1  0  0  0
 39 64  1  0  0  0
 39 67  2  0  0  0
 40 52  1  0  0  0
 40 53  2  0  0  0
 40 58  1  0  0  0
 41113  1  0  0  0
 41114  1  0  0  0
 41115  1  0  0  0
 41 48  1  0  0  0
 42 43  1  0  0  0
 42 66  1  0  0  0
 42116  1  0  0  0
 42117  1  0  0  0
 43 44  1  0  0  0
 44118  1  0  0  0
 45 46  2  0  0  0
 45119  1  0  0  0
 46120  1  0  0  0
 47121  1  0  0  0
 47122  1  0  0  0
 48 56  1  0  0  0
 48 65  1  0  0  0
 48123  1  0  0  0
 49 50  1  0  0  0
 49 53  1  0  0  0
 49 64  1  0  0  0
 49124  1  0  0  0
 50 51  1  0  0  0
 50125  1  0  0  0
 50126  1  0  0  0
 51 52  1  0  0  0
 51127  1  0  0  0
 51128  1  0  0  0
 52129  1  0  0  0
 52130  1  0  0  0
 53 54  1  0  0  0
 54 55  2  0  0  0
 54131  1  0  0  0
 55 57  1  0  0  0
 55132  1  0  0  0
 56 69  2  0  0  0
 57 58  2  0  0  0
 57133  1  0  0  0
 58134  1  0  0  0
 59 60  1  0  0  0
 59 61  1  0  0  0
 59 62  1  0  0  0
 60135  1  0  0  0
 60136  1  0  0  0
 60137  1  0  0  0
 61138  1  0  0  0
 61139  1  0  0  0
 61140  1  0  0  0
 62141  1  0  0  0
 62142  1  0  0  0
 62143  1  0  0  0
 63 65  1  0  0  0
 63144  1  0  0  0
 63145  1  0  0  0
 63146  1  0  0  0
 64147  1  0  0  0
 65148  1  0  0  0
 68 88  1  0  0  0
 71 72  1  0  0  0
 71 74  2  0  0  0
 72 73  2  0  0  0
 72 77  1  0  0  0
 73 75  1  0  0  0
 73 78  1  0  0  0
 74 76  1  0  0  0
 74 80  1  0  0  0
 75 76  2  0  0  0
 75 81  1  0  0  0
 76 82  1  0  0  0
 77 79  1  0  0  0
 77149  1  0  0  0
 77150  1  0  0  0
 78 79  1  0  0  0
 78151  1  0  0  0
 78152  1  0  0  0
 79 83  1  0  0  0
 79 85  1  0  0  0
 80153  1  0  0  0
 80154  1  0  0  0
 80155  1  0  0  0
 81156  1  0  0  0
 81157  1  0  0  0
 81158  1  0  0  0
 82159  1  0  0  0
 82160  1  0  0  0
 82161  1  0  0  0
 83162  1  0  0  0
 83163  1  0  0  0
 83164  1  0  0  0
 84165  1  0  0  0
 84166  1  0  0  0
 84167  1  0  0  0
 84 88  1  0  0  0
 85 86  1  0  0  0
 85168  1  0  0  0
 85169  1  0  0  0
 86 89  1  0  0  0
 86170  1  0  0  0
 86171  1  0  0  0
 87 88  1  0  0  0
 87 89  1  0  0  0
 87172  1  0  0  0
 87173  1  0  0  0
 88174  1  0  0  0
 89175  1  0  0  0
 89176  1  0  0  0
M  CHG  1  89   1
M  ISO  4   1 100  68 101  71 100  88 101
M  END
> <chiral flag>
0

> <version>
0

> <s_m_source_file>
/data/baiqing/PycharmProjects/Reinvent-master-3.2/result/LINK_invent/BTK/process_docking_weight1_custom_sum_contain_oxygen_bond_distance_aromatic_linkinvent_7_9_3/rearranged_h_0161.sdf

> <i_m_source_file_index>
83

> <r_mmod_Potential_Energy-OPLS-2005>
329.215209960938

> <r_mmod_Stretch_Energy-OPLS-2005>
86.8696212768555

> <r_mmod_Bend_Energy-OPLS-2005>
225.580810546875

> <r_mmod_Torsional_Energy-OPLS-2005>
396.422882080078

> <r_mmod_Improper_Torsional_Energy-OPLS-2005>
25.268913269043

> <r_mmod_Van_der_Waal_Energy-OPLS-2005>
150.728546142578

> <r_mmod_Electrostatic_Energy-OPLS-2005>
-223.43864440918

> <r_mmod_Solvation_Energy-OPLS-2005>
-414.759765625

> <b_mmod_Minimization_Converged-OPLS-2005>
0

> <r_mmod_RMS_Derivative-OPLS-2005>
13.1842193603516

$$$$
83
                    3D
 Structure written by MMmdl.
175184  0  0  1  0            999 V2000
  -30.6684  -14.5705   20.5569 C   0  0  0  0  0  0
  -30.4300  -12.3625   19.4460 C   0  0  0  0  0  0
  -29.5016  -12.5111   18.2208 C   0  0  0  0  0  0
  -28.0224  -12.3612   18.6288 C   0  0  0  0  0  0
  -27.6564  -13.2131   19.8733 C   0  0  2  0  0  0
  -28.6988  -13.0263   20.9969 C   0  0  0  0  0  0
  -25.2572  -13.8170   20.5708 C   0  0  0  0  0  0
  -24.1834  -13.0442   20.9185 C   0  0  0  0  0  0
  -24.6391  -11.6908   20.8744 C   0  0  0  0  0  0
  -23.9058  -10.4295   21.0404 C   0  0  0  0  0  0
  -24.3607   -9.4210   21.9184 C   0  0  0  0  0  0
  -23.6281   -8.2245   22.0752 C   0  0  0  0  0  0
  -22.4266   -8.0282   21.3539 C   0  0  0  0  0  0
  -21.9903   -9.0252   20.4637 C   0  0  0  0  0  0
  -22.7231  -10.2136   20.3047 C   0  0  0  0  0  0
  -21.6855   -6.0739   22.5271 C   0  0  0  0  0  0
  -21.4012   -6.5640   23.8208 C   0  0  0  0  0  0
  -21.3657   -5.6792   24.9169 C   0  0  0  0  0  0
  -21.6051   -4.3054   24.7220 C   0  0  0  0  0  0
  -21.8822   -3.8147   23.4336 C   0  0  0  0  0  0
  -21.9193   -4.6966   22.3394 C   0  0  0  0  0  0
  -22.7856  -13.5235   21.1844 C   0  0  0  0  0  0
  -22.1662   -4.2154   21.0971 F   0  0  0  0  0  0
  -21.5628   -3.4534   25.7732 F   0  0  0  0  0  0
  -30.0181  -13.3698   20.4432 N   0  0  0  0  0  0
  -26.3002  -12.9347   20.3365 N   0  0  0  0  0  0
  -25.9322  -11.6505   20.5787 N   0  0  0  0  0  0
  -22.0507  -12.8217   22.0393 N   0  0  0  0  0  0
  -25.4309  -15.1892   20.4124 N   0  0  0  0  0  0
  -31.7984  -14.7321   20.0857 O   0  0  0  0  0  0
  -21.6633   -6.8878   21.4233 O   0  0  0  0  0  0
  -22.3540  -14.5551   20.6705 O   0  0  0  0  0  0
  -24.6207  -31.8628   23.2097 C   0  0  0  0  0  0
  -25.9082  -32.4789   23.8407 C   0  0  1  0  0  0
  -27.2265  -27.3694   20.1214 C   0  0  0  0  0  0
  -25.5927  -33.8591   24.2332 N   0  0  0  0  0  0
  -23.4138  -30.4860   21.5491 C   0  0  2  0  0  0
  -24.8639  -28.9458   20.1125 C   0  0  0  0  0  0
  -22.7456  -29.4633   22.4969 C   0  0  0  0  0  0
  -18.0284  -28.1391   22.8484 C   0  0  0  0  0  0
  -24.1479  -36.7285   23.2649 C   0  0  0  0  0  0
  -25.9494  -30.8038   21.3800 C   0  0  0  0  0  0
  -26.0247  -29.4330   20.7289 C   0  0  0  0  0  0
  -27.2097  -28.6491   20.7386 C   0  0  0  0  0  0
  -26.0668  -26.9348   19.4530 C   0  0  0  0  0  0
  -24.8819  -27.6954   19.4708 C   0  0  0  0  0  0
  -23.6282  -29.8200   20.1637 C   0  0  0  0  0  0
  -25.4101  -36.3077   24.0342 C   0  0  1  0  0  0
  -20.5881  -28.3686   23.1293 C   0  0  2  0  0  0
  -20.6782  -26.9415   22.5407 C   0  0  0  0  0  0
  -19.5752  -26.6385   21.5214 C   0  0  0  0  0  0
  -18.1927  -26.7938   22.1613 C   0  0  0  0  0  0
  -19.1536  -28.8861   23.2875 C   0  0  0  0  0  0
  -18.9458  -30.1467   23.8887 C   0  0  0  0  0  0
  -17.6455  -30.6589   24.0572 C   0  0  0  0  0  0
  -25.9031  -34.9448   23.5124 C   0  0  0  0  0  0
  -16.5348  -29.9083   23.6347 C   0  0  0  0  0  0
  -16.7268  -28.6504   23.0360 C   0  0  0  0  0  0
  -26.4509  -31.6587   25.0754 C   0  0  0  0  0  0
  -25.3767  -31.3664   26.1487 C   0  0  0  0  0  0
  -27.0406  -30.3038   24.6183 C   0  0  0  0  0  0
  -27.6060  -32.4346   25.7517 C   0  0  0  0  0  0
  -27.5572  -37.1789   24.8475 C   0  0  0  0  0  0
  -21.4176  -29.3033   22.3693 N   0  0  0  0  0  0
  -26.4286  -37.3764   23.9410 N   0  0  0  0  0  0
  -24.6793  -31.0663   22.1038 N   0  0  0  0  0  0
  -23.4189  -28.8177   23.3040 O   0  0  0  0  0  0
  -28.3466  -26.5531   20.0942 O   0  0  0  0  0  0
  -26.5581  -34.8905   22.4678 O   0  0  0  0  0  0
  -23.5379  -32.1434   23.7432 O   0  0  0  0  0  0
  -26.1565  -22.4487   20.7622 C   0  0  0  0  0  0
  -28.8793  -23.0008   20.6596 C   0  0  0  0  0  0
  -27.0492  -21.4036   20.4586 C   0  0  0  0  0  0
  -26.5982  -23.7574   21.0383 C   0  0  0  0  0  0
  -28.4486  -21.6416   20.4883 C   0  0  0  0  0  0
  -27.9726  -24.0899   20.8936 C   0  0  0  0  0  0
  -29.5433  -15.9428   22.2940 C   0  0  0  0  0  0
  -29.9128  -16.9807   20.2257 C   0  0  0  0  0  0
  -30.0977  -17.3430   22.6304 C   0  0  1  0  0  0
  -30.1313  -18.1128   21.2826 C   0  0  2  0  0  0
  -26.4489  -20.0439   20.1272 C   0  0  0  0  0  0
  -25.5426  -24.7273   21.5484 C   0  0  0  0  0  0
  -29.2885  -17.0815   25.0536 C   0  0  0  0  0  0
  -30.2009  -19.2904   24.2977 C   0  0  0  0  0  0
  -29.4647  -20.4619   20.3245 C   0  0  0  0  0  0
  -28.5013  -25.5426   21.1377 C   0  0  0  0  0  0
  -29.4263  -18.0344   23.8511 C   0  0  0  0  0  0
  -29.9081  -15.6572   20.9084 N   0  0  0  0  0  0
  -29.1815  -19.2846   21.2136 N   0  3  0  0  0  0
  -31.4726  -12.4752   19.1436 H   0  0  0  0  0  0
  -30.3517  -11.3606   19.8715 H   0  0  0  0  0  0
  -29.7570  -11.7715   17.4609 H   0  0  0  0  0  0
  -29.6567  -13.4884   17.7614 H   0  0  0  0  0  0
  -27.8400  -11.3063   18.8365 H   0  0  0  0  0  0
  -27.3727  -12.6214   17.7932 H   0  0  0  0  0  0
  -27.6896  -14.2567   19.5615 H   0  0  0  0  0  0
  -28.7003  -11.9927   21.3464 H   0  0  0  0  0  0
  -28.4385  -13.6235   21.8681 H   0  0  0  0  0  0
  -25.2749   -9.5699   22.4762 H   0  0  0  0  0  0
  -23.9997   -7.4642   22.7473 H   0  0  0  0  0  0
  -21.0838   -8.8763   19.8934 H   0  0  0  0  0  0
  -22.3677  -10.9673   19.6154 H   0  0  0  0  0  0
  -21.1999   -7.6148   23.9710 H   0  0  0  0  0  0
  -21.1477   -6.0519   25.9076 H   0  0  0  0  0  0
  -22.0604   -2.7606   23.2836 H   0  0  0  0  0  0
  -22.4117  -11.9861   22.4755 H   0  0  0  0  0  0
  -21.1130  -13.1244   22.2622 H   0  0  0  0  0  0
  -24.6653  -15.8469   20.5131 H   0  0  0  0  0  0
  -26.2862  -15.6204   20.0875 H   0  0  0  0  0  0
  -26.7153  -32.5484   23.1161 H   0  0  0  0  0  0
  -25.0152  -33.9745   25.0530 H   0  0  0  0  0  0
  -22.7039  -31.3036   21.4084 H   0  0  0  0  0  0
  -23.3739  -35.9620   23.3318 H   0  0  0  0  0  0
  -24.3576  -36.8898   22.2063 H   0  0  0  0  0  0
  -23.7228  -37.6484   23.6673 H   0  0  0  0  0  0
  -26.0773  -31.5658   20.6100 H   0  0  0  0  0  0
  -26.8311  -30.8536   22.0074 H   0  0  0  0  0  0
  -28.1014  -29.0139   21.2293 H   0  0  0  0  0  0
  -26.0738  -25.9814   18.9434 H   0  0  0  0  0  0
  -23.9948  -27.3197   18.9792 H   0  0  0  0  0  0
  -23.7428  -30.5967   19.4065 H   0  0  0  0  0  0
  -22.7495  -29.2450   19.8660 H   0  0  0  0  0  0
  -25.1273  -36.1941   25.0834 H   0  0  0  0  0  0
  -20.9960  -28.3271   24.1419 H   0  0  0  0  0  0
  -20.5715  -26.2286   23.3591 H   0  0  0  0  0  0
  -21.6651  -26.7474   22.1191 H   0  0  0  0  0  0
  -19.6911  -25.6296   21.1249 H   0  0  0  0  0  0
  -19.6699  -27.3193   20.6743 H   0  0  0  0  0  0
  -17.4203  -26.6707   21.4008 H   0  0  0  0  0  0
  -18.0304  -26.0085   22.9006 H   0  0  0  0  0  0
  -19.7934  -30.7293   24.2243 H   0  0  0  0  0  0
  -17.5014  -31.6272   24.5175 H   0  0  0  0  0  0
  -15.5348  -30.2977   23.7696 H   0  0  0  0  0  0
  -15.8666  -28.0824   22.7078 H   0  0  0  0  0  0
  -24.5944  -30.7010   25.7807 H   0  0  0  0  0  0
  -24.8952  -32.2806   26.4974 H   0  0  0  0  0  0
  -25.8129  -30.8802   27.0226 H   0  0  0  0  0  0
  -26.2979  -29.6689   24.1333 H   0  0  0  0  0  0
  -27.4282  -29.7371   25.4660 H   0  0  0  0  0  0
  -27.8761  -30.4358   23.9303 H   0  0  0  0  0  0
  -27.2670  -33.3655   26.2072 H   0  0  0  0  0  0
  -28.3881  -32.6896   25.0353 H   0  0  0  0  0  0
  -28.0728  -31.8501   26.5451 H   0  0  0  0  0  0
  -28.2588  -38.0091   24.7536 H   0  0  0  0  0  0
  -28.1073  -36.2619   24.6299 H   0  0  0  0  0  0
  -27.2285  -37.1429   25.8879 H   0  0  0  0  0  0
  -20.9350  -29.8730   21.6887 H   0  0  0  0  0  0
  -26.0169  -38.2838   24.1425 H   0  0  0  0  0  0
  -25.0972  -22.2354   20.8157 H   0  0  0  0  0  0
  -29.9386  -23.2151   20.6372 H   0  0  0  0  0  0
  -28.4543  -15.9355   22.3674 H   0  0  0  0  0  0
  -29.9242  -15.1895   22.9874 H   0  0  0  0  0  0
  -30.6823  -17.0280   19.4527 H   0  0  0  0  0  0
  -28.9566  -17.1021   19.7152 H   0  0  0  0  0  0
  -31.1410  -17.1733   22.9046 H   0  0  0  0  0  0
  -31.1403  -18.5158   21.1693 H   0  0  0  0  0  0
  -25.4235  -20.1563   19.7716 H   0  0  0  0  0  0
  -26.4125  -19.4003   21.0067 H   0  0  0  0  0  0
  -26.9998  -19.5418   19.3312 H   0  0  0  0  0  0
  -25.0220  -24.2868   22.3994 H   0  0  0  0  0  0
  -24.7946  -24.9182   20.7787 H   0  0  0  0  0  0
  -25.9417  -25.6795   21.8904 H   0  0  0  0  0  0
  -28.6240  -16.2447   24.8349 H   0  0  0  0  0  0
  -28.8675  -17.5959   25.9183 H   0  0  0  0  0  0
  -30.2537  -16.6710   25.3526 H   0  0  0  0  0  0
  -30.3127  -20.0308   23.5070 H   0  0  0  0  0  0
  -31.2044  -19.0322   24.6405 H   0  0  0  0  0  0
  -29.6953  -19.7864   25.1272 H   0  0  0  0  0  0
  -30.4700  -20.8276   20.5402 H   0  0  0  0  0  0
  -29.4720  -20.1383   19.2826 H   0  0  0  0  0  0
  -29.5752  -25.4616   21.3083 H   0  0  0  0  0  0
  -28.1116  -25.9192   22.0832 H   0  0  0  0  0  0
  -28.4121  -18.3305   23.5799 H   0  0  0  0  0  0
  -29.1640  -19.6684   22.1456 H   0  0  0  0  0  0
  -28.2522  -18.9537   21.0180 H   0  0  0  0  0  0
  1 25  1  0  0  0
  1 30  2  0  0  0
  1 88  1  0  0  0
  2  3  1  0  0  0
  2 25  1  0  0  0
  2 90  1  0  0  0
  2 91  1  0  0  0
  3  4  1  0  0  0
  3 92  1  0  0  0
  3 93  1  0  0  0
  4  5  1  0  0  0
  4 94  1  0  0  0
  4 95  1  0  0  0
  5  6  1  0  0  0
  5 26  1  0  0  0
  5 96  1  0  0  0
  6 25  1  0  0  0
  6 97  1  0  0  0
  6 98  1  0  0  0
  7  8  2  0  0  0
  7 26  1  0  0  0
  7 29  1  0  0  0
  8  9  1  0  0  0
  8 22  1  0  0  0
  9 10  1  0  0  0
  9 27  2  0  0  0
 10 11  2  0  0  0
 10 15  1  0  0  0
 11 12  1  0  0  0
 11 99  1  0  0  0
 12 13  2  0  0  0
 12100  1  0  0  0
 13 14  1  0  0  0
 13 31  1  0  0  0
 14 15  2  0  0  0
 14101  1  0  0  0
 15102  1  0  0  0
 16 17  2  0  0  0
 16 21  1  0  0  0
 16 31  1  0  0  0
 17 18  1  0  0  0
 17103  1  0  0  0
 18 19  2  0  0  0
 18104  1  0  0  0
 19 20  1  0  0  0
 19 24  1  0  0  0
 20 21  2  0  0  0
 20105  1  0  0  0
 21 23  1  0  0  0
 22 28  1  0  0  0
 22 32  2  0  0  0
 26 27  1  0  0  0
 28106  1  0  0  0
 28107  1  0  0  0
 29108  1  0  0  0
 29109  1  0  0  0
 33 34  1  0  0  0
 33 66  1  0  0  0
 33 70  2  0  0  0
 34 36  1  0  0  0
 34 59  1  0  0  0
 34110  1  0  0  0
 35 44  2  0  0  0
 35 45  1  0  0  0
 35 68  1  0  0  0
 36 56  1  0  0  0
 36111  1  0  0  0
 37 39  1  0  0  0
 37 47  1  0  0  0
 37 66  1  0  0  0
 37112  1  0  0  0
 38 43  2  0  0  0
 38 46  1  0  0  0
 38 47  1  0  0  0
 39 64  1  0  0  0
 39 67  2  0  0  0
 40 52  1  0  0  0
 40 53  2  0  0  0
 40 58  1  0  0  0
 41113  1  0  0  0
 41114  1  0  0  0
 41115  1  0  0  0
 41 48  1  0  0  0
 42 43  1  0  0  0
 42 66  1  0  0  0
 42116  1  0  0  0
 42117  1  0  0  0
 43 44  1  0  0  0
 44118  1  0  0  0
 45 46  2  0  0  0
 45119  1  0  0  0
 46120  1  0  0  0
 47121  1  0  0  0
 47122  1  0  0  0
 48 56  1  0  0  0
 48 65  1  0  0  0
 48123  1  0  0  0
 49 50  1  0  0  0
 49 53  1  0  0  0
 49 64  1  0  0  0
 49124  1  0  0  0
 50 51  1  0  0  0
 50125  1  0  0  0
 50126  1  0  0  0
 51 52  1  0  0  0
 51127  1  0  0  0
 51128  1  0  0  0
 52129  1  0  0  0
 52130  1  0  0  0
 53 54  1  0  0  0
 54 55  2  0  0  0
 54131  1  0  0  0
 55 57  1  0  0  0
 55132  1  0  0  0
 56 69  2  0  0  0
 57 58  2  0  0  0
 57133  1  0  0  0
 58134  1  0  0  0
 59 60  1  0  0  0
 59 61  1  0  0  0
 59 62  1  0  0  0
 60135  1  0  0  0
 60136  1  0  0  0
 60137  1  0  0  0
 61138  1  0  0  0
 61139  1  0  0  0
 61140  1  0  0  0
 62141  1  0  0  0
 62142  1  0  0  0
 62143  1  0  0  0
 63 65  1  0  0  0
 63144  1  0  0  0
 63145  1  0  0  0
 63146  1  0  0  0
 64147  1  0  0  0
 65148  1  0  0  0
 68 86  1  0  0  0
 71 73  2  0  0  0
 71 74  1  0  0  0
 71149  1  0  0  0
 72 75  2  0  0  0
 72 76  1  0  0  0
 72150  1  0  0  0
 73 75  1  0  0  0
 73 81  1  0  0  0
 74 76  2  0  0  0
 74 82  1  0  0  0
 75 85  1  0  0  0
 76 86  1  0  0  0
 77 88  1  0  0  0
 77151  1  0  0  0
 77152  1  0  0  0
 77 79  1  0  0  0
 78 80  1  0  0  0
 78 88  1  0  0  0
 78153  1  0  0  0
 78154  1  0  0  0
 79 80  1  0  0  0
 79 87  1  0  0  0
 79155  1  0  0  0
 80 89  1  0  0  0
 80156  1  0  0  0
 81157  1  0  0  0
 81158  1  0  0  0
 81159  1  0  0  0
 82160  1  0  0  0
 82161  1  0  0  0
 82162  1  0  0  0
 83163  1  0  0  0
 83164  1  0  0  0
 83165  1  0  0  0
 83 87  1  0  0  0
 84 87  1  0  0  0
 84166  1  0  0  0
 84167  1  0  0  0
 84168  1  0  0  0
 85 89  1  0  0  0
 85169  1  0  0  0
 85170  1  0  0  0
 86171  1  0  0  0
 86172  1  0  0  0
 87173  1  0  0  0
 89174  1  0  0  0
 89175  1  0  0  0
M  CHG  1  89   1
M  ISO  4   1 100  68 101  86 101  88 100
M  END
> <chiral flag>
0

> <version>
0

> <s_m_source_file>
/data/baiqing/PycharmProjects/Reinvent-master-3.2/result/LINK_invent/BTK/process_docking_weight1_custom_sum_contain_oxygen_bond_distance_aromatic_linkinvent_7_9_3/rearranged_h_0161.sdf

> <i_m_source_file_index>
84

> <r_mmod_Potential_Energy-OPLS-2005>
120.64786529541

> <r_mmod_Stretch_Energy-OPLS-2005>
64.3988647460938

> <r_mmod_Bend_Energy-OPLS-2005>
152.070266723633

> <r_mmod_Torsional_Energy-OPLS-2005>
413.380432128906

> <r_mmod_Improper_Torsional_Energy-OPLS-2005>
11.2270107269287

> <r_mmod_Van_der_Waal_Energy-OPLS-2005>
136.316436767578

> <r_mmod_Electrostatic_Energy-OPLS-2005>
-254.088516235352

> <r_mmod_Solvation_Energy-OPLS-2005>
-430.378387451172

> <b_mmod_Minimization_Converged-OPLS-2005>
0

> <r_mmod_RMS_Derivative-OPLS-2005>
1.42632782459259

$$$$
84
                    3D
 Structure written by MMmdl.
178188  0  0  1  0            999 V2000
  -30.7374  -14.3974   20.6265 C   0  0  0  0  0  0
  -30.4155  -12.2760   19.4147 C   0  0  0  0  0  0
  -29.4895  -12.5100   18.2046 C   0  0  0  0  0  0
  -28.0099  -12.3820   18.6164 C   0  0  0  0  0  0
  -27.6649  -13.2063   19.8847 C   0  0  2  0  0  0
  -28.7016  -12.9553   21.0015 C   0  0  0  0  0  0
  -25.2578  -13.8168   20.5656 C   0  0  0  0  0  0
  -24.1832  -13.0446   20.9181 C   0  0  0  0  0  0
  -24.6398  -11.6917   20.8742 C   0  0  0  0  0  0
  -23.9071  -10.4308   21.0393 C   0  0  0  0  0  0
  -24.3624   -9.4233   21.9170 C   0  0  0  0  0  0
  -23.6308   -8.2262   22.0730 C   0  0  0  0  0  0
  -22.4287   -8.0299   21.3536 C   0  0  0  0  0  0
  -21.9926   -9.0275   20.4629 C   0  0  0  0  0  0
  -22.7250  -10.2156   20.3034 C   0  0  0  0  0  0
  -21.6871   -6.0756   22.5282 C   0  0  0  0  0  0
  -21.4031   -6.5654   23.8221 C   0  0  0  0  0  0
  -21.3649   -5.6796   24.9174 C   0  0  0  0  0  0
  -21.6042   -4.3061   24.7214 C   0  0  0  0  0  0
  -21.8829   -3.8161   23.4331 C   0  0  0  0  0  0
  -21.9199   -4.6986   22.3395 C   0  0  0  0  0  0
  -22.7848  -13.5243   21.1845 C   0  0  0  0  0  0
  -22.1650   -4.2171   21.0969 F   0  0  0  0  0  0
  -21.5618   -3.4537   25.7720 F   0  0  0  0  0  0
  -30.0411  -13.2426   20.4575 N   0  0  0  0  0  0
  -26.3032  -12.9347   20.3400 N   0  0  0  0  0  0
  -25.9329  -11.6503   20.5802 N   0  0  0  0  0  0
  -22.0484  -12.8207   22.0390 N   0  0  0  0  0  0
  -25.4282  -15.1873   20.3969 N   0  0  0  0  0  0
  -31.8266  -14.6117   20.0801 O   0  0  0  0  0  0
  -21.6653   -6.8893   21.4240 O   0  0  0  0  0  0
  -22.3524  -14.5562   20.6734 O   0  0  0  0  0  0
  -24.6080  -31.8709   23.2126 C   0  0  0  0  0  0
  -25.8997  -32.4837   23.8409 C   0  0  1  0  0  0
  -27.2467  -27.4835   20.0978 C   0  0  0  0  0  0
  -25.5877  -33.8634   24.2346 N   0  0  0  0  0  0
  -23.3942  -30.4913   21.5517 C   0  0  2  0  0  0
  -24.8449  -28.9602   20.1169 C   0  0  0  0  0  0
  -22.7374  -29.4663   22.5019 C   0  0  0  0  0  0
  -18.0262  -28.1370   22.8496 C   0  0  0  0  0  0
  -24.1483  -36.7326   23.2638 C   0  0  0  0  0  0
  -25.9152  -30.8531   21.3567 C   0  0  0  0  0  0
  -25.9968  -29.4881   20.7127 C   0  0  0  0  0  0
  -27.1999  -28.7574   20.7041 C   0  0  0  0  0  0
  -26.0866  -26.9628   19.4913 C   0  0  0  0  0  0
  -24.8815  -27.6935   19.5042 C   0  0  0  0  0  0
  -23.6011  -29.8176   20.1669 C   0  0  0  0  0  0
  -25.4103  -36.3122   24.0340 C   0  0  1  0  0  0
  -20.5849  -28.3646   23.1344 C   0  0  2  0  0  0
  -20.6755  -26.9390   22.5426 C   0  0  0  0  0  0
  -19.5736  -26.6384   21.5215 C   0  0  0  0  0  0
  -18.1912  -26.7919   22.1622 C   0  0  0  0  0  0
  -19.1511  -28.8825   23.2917 C   0  0  0  0  0  0
  -18.9442  -30.1436   23.8920 C   0  0  0  0  0  0
  -17.6446  -30.6582   24.0568 C   0  0  0  0  0  0
  -25.9024  -34.9486   23.5139 C   0  0  0  0  0  0
  -16.5336  -29.9086   23.6328 C   0  0  0  0  0  0
  -16.7252  -28.6503   23.0346 C   0  0  0  0  0  0
  -26.4457  -31.6596   25.0709 C   0  0  0  0  0  0
  -25.3746  -31.3685   26.1476 C   0  0  0  0  0  0
  -27.0281  -30.3047   24.6038 C   0  0  0  0  0  0
  -27.6045  -32.4306   25.7465 C   0  0  0  0  0  0
  -27.5582  -37.1813   24.8464 C   0  0  0  0  0  0
  -21.4110  -29.3014   22.3755 N   0  0  0  0  0  0
  -26.4294  -37.3801   23.9409 N   0  0  0  0  0  0
  -24.6570  -31.0853   22.0999 N   0  0  0  0  0  0
  -23.4165  -28.8215   23.3056 O   0  0  0  0  0  0
  -28.4041  -26.7475   20.0461 O   0  0  0  0  0  0
  -26.5587  -34.8931   22.4701 O   0  0  0  0  0  0
  -23.5289  -32.1436   23.7558 O   0  0  0  0  0  0
  -28.9396  -22.2453   22.4775 C   0  0  0  0  0  0
  -29.8020  -22.7215   21.4647 C   0  0  0  0  0  0
  -29.0218  -20.9299   22.9704 C   0  0  0  0  0  0
  -30.7640  -21.8236   20.9239 C   0  0  0  0  0  0
  -30.9044  -20.5157   21.4650 C   0  0  0  0  0  0
  -29.9975  -20.0426   22.4518 C   0  0  0  0  0  0
  -30.9719  -25.0100   21.0439 C   0  0  0  0  0  0
  -30.5512  -26.4844   21.1159 C   0  0  0  0  0  0
  -29.1369  -16.4563   23.2902 C   0  0  0  0  0  0
  -28.8387  -17.5573   21.0599 C   0  0  0  0  0  0
  -28.6787  -25.0722   21.7266 C   0  0  0  0  0  0
  -30.2614  -15.5883   22.6824 C   0  0  0  0  0  0
  -29.9711  -16.6709   20.5102 C   0  0  0  0  0  0
  -29.6756  -24.1780   20.9688 C   0  0  2  0  0  0
  -28.9770  -17.8108   22.5726 C   0  0  0  0  0  0
  -29.0316  -26.4981   21.3037 C   0  0  2  0  0  0
  -28.0677  -20.5383   24.0898 C   0  0  0  0  0  0
  -31.6450  -22.2418   19.7485 C   0  0  0  0  0  0
  -32.0455  -19.6271   20.9702 C   0  0  0  0  0  0
  -30.0678  -15.3985   21.2372 N   0  0  0  0  0  0
  -30.0885  -18.7107   22.8962 N   0  0  0  0  0  0
  -31.4604  -12.3656   19.1120 H   0  0  0  0  0  0
  -30.3049  -11.2582   19.7932 H   0  0  0  0  0  0
  -29.7183  -11.7985   17.4099 H   0  0  0  0  0  0
  -29.6723  -13.5032   17.7915 H   0  0  0  0  0  0
  -27.8042  -11.3255   18.7946 H   0  0  0  0  0  0
  -27.3612  -12.6811   17.7930 H   0  0  0  0  0  0
  -27.7227  -14.2611   19.6140 H   0  0  0  0  0  0
  -28.6597  -11.9168   21.3316 H   0  0  0  0  0  0
  -28.4628  -13.5485   21.8847 H   0  0  0  0  0  0
  -25.2755   -9.5750   22.4755 H   0  0  0  0  0  0
  -24.0039   -7.4661   22.7427 H   0  0  0  0  0  0
  -21.0868   -8.8803   19.8918 H   0  0  0  0  0  0
  -22.3707  -10.9702   19.6153 H   0  0  0  0  0  0
  -21.2035   -7.6160   23.9738 H   0  0  0  0  0  0
  -21.1448   -6.0507   25.9080 H   0  0  0  0  0  0
  -22.0622   -2.7627   23.2816 H   0  0  0  0  0  0
  -22.4096  -11.9863   22.4762 H   0  0  0  0  0  0
  -21.1108  -13.1239   22.2593 H   0  0  0  0  0  0
  -24.6681  -15.8482   20.5122 H   0  0  0  0  0  0
  -26.2804  -15.6165   20.0588 H   0  0  0  0  0  0
  -26.7074  -32.5583   23.1190 H   0  0  0  0  0  0
  -25.0035  -33.9806   25.0494 H   0  0  0  0  0  0
  -22.6800  -31.3055   21.4115 H   0  0  0  0  0  0
  -23.3740  -35.9666   23.3313 H   0  0  0  0  0  0
  -24.3581  -36.8925   22.2050 H   0  0  0  0  0  0
  -23.7243  -37.6538   23.6642 H   0  0  0  0  0  0
  -26.0136  -31.6176   20.5849 H   0  0  0  0  0  0
  -26.8074  -30.9151   21.9673 H   0  0  0  0  0  0
  -28.0916  -29.1790   21.1466 H   0  0  0  0  0  0
  -26.1196  -25.9927   19.0157 H   0  0  0  0  0  0
  -23.9978  -27.2808   19.0380 H   0  0  0  0  0  0
  -23.6991  -30.5891   19.4020 H   0  0  0  0  0  0
  -22.7291  -29.2276   19.8787 H   0  0  0  0  0  0
  -25.1280  -36.1994   25.0834 H   0  0  0  0  0  0
  -20.9936  -28.3203   24.1466 H   0  0  0  0  0  0
  -20.5662  -26.2251   23.3602 H   0  0  0  0  0  0
  -21.6628  -26.7442   22.1217 H   0  0  0  0  0  0
  -19.6899  -25.6301   21.1230 H   0  0  0  0  0  0
  -19.6685  -27.3214   20.6760 H   0  0  0  0  0  0
  -17.4186  -26.6677   21.4016 H   0  0  0  0  0  0
  -18.0307  -26.0052   22.9011 H   0  0  0  0  0  0
  -19.7920  -30.7246   24.2298 H   0  0  0  0  0  0
  -17.5003  -31.6264   24.5161 H   0  0  0  0  0  0
  -15.5340  -30.2995   23.7637 H   0  0  0  0  0  0
  -15.8653  -28.0832   22.7045 H   0  0  0  0  0  0
  -24.5908  -30.7043   25.7819 H   0  0  0  0  0  0
  -24.8952  -32.2836   26.4962 H   0  0  0  0  0  0
  -25.8119  -30.8830   27.0206 H   0  0  0  0  0  0
  -26.2803  -29.6812   24.1122 H   0  0  0  0  0  0
  -27.4108  -29.7278   25.4465 H   0  0  0  0  0  0
  -27.8612  -30.4389   23.9131 H   0  0  0  0  0  0
  -27.2669  -33.3589   26.2088 H   0  0  0  0  0  0
  -28.3827  -32.6892   25.0271 H   0  0  0  0  0  0
  -28.0739  -31.8399   26.5340 H   0  0  0  0  0  0
  -28.2607  -38.0104   24.7511 H   0  0  0  0  0  0
  -28.1071  -36.2638   24.6288 H   0  0  0  0  0  0
  -27.2304  -37.1463   25.8869 H   0  0  0  0  0  0
  -20.9262  -29.8727   21.6978 H   0  0  0  0  0  0
  -26.0189  -38.2881   24.1411 H   0  0  0  0  0  0
  -28.1824  -22.8861   22.9016 H   0  0  0  0  0  0
  -31.5235  -24.7538   21.9487 H   0  0  0  0  0  0
  -31.6408  -24.8490   20.2008 H   0  0  0  0  0  0
  -30.8421  -27.0305   20.2179 H   0  0  0  0  0  0
  -31.0476  -26.9683   21.9579 H   0  0  0  0  0  0
  -29.3040  -16.6045   24.3584 H   0  0  0  0  0  0
  -28.1963  -15.9084   23.2090 H   0  0  0  0  0  0
  -27.8857  -17.0601   20.8737 H   0  0  0  0  0  0
  -28.7880  -18.4953   20.5058 H   0  0  0  0  0  0
  -28.8448  -24.9987   22.8024 H   0  0  0  0  0  0
  -27.6363  -24.8162   21.5321 H   0  0  0  0  0  0
  -30.2875  -14.6218   23.1917 H   0  0  0  0  0  0
  -31.2346  -16.0507   22.8569 H   0  0  0  0  0  0
  -30.9293  -17.1817   20.5683 H   0  0  0  0  0  0
  -29.7879  -16.4861   19.4492 H   0  0  0  0  0  0
  -29.3449  -24.1421   19.9295 H   0  0  0  0  0  0
  -28.0482  -18.2590   22.9205 H   0  0  0  0  0  0
  -28.7479  -27.2098   22.0801 H   0  0  0  0  0  0
  -27.8354  -21.3973   24.7198 H   0  0  0  0  0  0
  -28.4939  -19.7718   24.7371 H   0  0  0  0  0  0
  -27.1309  -20.1652   23.6766 H   0  0  0  0  0  0
  -31.1398  -22.9485   19.0930 H   0  0  0  0  0  0
  -31.9034  -21.4014   19.1059 H   0  0  0  0  0  0
  -32.5717  -22.6900   20.1071 H   0  0  0  0  0  0
  -32.9630  -20.2036   20.8533 H   0  0  0  0  0  0
  -31.7960  -19.1904   20.0039 H   0  0  0  0  0  0
  -32.2950  -18.8237   21.6597 H   0  0  0  0  0  0
  -30.9778  -18.2878   22.6653 H   0  0  0  0  0  0
  1 25  1  0  0  0
  1 30  2  0  0  0
  1 90  1  0  0  0
  2  3  1  0  0  0
  2 25  1  0  0  0
  2 92  1  0  0  0
  2 93  1  0  0  0
  3  4  1  0  0  0
  3 94  1  0  0  0
  3 95  1  0  0  0
  4  5  1  0  0  0
  4 96  1  0  0  0
  4 97  1  0  0  0
  5  6  1  0  0  0
  5 26  1  0  0  0
  5 98  1  0  0  0
  6 25  1  0  0  0
  6 99  1  0  0  0
  6100  1  0  0  0
  7  8  2  0  0  0
  7 26  1  0  0  0
  7 29  1  0  0  0
  8  9  1  0  0  0
  8 22  1  0  0  0
  9 10  1  0  0  0
  9 27  2  0  0  0
 10 11  2  0  0  0
 10 15  1  0  0  0
 11 12  1  0  0  0
 11101  1  0  0  0
 12 13  2  0  0  0
 12102  1  0  0  0
 13 14  1  0  0  0
 13 31  1  0  0  0
 14 15  2  0  0  0
 14103  1  0  0  0
 15104  1  0  0  0
 16 17  2  0  0  0
 16 21  1  0  0  0
 16 31  1  0  0  0
 17 18  1  0  0  0
 17105  1  0  0  0
 18 19  2  0  0  0
 18106  1  0  0  0
 19 20  1  0  0  0
 19 24  1  0  0  0
 20 21  2  0  0  0
 20107  1  0  0  0
 21 23  1  0  0  0
 22 28  1  0  0  0
 22 32  2  0  0  0
 26 27  1  0  0  0
 28108  1  0  0  0
 28109  1  0  0  0
 29110  1  0  0  0
 29111  1  0  0  0
 33 34  1  0  0  0
 33 66  1  0  0  0
 33 70  2  0  0  0
 34 36  1  0  0  0
 34 59  1  0  0  0
 34112  1  0  0  0
 35 44  2  0  0  0
 35 45  1  0  0  0
 35 68  1  0  0  0
 36 56  1  0  0  0
 36113  1  0  0  0
 37 39  1  0  0  0
 37 47  1  0  0  0
 37 66  1  0  0  0
 37114  1  0  0  0
 38 43  2  0  0  0
 38 46  1  0  0  0
 38 47  1  0  0  0
 39 64  1  0  0  0
 39 67  2  0  0  0
 40 52  1  0  0  0
 40 53  2  0  0  0
 40 58  1  0  0  0
 41115  1  0  0  0
 41116  1  0  0  0
 41117  1  0  0  0
 41 48  1  0  0  0
 42 43  1  0  0  0
 42 66  1  0  0  0
 42118  1  0  0  0
 42119  1  0  0  0
 43 44  1  0  0  0
 44120  1  0  0  0
 45 46  2  0  0  0
 45121  1  0  0  0
 46122  1  0  0  0
 47123  1  0  0  0
 47124  1  0  0  0
 48 56  1  0  0  0
 48 65  1  0  0  0
 48125  1  0  0  0
 49 50  1  0  0  0
 49 53  1  0  0  0
 49 64  1  0  0  0
 49126  1  0  0  0
 50 51  1  0  0  0
 50127  1  0  0  0
 50128  1  0  0  0
 51 52  1  0  0  0
 51129  1  0  0  0
 51130  1  0  0  0
 52131  1  0  0  0
 52132  1  0  0  0
 53 54  1  0  0  0
 54 55  2  0  0  0
 54133  1  0  0  0
 55 57  1  0  0  0
 55134  1  0  0  0
 56 69  2  0  0  0
 57 58  2  0  0  0
 57135  1  0  0  0
 58136  1  0  0  0
 59 60  1  0  0  0
 59 61  1  0  0  0
 59 62  1  0  0  0
 60137  1  0  0  0
 60138  1  0  0  0
 60139  1  0  0  0
 61140  1  0  0  0
 61141  1  0  0  0
 61142  1  0  0  0
 62143  1  0  0  0
 62144  1  0  0  0
 62145  1  0  0  0
 63 65  1  0  0  0
 63146  1  0  0  0
 63147  1  0  0  0
 63148  1  0  0  0
 64149  1  0  0  0
 65150  1  0  0  0
 68 86  1  0  0  0
 71 72  2  0  0  0
 71 73  1  0  0  0
 71151  1  0  0  0
 72 74  1  0  0  0
 72 84  1  0  0  0
 73 76  2  0  0  0
 73 87  1  0  0  0
 74 75  2  0  0  0
 74 88  1  0  0  0
 75 76  1  0  0  0
 75 89  1  0  0  0
 76 91  1  0  0  0
 77 78  1  0  0  0
 77 84  1  0  0  0
 77152  1  0  0  0
 77153  1  0  0  0
 78 86  1  0  0  0
 78154  1  0  0  0
 78155  1  0  0  0
 79 82  1  0  0  0
 79 85  1  0  0  0
 79156  1  0  0  0
 79157  1  0  0  0
 80 83  1  0  0  0
 80 85  1  0  0  0
 80158  1  0  0  0
 80159  1  0  0  0
 81 84  1  0  0  0
 81 86  1  0  0  0
 81160  1  0  0  0
 81161  1  0  0  0
 82 90  1  0  0  0
 82162  1  0  0  0
 82163  1  0  0  0
 83 90  1  0  0  0
 83164  1  0  0  0
 83165  1  0  0  0
 84166  1  0  0  0
 85 91  1  0  0  0
 85167  1  0  0  0
 86168  1  0  0  0
 87169  1  0  0  0
 87170  1  0  0  0
 87171  1  0  0  0
 88172  1  0  0  0
 88173  1  0  0  0
 88174  1  0  0  0
 89175  1  0  0  0
 89176  1  0  0  0
 89177  1  0  0  0
 91178  1  0  0  0
M  ISO  4   1 100  68 101  86 101  90 100
M  END
> <chiral flag>
0

> <version>
0

> <s_m_source_file>
/data/baiqing/PycharmProjects/Reinvent-master-3.2/result/LINK_invent/BTK/process_docking_weight1_custom_sum_contain_oxygen_bond_distance_aromatic_linkinvent_7_9_3/rearranged_h_0161.sdf

> <i_m_source_file_index>
85

> <r_mmod_Potential_Energy-OPLS-2005>
169.90852355957

> <r_mmod_Stretch_Energy-OPLS-2005>
38.8672676086426

> <r_mmod_Bend_Energy-OPLS-2005>
125.529029846191

> <r_mmod_Torsional_Energy-OPLS-2005>
403.383117675781

> <r_mmod_Improper_Torsional_Energy-OPLS-2005>
13.4587430953979

> <r_mmod_Van_der_Waal_Energy-OPLS-2005>
171.474624633789

> <r_mmod_Electrostatic_Energy-OPLS-2005>
-404.290466308594

> <r_mmod_Solvation_Energy-OPLS-2005>
-185.157272338867

> <b_mmod_Minimization_Converged-OPLS-2005>
0

> <r_mmod_RMS_Derivative-OPLS-2005>
1.63831257820129

$$$$
85
                    3D
 Structure written by MMmdl.
166175  0  0  1  0            999 V2000
  -30.6781  -14.7134   20.4683 C   0  0  0  0  0  0
  -30.4207  -12.4421   19.4720 C   0  0  0  0  0  0
  -29.5034  -12.5005   18.2335 C   0  0  0  0  0  0
  -28.0307  -12.3331   18.6506 C   0  0  0  0  0  0
  -27.6394  -13.2388   19.8486 C   0  0  2  0  0  0
  -28.6885  -13.1997   20.9818 C   0  0  0  0  0  0
  -25.2509  -13.8218   20.5735 C   0  0  0  0  0  0
  -24.1794  -13.0453   20.9212 C   0  0  0  0  0  0
  -24.6393  -11.6934   20.8738 C   0  0  0  0  0  0
  -23.9077  -10.4304   21.0396 C   0  0  0  0  0  0
  -24.3620   -9.4223   21.9181 C   0  0  0  0  0  0
  -23.6293   -8.2255   22.0754 C   0  0  0  0  0  0
  -22.4275   -8.0286   21.3548 C   0  0  0  0  0  0
  -21.9917   -9.0258   20.4644 C   0  0  0  0  0  0
  -22.7243  -10.2139   20.3054 C   0  0  0  0  0  0
  -21.6864   -6.0739   22.5273 C   0  0  0  0  0  0
  -21.4018   -6.5645   23.8203 C   0  0  0  0  0  0
  -21.3658   -5.6797   24.9170 C   0  0  0  0  0  0
  -21.6040   -4.3058   24.7224 C   0  0  0  0  0  0
  -21.8823   -3.8152   23.4342 C   0  0  0  0  0  0
  -21.9198   -4.6967   22.3399 C   0  0  0  0  0  0
  -22.7814  -13.5222   21.1863 C   0  0  0  0  0  0
  -22.1667   -4.2153   21.0977 F   0  0  0  0  0  0
  -21.5624   -3.4541   25.7736 F   0  0  0  0  0  0
  -29.9899  -13.5233   20.3881 N   0  0  0  0  0  0
  -26.2940  -12.9439   20.3324 N   0  0  0  0  0  0
  -25.9337  -11.6571   20.5772 N   0  0  0  0  0  0
  -22.0467  -12.8206   22.0411 N   0  0  0  0  0  0
  -25.4224  -15.1945   20.4191 N   0  0  0  0  0  0
  -31.8763  -14.7383   20.1723 O   0  0  0  0  0  0
  -21.6645   -6.8881   21.4234 O   0  0  0  0  0  0
  -22.3507  -14.5534   20.6714 O   0  0  0  0  0  0
  -24.6350  -31.8575   23.2036 C   0  0  0  0  0  0
  -25.9181  -32.4768   23.8357 C   0  0  1  0  0  0
  -27.1984  -27.2587   20.1181 C   0  0  0  0  0  0
  -25.5971  -33.8573   24.2274 N   0  0  0  0  0  0
  -23.4282  -30.4892   21.5478 C   0  0  2  0  0  0
  -24.8701  -28.9518   20.1076 C   0  0  0  0  0  0
  -22.7527  -29.4630   22.4901 C   0  0  0  0  0  0
  -18.0301  -28.1386   22.8484 C   0  0  0  0  0  0
  -24.1484  -36.7282   23.2631 C   0  0  0  0  0  0
  -25.9806  -30.7674   21.3892 C   0  0  0  0  0  0
  -26.0474  -29.3966   20.7232 C   0  0  0  0  0  0
  -27.2168  -28.5637   20.7200 C   0  0  0  0  0  0
  -25.9975  -26.9095   19.4492 C   0  0  0  0  0  0
  -24.8519  -27.7161   19.4587 C   0  0  0  0  0  0
  -23.6447  -29.8399   20.1593 C   0  0  0  0  0  0
  -25.4113  -36.3072   24.0321 C   0  0  1  0  0  0
  -20.5911  -28.3704   23.1253 C   0  0  2  0  0  0
  -20.6781  -26.9413   22.5405 C   0  0  0  0  0  0
  -19.5744  -26.6377   21.5217 C   0  0  0  0  0  0
  -18.1927  -26.7928   22.1623 C   0  0  0  0  0  0
  -19.1560  -28.8865   23.2856 C   0  0  0  0  0  0
  -18.9474  -30.1460   23.8874 C   0  0  0  0  0  0
  -17.6470  -30.6580   24.0568 C   0  0  0  0  0  0
  -25.9063  -34.9447   23.5094 C   0  0  0  0  0  0
  -16.5361  -29.9081   23.6336 C   0  0  0  0  0  0
  -16.7287  -28.6504   23.0351 C   0  0  0  0  0  0
  -26.4518  -31.6587   25.0751 C   0  0  0  0  0  0
  -25.3720  -31.3749   26.1461 C   0  0  0  0  0  0
  -27.0385  -30.3001   24.6260 C   0  0  0  0  0  0
  -27.6059  -32.4346   25.7522 C   0  0  0  0  0  0
  -27.5572  -37.1794   24.8461 C   0  0  0  0  0  0
  -21.4234  -29.3051   22.3646 N   0  0  0  0  0  0
  -26.4281  -37.3781   23.9413 N   0  0  0  0  0  0
  -24.7005  -31.0562   22.1013 N   0  0  0  0  0  0
  -23.4235  -28.8146   23.2974 O   0  0  0  0  0  0
  -28.2471  -26.3032   20.2027 O   0  0  0  0  0  0
  -26.5610  -34.8915   22.4646 O   0  0  0  0  0  0
  -23.5506  -32.1395   23.7345 O   0  0  0  0  0  0
  -28.9822  -21.3397   21.5408 C   0  0  0  0  0  0
  -29.4842  -20.6717   20.3906 C   0  0  0  0  0  0
  -28.5940  -22.7209   21.5534 C   0  0  0  0  0  0
  -29.6584  -21.5273   19.2492 C   0  0  0  0  0  0
  -29.2520  -22.9160   19.2467 C   0  0  0  0  0  0
  -28.6556  -23.5444   20.3850 C   0  0  0  0  0  0
  -29.9586  -18.3489   21.7536 C   0  0  0  0  0  0
  -29.0497  -18.1377   19.5451 C   0  0  0  0  0  0
  -30.5685  -16.8873   21.6537 C   0  0  0  0  0  0
  -29.6548  -16.6817   19.4063 C   0  0  0  0  0  0
  -29.8984  -19.1182   20.4039 C   0  0  0  0  0  0
  -28.0619  -23.2807   22.8631 C   0  0  0  0  0  0
  -30.2748  -20.9668   17.9689 C   0  0  0  0  0  0
  -29.4129  -23.7321   17.9642 C   0  0  0  0  0  0
  -27.7774  -24.8732   20.2535 C   0  0  0  0  0  0
  -30.0054  -15.9242   20.6496 N   0  0  0  0  0  0
  -31.4640  -12.5391   19.1667 H   0  0  0  0  0  0
  -30.3458  -11.4725   19.9656 H   0  0  0  0  0  0
  -29.7812  -11.7230   17.5209 H   0  0  0  0  0  0
  -29.6354  -13.4526   17.7172 H   0  0  0  0  0  0
  -27.8833  -11.2852   18.9151 H   0  0  0  0  0  0
  -27.3741  -12.5263   17.8011 H   0  0  0  0  0  0
  -27.6246  -14.2555   19.4586 H   0  0  0  0  0  0
  -28.7184  -12.2195   21.4580 H   0  0  0  0  0  0
  -28.4335  -13.9187   21.7616 H   0  0  0  0  0  0
  -25.2766   -9.5706   22.4758 H   0  0  0  0  0  0
  -24.0005   -7.4660   22.7475 H   0  0  0  0  0  0
  -21.0859   -8.8775   19.8950 H   0  0  0  0  0  0
  -22.3698  -10.9677   19.6160 H   0  0  0  0  0  0
  -21.2009   -7.6152   23.9713 H   0  0  0  0  0  0
  -21.1472   -6.0526   25.9073 H   0  0  0  0  0  0
  -22.0601   -2.7614   23.2842 H   0  0  0  0  0  0
  -22.4087  -11.9858   22.4773 H   0  0  0  0  0  0
  -21.1082  -13.1223   22.2614 H   0  0  0  0  0  0
  -24.6608  -15.8535   20.5401 H   0  0  0  0  0  0
  -26.2891  -15.6363   20.1408 H   0  0  0  0  0  0
  -26.7250  -32.5393   23.1093 H   0  0  0  0  0  0
  -25.0173  -33.9702   25.0457 H   0  0  0  0  0  0
  -22.7239  -31.3129   21.4130 H   0  0  0  0  0  0
  -23.3745  -35.9614   23.3301 H   0  0  0  0  0  0
  -24.3560  -36.8909   22.2042 H   0  0  0  0  0  0
  -23.7250  -37.6486   23.6664 H   0  0  0  0  0  0
  -26.1324  -31.5291   20.6235 H   0  0  0  0  0  0
  -26.8542  -30.8040   22.0277 H   0  0  0  0  0  0
  -28.1108  -28.8928   21.2294 H   0  0  0  0  0  0
  -25.8741  -25.9884   18.9072 H   0  0  0  0  0  0
  -23.9557  -27.3738   18.9586 H   0  0  0  0  0  0
  -23.7746  -30.6235   19.4127 H   0  0  0  0  0  0
  -22.7608  -29.2803   19.8461 H   0  0  0  0  0  0
  -25.1299  -36.1906   25.0816 H   0  0  0  0  0  0
  -20.9993  -28.3275   24.1374 H   0  0  0  0  0  0
  -20.5680  -26.2303   23.3611 H   0  0  0  0  0  0
  -21.6644  -26.7429   22.1183 H   0  0  0  0  0  0
  -19.6893  -25.6288   21.1238 H   0  0  0  0  0  0
  -19.6675  -27.3193   20.6754 H   0  0  0  0  0  0
  -17.4198  -26.6697   21.4018 H   0  0  0  0  0  0
  -18.0299  -26.0068   22.9015 H   0  0  0  0  0  0
  -19.7954  -30.7288   24.2206 H   0  0  0  0  0  0
  -17.5032  -31.6248   24.5181 H   0  0  0  0  0  0
  -15.5359  -30.2974   23.7672 H   0  0  0  0  0  0
  -15.8689  -28.0824   22.7059 H   0  0  0  0  0  0
  -24.5918  -30.7078   25.7787 H   0  0  0  0  0  0
  -24.8875  -32.2919   26.4825 H   0  0  0  0  0  0
  -25.8007  -30.8974   27.0280 H   0  0  0  0  0  0
  -26.2997  -29.6723   24.1265 H   0  0  0  0  0  0
  -27.4047  -29.7288   25.4794 H   0  0  0  0  0  0
  -27.8883  -30.4266   23.9549 H   0  0  0  0  0  0
  -27.2670  -33.3681   26.2022 H   0  0  0  0  0  0
  -28.3889  -32.6848   25.0357 H   0  0  0  0  0  0
  -28.0696  -31.8520   26.5485 H   0  0  0  0  0  0
  -28.2596  -38.0086   24.7523 H   0  0  0  0  0  0
  -28.1064  -36.2618   24.6285 H   0  0  0  0  0  0
  -27.2279  -37.1453   25.8860 H   0  0  0  0  0  0
  -20.9412  -29.8827   21.6905 H   0  0  0  0  0  0
  -26.0149  -38.2850   24.1429 H   0  0  0  0  0  0
  -28.8696  -20.7716   22.4526 H   0  0  0  0  0  0
  -30.5592  -18.9194   22.4632 H   0  0  0  0  0  0
  -28.9597  -18.2945   22.1893 H   0  0  0  0  0  0
  -28.0421  -18.0745   19.9598 H   0  0  0  0  0  0
  -28.9165  -18.5460   18.5432 H   0  0  0  0  0  0
  -30.5088  -16.4174   22.6374 H   0  0  0  0  0  0
  -31.6363  -16.9995   21.4526 H   0  0  0  0  0  0
  -30.5574  -16.7570   18.7955 H   0  0  0  0  0  0
  -28.9626  -16.0762   18.8206 H   0  0  0  0  0  0
  -30.9205  -19.1004   20.0250 H   0  0  0  0  0  0
  -28.5924  -22.8385   23.7079 H   0  0  0  0  0  0
  -27.0000  -23.0625   22.9756 H   0  0  0  0  0  0
  -28.2022  -24.3602   22.9312 H   0  0  0  0  0  0
  -30.6650  -19.9578   18.0600 H   0  0  0  0  0  0
  -31.1179  -21.5772   17.6464 H   0  0  0  0  0  0
  -29.5367  -20.9568   17.1667 H   0  0  0  0  0  0
  -29.1841  -24.7890   18.0931 H   0  0  0  0  0  0
  -28.7610  -23.3459   17.1799 H   0  0  0  0  0  0
  -30.4413  -23.6977   17.6067 H   0  0  0  0  0  0
  -26.9854  -24.8210   21.0015 H   0  0  0  0  0  0
  -27.2734  -24.6537   19.3171 H   0  0  0  0  0  0
  1 25  1  0  0  0
  1 30  2  0  0  0
  1 86  1  0  0  0
  2  3  1  0  0  0
  2 25  1  0  0  0
  2 87  1  0  0  0
  2 88  1  0  0  0
  3  4  1  0  0  0
  3 89  1  0  0  0
  3 90  1  0  0  0
  4  5  1  0  0  0
  4 91  1  0  0  0
  4 92  1  0  0  0
  5  6  1  0  0  0
  5 26  1  0  0  0
  5 93  1  0  0  0
  6 25  1  0  0  0
  6 94  1  0  0  0
  6 95  1  0  0  0
  7  8  2  0  0  0
  7 26  1  0  0  0
  7 29  1  0  0  0
  8  9  1  0  0  0
  8 22  1  0  0  0
  9 10  1  0  0  0
  9 27  2  0  0  0
 10 11  2  0  0  0
 10 15  1  0  0  0
 11 12  1  0  0  0
 11 96  1  0  0  0
 12 13  2  0  0  0
 12 97  1  0  0  0
 13 14  1  0  0  0
 13 31  1  0  0  0
 14 15  2  0  0  0
 14 98  1  0  0  0
 15 99  1  0  0  0
 16 17  2  0  0  0
 16 21  1  0  0  0
 16 31  1  0  0  0
 17 18  1  0  0  0
 17100  1  0  0  0
 18 19  2  0  0  0
 18101  1  0  0  0
 19 20  1  0  0  0
 19 24  1  0  0  0
 20 21  2  0  0  0
 20102  1  0  0  0
 21 23  1  0  0  0
 22 28  1  0  0  0
 22 32  2  0  0  0
 26 27  1  0  0  0
 28103  1  0  0  0
 28104  1  0  0  0
 29105  1  0  0  0
 29106  1  0  0  0
 33 34  1  0  0  0
 33 66  1  0  0  0
 33 70  2  0  0  0
 34 36  1  0  0  0
 34 59  1  0  0  0
 34107  1  0  0  0
 35 44  2  0  0  0
 35 45  1  0  0  0
 35 68  1  0  0  0
 36 56  1  0  0  0
 36108  1  0  0  0
 37 39  1  0  0  0
 37 47  1  0  0  0
 37 66  1  0  0  0
 37109  1  0  0  0
 38 43  2  0  0  0
 38 46  1  0  0  0
 38 47  1  0  0  0
 39 64  1  0  0  0
 39 67  2  0  0  0
 40 52  1  0  0  0
 40 53  2  0  0  0
 40 58  1  0  0  0
 41110  1  0  0  0
 41111  1  0  0  0
 41112  1  0  0  0
 41 48  1  0  0  0
 42 43  1  0  0  0
 42 66  1  0  0  0
 42113  1  0  0  0
 42114  1  0  0  0
 43 44  1  0  0  0
 44115  1  0  0  0
 45 46  2  0  0  0
 45116  1  0  0  0
 46117  1  0  0  0
 47118  1  0  0  0
 47119  1  0  0  0
 48 56  1  0  0  0
 48 65  1  0  0  0
 48120  1  0  0  0
 49 50  1  0  0  0
 49 53  1  0  0  0
 49 64  1  0  0  0
 49121  1  0  0  0
 50 51  1  0  0  0
 50122  1  0  0  0
 50123  1  0  0  0
 51 52  1  0  0  0
 51124  1  0  0  0
 51125  1  0  0  0
 52126  1  0  0  0
 52127  1  0  0  0
 53 54  1  0  0  0
 54 55  2  0  0  0
 54128  1  0  0  0
 55 57  1  0  0  0
 55129  1  0  0  0
 56 69  2  0  0  0
 57 58  2  0  0  0
 57130  1  0  0  0
 58131  1  0  0  0
 59 60  1  0  0  0
 59 61  1  0  0  0
 59 62  1  0  0  0
 60132  1  0  0  0
 60133  1  0  0  0
 60134  1  0  0  0
 61135  1  0  0  0
 61136  1  0  0  0
 61137  1  0  0  0
 62138  1  0  0  0
 62139  1  0  0  0
 62140  1  0  0  0
 63 65  1  0  0  0
 63141  1  0  0  0
 63142  1  0  0  0
 63143  1  0  0  0
 64144  1  0  0  0
 65145  1  0  0  0
 68 85  1  0  0  0
 71 72  2  0  0  0
 71 73  1  0  0  0
 71146  1  0  0  0
 72 74  1  0  0  0
 72 81  1  0  0  0
 73 76  2  0  0  0
 73 82  1  0  0  0
 74 75  2  0  0  0
 74 83  1  0  0  0
 75 76  1  0  0  0
 75 84  1  0  0  0
 76 85  1  0  0  0
 77 79  1  0  0  0
 77 81  1  0  0  0
 77147  1  0  0  0
 77148  1  0  0  0
 78 80  1  0  0  0
 78 81  1  0  0  0
 78149  1  0  0  0
 78150  1  0  0  0
 79 86  1  0  0  0
 79151  1  0  0  0
 79152  1  0  0  0
 80 86  1  0  0  0
 80153  1  0  0  0
 80154  1  0  0  0
 81155  1  0  0  0
 82156  1  0  0  0
 82157  1  0  0  0
 82158  1  0  0  0
 83159  1  0  0  0
 83160  1  0  0  0
 83161  1  0  0  0
 84162  1  0  0  0
 84163  1  0  0  0
 84164  1  0  0  0
 85165  1  0  0  0
 85166  1  0  0  0
M  ISO  4   1 100  68 101  85 101  86 100
M  END
> <chiral flag>
0

> <version>
0

> <s_m_source_file>
/data/baiqing/PycharmProjects/Reinvent-master-3.2/result/LINK_invent/BTK/process_docking_weight1_custom_sum_contain_oxygen_bond_distance_aromatic_linkinvent_7_9_3/rearranged_h_0161.sdf

> <i_m_source_file_index>
86

> <r_mmod_Potential_Energy-OPLS-2005>
452.232513427734

> <r_mmod_Stretch_Energy-OPLS-2005>
118.215873718262

> <r_mmod_Bend_Energy-OPLS-2005>
195.372787475586

> <r_mmod_Torsional_Energy-OPLS-2005>
351.830718994141

> <r_mmod_Improper_Torsional_Energy-OPLS-2005>
12.7400102615356

> <r_mmod_Van_der_Waal_Energy-OPLS-2005>
164.878662109375

> <r_mmod_Electrostatic_Energy-OPLS-2005>
-292.023406982422

> <r_mmod_Solvation_Energy-OPLS-2005>
-188.90380859375

> <b_mmod_Minimization_Converged-OPLS-2005>
0

> <r_mmod_RMS_Derivative-OPLS-2005>
1.77421891689301

$$$$
86
                    3D
 Structure written by MMmdl.
167176  0  0  1  0            999 V2000
  -30.5939  -14.7390   20.5586 C   0  0  0  0  0  0
  -30.4311  -12.4727   19.4819 C   0  0  0  0  0  0
  -29.5088  -12.5556   18.2453 C   0  0  0  0  0  0
  -28.0303  -12.3740   18.6429 C   0  0  0  0  0  0
  -27.6403  -13.2356   19.8757 C   0  0  2  0  0  0
  -28.6831  -13.0828   21.0061 C   0  0  0  0  0  0
  -25.2429  -13.8193   20.5715 C   0  0  0  0  0  0
  -24.1762  -13.0421   20.9285 C   0  0  0  0  0  0
  -24.6383  -11.6900   20.8784 C   0  0  0  0  0  0
  -23.9067  -10.4280   21.0405 C   0  0  0  0  0  0
  -24.3623   -9.4188   21.9197 C   0  0  0  0  0  0
  -23.6323   -8.2218   22.0737 C   0  0  0  0  0  0
  -22.4300   -8.0272   21.3556 C   0  0  0  0  0  0
  -21.9931   -9.0230   20.4626 C   0  0  0  0  0  0
  -22.7242  -10.2115   20.3047 C   0  0  0  0  0  0
  -21.6866   -6.0730   22.5288 C   0  0  0  0  0  0
  -21.4011   -6.5631   23.8226 C   0  0  0  0  0  0
  -21.3676   -5.6781   24.9190 C   0  0  0  0  0  0
  -21.6046   -4.3037   24.7229 C   0  0  0  0  0  0
  -21.8831   -3.8139   23.4339 C   0  0  0  0  0  0
  -21.9196   -4.6957   22.3401 C   0  0  0  0  0  0
  -22.7763  -13.5178   21.1931 C   0  0  0  0  0  0
  -22.1655   -4.2144   21.0968 F   0  0  0  0  0  0
  -21.5643   -3.4514   25.7735 F   0  0  0  0  0  0
  -29.9728  -13.5056   20.4490 N   0  0  0  0  0  0
  -26.2918  -12.9442   20.3393 N   0  0  0  0  0  0
  -25.9324  -11.6568   20.5850 N   0  0  0  0  0  0
  -22.0415  -12.8141   22.0471 N   0  0  0  0  0  0
  -25.3900  -15.1925   20.3966 N   0  0  0  0  0  0
  -31.7601  -14.8374   20.1546 O   0  0  0  0  0  0
  -21.6658   -6.8879   21.4259 O   0  0  0  0  0  0
  -22.3427  -14.5467   20.6754 O   0  0  0  0  0  0
  -24.6300  -31.8547   23.1915 C   0  0  0  0  0  0
  -25.9123  -32.4751   23.8297 C   0  0  1  0  0  0
  -27.2467  -27.2780   20.1382 C   0  0  0  0  0  0
  -25.5918  -33.8539   24.2213 N   0  0  0  0  0  0
  -23.4265  -30.4702   21.5348 C   0  0  2  0  0  0
  -24.8772  -28.9069   20.1098 C   0  0  0  0  0  0
  -22.7493  -29.4583   22.4885 C   0  0  0  0  0  0
  -18.0281  -28.1435   22.8472 C   0  0  0  0  0  0
  -24.1488  -36.7300   23.2625 C   0  0  0  0  0  0
  -25.9662  -30.7762   21.3588 C   0  0  0  0  0  0
  -26.0421  -29.3945   20.7121 C   0  0  0  0  0  0
  -27.2244  -28.5930   20.7101 C   0  0  0  0  0  0
  -26.0598  -26.8424   19.5111 C   0  0  0  0  0  0
  -24.8916  -27.6416   19.4959 C   0  0  0  0  0  0
  -23.6436  -29.7911   20.1541 C   0  0  0  0  0  0
  -25.4123  -36.3053   24.0292 C   0  0  1  0  0  0
  -20.5893  -28.3733   23.1272 C   0  0  2  0  0  0
  -20.6787  -26.9452   22.5422 C   0  0  0  0  0  0
  -19.5757  -26.6422   21.5228 C   0  0  0  0  0  0
  -18.1930  -26.7982   22.1624 C   0  0  0  0  0  0
  -19.1539  -28.8901   23.2873 C   0  0  0  0  0  0
  -18.9458  -30.1491   23.8916 C   0  0  0  0  0  0
  -17.6447  -30.6614   24.0578 C   0  0  0  0  0  0
  -25.9066  -34.9424   23.5072 C   0  0  0  0  0  0
  -16.5336  -29.9120   23.6324 C   0  0  0  0  0  0
  -16.7256  -28.6538   23.0338 C   0  0  0  0  0  0
  -26.4503  -31.6556   25.0679 C   0  0  0  0  0  0
  -25.3723  -31.3718   26.1386 C   0  0  0  0  0  0
  -27.0328  -30.2973   24.6151 C   0  0  0  0  0  0
  -27.6067  -32.4263   25.7488 C   0  0  0  0  0  0
  -27.5587  -37.1789   24.8439 C   0  0  0  0  0  0
  -21.4203  -29.3048   22.3642 N   0  0  0  0  0  0
  -26.4299  -37.3766   23.9388 N   0  0  0  0  0  0
  -24.6944  -31.0523   22.0863 N   0  0  0  0  0  0
  -23.4194  -28.8166   23.3006 O   0  0  0  0  0  0
  -28.3972  -26.4662   20.2316 O   0  0  0  0  0  0
  -26.5658  -34.8898   22.4648 O   0  0  0  0  0  0
  -23.5462  -32.1355   23.7225 O   0  0  0  0  0  0
  -29.5401  -19.9527   21.0891 C   0  0  0  0  0  0
  -28.7143  -21.0756   20.6349 C   0  0  0  0  0  0
  -30.6604  -20.3112   21.8979 C   0  0  0  0  0  0
  -29.0557  -22.4624   20.9411 C   0  0  0  0  0  0
  -30.9267  -21.6911   22.1355 C   0  0  0  0  0  0
  -28.6003  -17.6517   22.0479 C   0  0  0  0  0  0
  -28.7967  -16.1273   21.7997 C   0  0  0  0  0  0
  -30.2572  -17.3054   20.3608 C   0  0  0  0  0  0
  -29.1898  -18.3934   20.8433 C   0  0  2  0  0  0
  -27.4312  -20.7658   19.8759 C   0  0  0  0  0  0
  -32.0470  -22.1605   23.0588 C   0  0  0  0  0  0
  -32.8740  -19.3154   22.3453 C   0  0  0  0  0  0
  -28.1541  -23.7863   20.7967 C   0  0  0  0  0  0
  -28.5311  -25.0239   19.8282 C   0  0  0  0  0  0
  -30.1730  -22.7032   21.6538 N   0  0  0  0  0  0
  -29.8577  -15.9111   20.7972 N   0  0  0  0  0  0
  -31.4240  -19.3072   22.5225 N   0  0  0  0  0  0
  -31.4700  -12.6142   19.1769 H   0  0  0  0  0  0
  -30.3908  -11.4782   19.9312 H   0  0  0  0  0  0
  -29.7878  -11.8048   17.5066 H   0  0  0  0  0  0
  -29.6407  -13.5280   17.7691 H   0  0  0  0  0  0
  -27.8735  -11.3187   18.8687 H   0  0  0  0  0  0
  -27.3766  -12.6038   17.7985 H   0  0  0  0  0  0
  -27.6508  -14.2751   19.5488 H   0  0  0  0  0  0
  -28.7324  -12.0408   21.3237 H   0  0  0  0  0  0
  -28.4123  -13.6280   21.9043 H   0  0  0  0  0  0
  -25.2762   -9.5683   22.4782 H   0  0  0  0  0  0
  -24.0049   -7.4593   22.7430 H   0  0  0  0  0  0
  -21.0881   -8.8737   19.8898 H   0  0  0  0  0  0
  -22.3716  -10.9665   19.6143 H   0  0  0  0  0  0
  -21.1982   -7.6135   23.9743 H   0  0  0  0  0  0
  -21.1510   -6.0488   25.9100 H   0  0  0  0  0  0
  -22.0597   -2.7594   23.2845 H   0  0  0  0  0  0
  -22.4063  -11.9851   22.4917 H   0  0  0  0  0  0
  -21.0999  -13.1117   22.2648 H   0  0  0  0  0  0
  -24.5933  -15.8133   20.4932 H   0  0  0  0  0  0
  -26.2059  -15.6515   20.0135 H   0  0  0  0  0  0
  -26.7205  -32.5422   23.1050 H   0  0  0  0  0  0
  -24.9937  -33.9673   25.0271 H   0  0  0  0  0  0
  -22.7221  -31.2906   21.3828 H   0  0  0  0  0  0
  -23.3743  -35.9646   23.3264 H   0  0  0  0  0  0
  -24.3575  -36.8983   22.2054 H   0  0  0  0  0  0
  -23.7256  -37.6489   23.6692 H   0  0  0  0  0  0
  -26.0833  -31.5285   20.5770 H   0  0  0  0  0  0
  -26.8516  -30.8469   21.9793 H   0  0  0  0  0  0
  -28.1213  -28.9707   21.1814 H   0  0  0  0  0  0
  -26.0204  -25.8682   19.0459 H   0  0  0  0  0  0
  -23.9989  -27.2644   19.0154 H   0  0  0  0  0  0
  -23.7632  -30.5615   19.3917 H   0  0  0  0  0  0
  -22.7653  -29.2168   19.8571 H   0  0  0  0  0  0
  -25.1326  -36.1904   25.0801 H   0  0  0  0  0  0
  -20.9984  -28.3335   24.1388 H   0  0  0  0  0  0
  -20.5707  -26.2347   23.3631 H   0  0  0  0  0  0
  -21.6655  -26.7494   22.1193 H   0  0  0  0  0  0
  -19.6915  -25.6328   21.1266 H   0  0  0  0  0  0
  -19.6728  -27.3227   20.6761 H   0  0  0  0  0  0
  -17.4221  -26.6698   21.4012 H   0  0  0  0  0  0
  -18.0324  -26.0144   22.9044 H   0  0  0  0  0  0
  -19.7932  -30.7309   24.2306 H   0  0  0  0  0  0
  -17.4989  -31.6289   24.5181 H   0  0  0  0  0  0
  -15.5335  -30.3022   23.7642 H   0  0  0  0  0  0
  -15.8646  -28.0842   22.7064 H   0  0  0  0  0  0
  -24.5874  -30.7120   25.7668 H   0  0  0  0  0  0
  -24.8952  -32.2909   26.4806 H   0  0  0  0  0  0
  -25.8007  -30.8859   27.0159 H   0  0  0  0  0  0
  -26.2896  -29.6724   24.1195 H   0  0  0  0  0  0
  -27.4018  -29.7239   25.4660 H   0  0  0  0  0  0
  -27.8773  -30.4220   23.9369 H   0  0  0  0  0  0
  -27.2682  -33.3530   26.2131 H   0  0  0  0  0  0
  -28.3894  -32.6868   25.0346 H   0  0  0  0  0  0
  -28.0732  -31.8339   26.5372 H   0  0  0  0  0  0
  -28.2564  -38.0117   24.7519 H   0  0  0  0  0  0
  -28.1121  -36.2647   24.6244 H   0  0  0  0  0  0
  -27.2287  -37.1417   25.8831 H   0  0  0  0  0  0
  -20.9391  -29.8721   21.6809 H   0  0  0  0  0  0
  -26.0165  -38.2833   24.1438 H   0  0  0  0  0  0
  -29.1294  -17.9298   22.9595 H   0  0  0  0  0  0
  -27.5533  -17.9178   22.2069 H   0  0  0  0  0  0
  -27.8607  -15.7094   21.4377 H   0  0  0  0  0  0
  -29.0432  -15.6297   22.7391 H   0  0  0  0  0  0
  -31.2481  -17.4977   20.7676 H   0  0  0  0  0  0
  -30.3703  -17.3400   19.2766 H   0  0  0  0  0  0
  -28.4179  -18.3589   20.0739 H   0  0  0  0  0  0
  -27.6666  -20.2519   18.9442 H   0  0  0  0  0  0
  -26.8568  -21.6499   19.6068 H   0  0  0  0  0  0
  -26.7832  -20.1206   20.4718 H   0  0  0  0  0  0
  -32.0504  -21.5855   23.9885 H   0  0  0  0  0  0
  -31.9418  -23.2124   23.3315 H   0  0  0  0  0  0
  -33.0204  -22.0444   22.5776 H   0  0  0  0  0  0
  -33.2351  -18.2948   22.2118 H   0  0  0  0  0  0
  -33.3801  -19.7164   23.2272 H   0  0  0  0  0  0
  -33.1864  -19.8969   21.4756 H   0  0  0  0  0  0
  -28.1353  -24.2087   21.8035 H   0  0  0  0  0  0
  -27.1126  -23.5227   20.6212 H   0  0  0  0  0  0
  -28.0985  -24.8727   18.8412 H   0  0  0  0  0  0
  -29.6029  -24.9229   19.6547 H   0  0  0  0  0  0
  -31.0056  -18.3825   22.4524 H   0  0  0  0  0  0
  1 25  1  0  0  0
  1 30  2  0  0  0
  1 86  1  0  0  0
  2  3  1  0  0  0
  2 25  1  0  0  0
  2 88  1  0  0  0
  2 89  1  0  0  0
  3  4  1  0  0  0
  3 90  1  0  0  0
  3 91  1  0  0  0
  4  5  1  0  0  0
  4 92  1  0  0  0
  4 93  1  0  0  0
  5  6  1  0  0  0
  5 26  1  0  0  0
  5 94  1  0  0  0
  6 25  1  0  0  0
  6 95  1  0  0  0
  6 96  1  0  0  0
  7  8  2  0  0  0
  7 26  1  0  0  0
  7 29  1  0  0  0
  8  9  1  0  0  0
  8 22  1  0  0  0
  9 10  1  0  0  0
  9 27  2  0  0  0
 10 11  2  0  0  0
 10 15  1  0  0  0
 11 12  1  0  0  0
 11 97  1  0  0  0
 12 13  2  0  0  0
 12 98  1  0  0  0
 13 14  1  0  0  0
 13 31  1  0  0  0
 14 15  2  0  0  0
 14 99  1  0  0  0
 15100  1  0  0  0
 16 17  2  0  0  0
 16 21  1  0  0  0
 16 31  1  0  0  0
 17 18  1  0  0  0
 17101  1  0  0  0
 18 19  2  0  0  0
 18102  1  0  0  0
 19 20  1  0  0  0
 19 24  1  0  0  0
 20 21  2  0  0  0
 20103  1  0  0  0
 21 23  1  0  0  0
 22 28  1  0  0  0
 22 32  2  0  0  0
 26 27  1  0  0  0
 28104  1  0  0  0
 28105  1  0  0  0
 29106  1  0  0  0
 29107  1  0  0  0
 33 34  1  0  0  0
 33 66  1  0  0  0
 33 70  2  0  0  0
 34 36  1  0  0  0
 34 59  1  0  0  0
 34108  1  0  0  0
 35 44  2  0  0  0
 35 45  1  0  0  0
 35 68  1  0  0  0
 36 56  1  0  0  0
 36109  1  0  0  0
 37 39  1  0  0  0
 37 47  1  0  0  0
 37 66  1  0  0  0
 37110  1  0  0  0
 38 43  2  0  0  0
 38 46  1  0  0  0
 38 47  1  0  0  0
 39 64  1  0  0  0
 39 67  2  0  0  0
 40 52  1  0  0  0
 40 53  2  0  0  0
 40 58  1  0  0  0
 41111  1  0  0  0
 41112  1  0  0  0
 41113  1  0  0  0
 41 48  1  0  0  0
 42 43  1  0  0  0
 42 66  1  0  0  0
 42114  1  0  0  0
 42115  1  0  0  0
 43 44  1  0  0  0
 44116  1  0  0  0
 45 46  2  0  0  0
 45117  1  0  0  0
 46118  1  0  0  0
 47119  1  0  0  0
 47120  1  0  0  0
 48 56  1  0  0  0
 48 65  1  0  0  0
 48121  1  0  0  0
 49 50  1  0  0  0
 49 53  1  0  0  0
 49 64  1  0  0  0
 49122  1  0  0  0
 50 51  1  0  0  0
 50123  1  0  0  0
 50124  1  0  0  0
 51 52  1  0  0  0
 51125  1  0  0  0
 51126  1  0  0  0
 52127  1  0  0  0
 52128  1  0  0  0
 53 54  1  0  0  0
 54 55  2  0  0  0
 54129  1  0  0  0
 55 57  1  0  0  0
 55130  1  0  0  0
 56 69  2  0  0  0
 57 58  2  0  0  0
 57131  1  0  0  0
 58132  1  0  0  0
 59 60  1  0  0  0
 59 61  1  0  0  0
 59 62  1  0  0  0
 60133  1  0  0  0
 60134  1  0  0  0
 60135  1  0  0  0
 61136  1  0  0  0
 61137  1  0  0  0
 61138  1  0  0  0
 62139  1  0  0  0
 62140  1  0  0  0
 62141  1  0  0  0
 63 65  1  0  0  0
 63142  1  0  0  0
 63143  1  0  0  0
 63144  1  0  0  0
 64145  1  0  0  0
 65146  1  0  0  0
 68 84  1  0  0  0
 71 72  2  0  0  0
 71 73  1  0  0  0
 71 79  1  0  0  0
 72 74  1  0  0  0
 72 80  1  0  0  0
 73 75  2  0  0  0
 73 87  1  0  0  0
 74 83  1  0  0  0
 74 85  2  0  0  0
 75 81  1  0  0  0
 75 85  1  0  0  0
 76 77  1  0  0  0
 76 79  1  0  0  0
 76147  1  0  0  0
 76148  1  0  0  0
 77 86  1  0  0  0
 77149  1  0  0  0
 77150  1  0  0  0
 78 79  1  0  0  0
 78 86  1  0  0  0
 78151  1  0  0  0
 78152  1  0  0  0
 79153  1  0  0  0
 80154  1  0  0  0
 80155  1  0  0  0
 80156  1  0  0  0
 81157  1  0  0  0
 81158  1  0  0  0
 81159  1  0  0  0
 82 87  1  0  0  0
 82160  1  0  0  0
 82161  1  0  0  0
 82162  1  0  0  0
 83 84  1  0  0  0
 83163  1  0  0  0
 83164  1  0  0  0
 84165  1  0  0  0
 84166  1  0  0  0
 87167  1  0  0  0
M  ISO  4   1 100  68 101  84 101  86 100
M  END
> <chiral flag>
0

> <version>
0

> <s_m_source_file>
/data/baiqing/PycharmProjects/Reinvent-master-3.2/result/LINK_invent/BTK/process_docking_weight1_custom_sum_contain_oxygen_bond_distance_aromatic_linkinvent_7_9_3/rearranged_h_0161.sdf

> <i_m_source_file_index>
87

> <r_mmod_Potential_Energy-OPLS-2005>
313.734069824219

> <r_mmod_Stretch_Energy-OPLS-2005>
136.210723876953

> <r_mmod_Bend_Energy-OPLS-2005>
230.997009277344

> <r_mmod_Torsional_Energy-OPLS-2005>
314.215911865234

> <r_mmod_Improper_Torsional_Energy-OPLS-2005>
15.1147546768188

> <r_mmod_Van_der_Waal_Energy-OPLS-2005>
144.663955688477

> <r_mmod_Electrostatic_Energy-OPLS-2005>
-374.457946777344

> <r_mmod_Solvation_Energy-OPLS-2005>
-225.679382324219

> <b_mmod_Minimization_Converged-OPLS-2005>
0

> <r_mmod_RMS_Derivative-OPLS-2005>
4.99780797958374

$$$$
87
                    3D
 Structure written by MMmdl.
163172  0  0  1  0            999 V2000
  -30.6758  -14.6201   20.4957 C   0  0  0  0  0  0
  -30.4235  -12.3845   19.4445 C   0  0  0  0  0  0
  -29.4976  -12.4925   18.2155 C   0  0  0  0  0  0
  -28.0228  -12.3374   18.6349 C   0  0  0  0  0  0
  -27.6474  -13.2226   19.8536 C   0  0  2  0  0  0
  -28.6964  -13.1106   20.9817 C   0  0  0  0  0  0
  -25.2541  -13.8183   20.5707 C   0  0  0  0  0  0
  -24.1818  -13.0442   20.9212 C   0  0  0  0  0  0
  -24.6393  -11.6916   20.8751 C   0  0  0  0  0  0
  -23.9067  -10.4294   21.0405 C   0  0  0  0  0  0
  -24.3616   -9.4209   21.9182 C   0  0  0  0  0  0
  -23.6294   -8.2242   22.0752 C   0  0  0  0  0  0
  -22.4277   -8.0276   21.3543 C   0  0  0  0  0  0
  -21.9915   -9.0250   20.4641 C   0  0  0  0  0  0
  -22.7242  -10.2132   20.3051 C   0  0  0  0  0  0
  -21.6852   -6.0731   22.5277 C   0  0  0  0  0  0
  -21.4012   -6.5635   23.8212 C   0  0  0  0  0  0
  -21.3661   -5.6793   24.9175 C   0  0  0  0  0  0
  -21.6046   -4.3055   24.7227 C   0  0  0  0  0  0
  -21.8818   -3.8145   23.4350 C   0  0  0  0  0  0
  -21.9194   -4.6960   22.3405 C   0  0  0  0  0  0
  -22.7838  -13.5222   21.1866 C   0  0  0  0  0  0
  -22.1661   -4.2142   21.0982 F   0  0  0  0  0  0
  -21.5634   -3.4540   25.7742 F   0  0  0  0  0  0
  -30.0059  -13.4306   20.3981 N   0  0  0  0  0  0
  -26.2966  -12.9378   20.3305 N   0  0  0  0  0  0
  -25.9322  -11.6526   20.5763 N   0  0  0  0  0  0
  -22.0475  -12.8207   22.0410 N   0  0  0  0  0  0
  -25.4253  -15.1907   20.4128 N   0  0  0  0  0  0
  -31.8562  -14.7121   20.1529 O   0  0  0  0  0  0
  -21.6644   -6.8871   21.4239 O   0  0  0  0  0  0
  -22.3520  -14.5529   20.6715 O   0  0  0  0  0  0
  -24.6284  -31.8608   23.2041 C   0  0  0  0  0  0
  -25.9128  -32.4782   23.8372 C   0  0  1  0  0  0
  -27.2159  -27.3174   20.1019 C   0  0  0  0  0  0
  -25.5933  -33.8580   24.2290 N   0  0  0  0  0  0
  -23.4204  -30.4875   21.5494 C   0  0  2  0  0  0
  -24.8617  -28.9475   20.1129 C   0  0  0  0  0  0
  -22.7482  -29.4633   22.4958 C   0  0  0  0  0  0
  -18.0286  -28.1390   22.8495 C   0  0  0  0  0  0
  -24.1485  -36.7290   23.2639 C   0  0  0  0  0  0
  -25.9640  -30.7917   21.3753 C   0  0  0  0  0  0
  -26.0353  -29.4208   20.7130 C   0  0  0  0  0  0
  -27.2162  -28.6187   20.6964 C   0  0  0  0  0  0
  -26.0098  -26.8990   19.4917 C   0  0  0  0  0  0
  -24.8510  -27.6910   19.4961 C   0  0  0  0  0  0
  -23.6316  -29.8274   20.1639 C   0  0  0  0  0  0
  -25.4108  -36.3080   24.0331 C   0  0  1  0  0  0
  -20.5886  -28.3692   23.1282 C   0  0  2  0  0  0
  -20.6765  -26.9416   22.5407 C   0  0  0  0  0  0
  -19.5737  -26.6390   21.5211 C   0  0  0  0  0  0
  -18.1917  -26.7939   22.1625 C   0  0  0  0  0  0
  -19.1540  -28.8862   23.2881 C   0  0  0  0  0  0
  -18.9461  -30.1468   23.8897 C   0  0  0  0  0  0
  -17.6459  -30.6595   24.0563 C   0  0  0  0  0  0
  -25.9055  -34.9451   23.5110 C   0  0  0  0  0  0
  -16.5349  -29.9090   23.6334 C   0  0  0  0  0  0
  -16.7273  -28.6503   23.0369 C   0  0  0  0  0  0
  -26.4514  -31.6592   25.0744 C   0  0  0  0  0  0
  -25.3741  -31.3713   26.1461 C   0  0  0  0  0  0
  -27.0371  -30.3018   24.6210 C   0  0  0  0  0  0
  -27.6083  -32.4334   25.7502 C   0  0  0  0  0  0
  -27.5588  -37.1782   24.8453 C   0  0  0  0  0  0
  -21.4196  -29.3046   22.3683 N   0  0  0  0  0  0
  -26.4279  -37.3780   23.9431 N   0  0  0  0  0  0
  -24.6900  -31.0627   22.0990 N   0  0  0  0  0  0
  -23.4202  -28.8160   23.3031 O   0  0  0  0  0  0
  -28.3374  -26.4686   20.1400 O   0  0  0  0  0  0
  -26.5622  -34.8915   22.4675 O   0  0  0  0  0  0
  -23.5443  -32.1409   23.7364 O   0  0  0  0  0  0
  -30.9038  -19.1492   19.7406 C   0  0  0  0  0  0
  -28.9571  -19.1514   21.1403 C   0  0  0  0  0  0
  -29.5884  -21.2641   19.9603 C   0  0  0  0  0  0
  -30.0800  -18.4407   20.6440 C   0  0  0  0  0  0
  -30.6727  -20.5123   19.3973 C   0  0  0  0  0  0
  -28.7089  -20.5208   20.8085 C   0  0  0  0  0  0
  -28.3427  -23.0462   18.4825 C   0  0  0  0  0  0
  -28.2022  -24.5788   18.4501 C   0  0  0  0  0  0
  -29.3865  -22.7914   19.5714 C   0  0  1  0  0  0
  -29.1298  -23.9578   20.6170 C   0  0  2  0  0  0
  -28.1570  -25.0074   19.9293 C   0  0  1  0  0  0
  -31.6428  -21.1391   18.4045 C   0  0  0  0  0  0
  -30.4470  -24.6007   21.0767 C   0  0  0  0  0  0
  -30.5527  -17.0619   21.2252 C   0  0  0  0  0  0
  -29.9646  -15.7400   20.8302 N   0  0  0  0  0  0
  -27.2931  -21.2553   21.4729 Cl  0  0  0  0  0  0
  -31.4665  -12.4859   19.1401 H   0  0  0  0  0  0
  -30.3421  -11.3989   19.9051 H   0  0  0  0  0  0
  -29.7566  -11.7296   17.4801 H   0  0  0  0  0  0
  -29.6430  -13.4558   17.7238 H   0  0  0  0  0  0
  -27.8628  -11.2870   18.8808 H   0  0  0  0  0  0
  -27.3648  -12.5548   17.7928 H   0  0  0  0  0  0
  -27.6574  -14.2522   19.4953 H   0  0  0  0  0  0
  -28.7089  -12.1028   21.3994 H   0  0  0  0  0  0
  -28.4525  -13.7784   21.8090 H   0  0  0  0  0  0
  -25.2752   -9.5688   22.4767 H   0  0  0  0  0  0
  -24.0002   -7.4631   22.7473 H   0  0  0  0  0  0
  -21.0848   -8.8763   19.8943 H   0  0  0  0  0  0
  -22.3692  -10.9671   19.6165 H   0  0  0  0  0  0
  -21.1998   -7.6144   23.9710 H   0  0  0  0  0  0
  -21.1488   -6.0527   25.9078 H   0  0  0  0  0  0
  -22.0597   -2.7607   23.2858 H   0  0  0  0  0  0
  -22.4093  -11.9867   22.4796 H   0  0  0  0  0  0
  -21.1088  -13.1221   22.2604 H   0  0  0  0  0  0
  -24.6607  -15.8470   20.5267 H   0  0  0  0  0  0
  -26.2739  -15.6289   20.0782 H   0  0  0  0  0  0
  -26.7200  -32.5446   23.1126 H   0  0  0  0  0  0
  -25.0085  -33.9733   25.0438 H   0  0  0  0  0  0
  -22.7148  -31.3087   21.4098 H   0  0  0  0  0  0
  -23.3759  -35.9604   23.3254 H   0  0  0  0  0  0
  -24.3585  -36.8966   22.2064 H   0  0  0  0  0  0
  -23.7216  -37.6466   23.6697 H   0  0  0  0  0  0
  -26.0990  -31.5575   20.6099 H   0  0  0  0  0  0
  -26.8429  -30.8351   22.0069 H   0  0  0  0  0  0
  -28.1176  -28.9781   21.1728 H   0  0  0  0  0  0
  -25.9124  -25.9382   19.0162 H   0  0  0  0  0  0
  -23.9495  -27.3190   19.0289 H   0  0  0  0  0  0
  -23.7472  -30.6046   19.4075 H   0  0  0  0  0  0
  -22.7505  -29.2571   19.8638 H   0  0  0  0  0  0
  -25.1276  -36.1925   25.0819 H   0  0  0  0  0  0
  -20.9986  -28.3262   24.1401 H   0  0  0  0  0  0
  -20.5668  -26.2304   23.3607 H   0  0  0  0  0  0
  -21.6632  -26.7437   22.1203 H   0  0  0  0  0  0
  -19.6889  -25.6298   21.1246 H   0  0  0  0  0  0
  -19.6671  -27.3189   20.6730 H   0  0  0  0  0  0
  -17.4191  -26.6715   21.4021 H   0  0  0  0  0  0
  -18.0296  -26.0073   22.9010 H   0  0  0  0  0  0
  -19.7933  -30.7288   24.2268 H   0  0  0  0  0  0
  -17.5009  -31.6279   24.5153 H   0  0  0  0  0  0
  -15.5350  -30.2993   23.7656 H   0  0  0  0  0  0
  -15.8674  -28.0816   22.7100 H   0  0  0  0  0  0
  -24.5948  -30.7029   25.7779 H   0  0  0  0  0  0
  -24.8888  -32.2861   26.4870 H   0  0  0  0  0  0
  -25.8063  -30.8911   27.0251 H   0  0  0  0  0  0
  -26.2953  -29.6749   24.1249 H   0  0  0  0  0  0
  -27.4081  -29.7294   25.4725 H   0  0  0  0  0  0
  -27.8811  -30.4304   23.9428 H   0  0  0  0  0  0
  -27.2722  -33.3667   26.2034 H   0  0  0  0  0  0
  -28.3903  -32.6851   25.0323 H   0  0  0  0  0  0
  -28.0740  -31.8489   26.5449 H   0  0  0  0  0  0
  -28.2548  -38.0136   24.7584 H   0  0  0  0  0  0
  -28.1142  -36.2673   24.6162 H   0  0  0  0  0  0
  -27.2321  -37.1285   25.8856 H   0  0  0  0  0  0
  -20.9379  -29.8792   21.6913 H   0  0  0  0  0  0
  -26.0152  -38.2843   24.1478 H   0  0  0  0  0  0
  -31.7734  -18.6456   19.3389 H   0  0  0  0  0  0
  -28.2925  -18.6566   21.8342 H   0  0  0  0  0  0
  -28.6417  -22.6349   17.5176 H   0  0  0  0  0  0
  -27.3911  -22.5891   18.7570 H   0  0  0  0  0  0
  -27.3382  -24.8887   17.8664 H   0  0  0  0  0  0
  -29.0803  -25.0162   17.9726 H   0  0  0  0  0  0
  -30.3153  -23.1023   19.1023 H   0  0  0  0  0  0
  -28.6287  -23.5723   21.5032 H   0  0  0  0  0  0
  -27.1761  -24.7318   20.3188 H   0  0  0  0  0  0
  -32.3186  -20.3988   17.9750 H   0  0  0  0  0  0
  -32.2573  -21.8995   18.8882 H   0  0  0  0  0  0
  -31.1044  -21.5971   17.5738 H   0  0  0  0  0  0
  -30.9700  -25.0765   20.2463 H   0  0  0  0  0  0
  -31.1116  -23.8512   21.5083 H   0  0  0  0  0  0
  -30.2664  -25.3606   21.8369 H   0  0  0  0  0  0
  -30.4259  -17.1321   22.3060 H   0  0  0  0  0  0
  -31.6356  -17.0240   21.0943 H   0  0  0  0  0  0
  -28.9809  -15.6106   21.0098 H   0  0  0  0  0  0
  1 25  1  0  0  0
  1 30  2  0  0  0
  1 85  1  0  0  0
  2  3  1  0  0  0
  2 25  1  0  0  0
  2 87  1  0  0  0
  2 88  1  0  0  0
  3  4  1  0  0  0
  3 89  1  0  0  0
  3 90  1  0  0  0
  4  5  1  0  0  0
  4 91  1  0  0  0
  4 92  1  0  0  0
  5  6  1  0  0  0
  5 26  1  0  0  0
  5 93  1  0  0  0
  6 25  1  0  0  0
  6 94  1  0  0  0
  6 95  1  0  0  0
  7  8  2  0  0  0
  7 26  1  0  0  0
  7 29  1  0  0  0
  8  9  1  0  0  0
  8 22  1  0  0  0
  9 10  1  0  0  0
  9 27  2  0  0  0
 10 11  2  0  0  0
 10 15  1  0  0  0
 11 12  1  0  0  0
 11 96  1  0  0  0
 12 13  2  0  0  0
 12 97  1  0  0  0
 13 14  1  0  0  0
 13 31  1  0  0  0
 14 15  2  0  0  0
 14 98  1  0  0  0
 15 99  1  0  0  0
 16 17  2  0  0  0
 16 21  1  0  0  0
 16 31  1  0  0  0
 17 18  1  0  0  0
 17100  1  0  0  0
 18 19  2  0  0  0
 18101  1  0  0  0
 19 20  1  0  0  0
 19 24  1  0  0  0
 20 21  2  0  0  0
 20102  1  0  0  0
 21 23  1  0  0  0
 22 28  1  0  0  0
 22 32  2  0  0  0
 26 27  1  0  0  0
 28103  1  0  0  0
 28104  1  0  0  0
 29105  1  0  0  0
 29106  1  0  0  0
 33 34  1  0  0  0
 33 66  1  0  0  0
 33 70  2  0  0  0
 34 36  1  0  0  0
 34 59  1  0  0  0
 34107  1  0  0  0
 35 44  2  0  0  0
 35 45  1  0  0  0
 35 68  1  0  0  0
 36 56  1  0  0  0
 36108  1  0  0  0
 37 39  1  0  0  0
 37 47  1  0  0  0
 37 66  1  0  0  0
 37109  1  0  0  0
 38 43  2  0  0  0
 38 46  1  0  0  0
 38 47  1  0  0  0
 39 64  1  0  0  0
 39 67  2  0  0  0
 40 52  1  0  0  0
 40 53  2  0  0  0
 40 58  1  0  0  0
 41110  1  0  0  0
 41111  1  0  0  0
 41112  1  0  0  0
 41 48  1  0  0  0
 42 43  1  0  0  0
 42 66  1  0  0  0
 42113  1  0  0  0
 42114  1  0  0  0
 43 44  1  0  0  0
 44115  1  0  0  0
 45 46  2  0  0  0
 45116  1  0  0  0
 46117  1  0  0  0
 47118  1  0  0  0
 47119  1  0  0  0
 48 56  1  0  0  0
 48 65  1  0  0  0
 48120  1  0  0  0
 49 50  1  0  0  0
 49 53  1  0  0  0
 49 64  1  0  0  0
 49121  1  0  0  0
 50 51  1  0  0  0
 50122  1  0  0  0
 50123  1  0  0  0
 51 52  1  0  0  0
 51124  1  0  0  0
 51125  1  0  0  0
 52126  1  0  0  0
 52127  1  0  0  0
 53 54  1  0  0  0
 54 55  2  0  0  0
 54128  1  0  0  0
 55 57  1  0  0  0
 55129  1  0  0  0
 56 69  2  0  0  0
 57 58  2  0  0  0
 57130  1  0  0  0
 58131  1  0  0  0
 59 60  1  0  0  0
 59 61  1  0  0  0
 59 62  1  0  0  0
 60132  1  0  0  0
 60133  1  0  0  0
 60134  1  0  0  0
 61135  1  0  0  0
 61136  1  0  0  0
 61137  1  0  0  0
 62138  1  0  0  0
 62139  1  0  0  0
 62140  1  0  0  0
 63 65  1  0  0  0
 63141  1  0  0  0
 63142  1  0  0  0
 63143  1  0  0  0
 64144  1  0  0  0
 65145  1  0  0  0
 68 81  1  0  0  0
 71 74  2  0  0  0
 71 75  1  0  0  0
 71146  1  0  0  0
 72 74  1  0  0  0
 72 76  2  0  0  0
 72147  1  0  0  0
 73 75  2  0  0  0
 73 76  1  0  0  0
 73 79  1  0  0  0
 74 84  1  0  0  0
 75 82  1  0  0  0
 76 86  1  0  0  0
 77 78  1  0  0  0
 77 79  1  0  0  0
 77148  1  0  0  0
 77149  1  0  0  0
 78 81  1  0  0  0
 78150  1  0  0  0
 78151  1  0  0  0
 79 80  1  0  0  0
 79152  1  0  0  0
 80 81  1  0  0  0
 80 83  1  0  0  0
 80153  1  0  0  0
 81154  1  0  0  0
 82155  1  0  0  0
 82156  1  0  0  0
 82157  1  0  0  0
 83158  1  0  0  0
 83159  1  0  0  0
 83160  1  0  0  0
 84 85  1  0  0  0
 84161  1  0  0  0
 84162  1  0  0  0
 85163  1  0  0  0
M  ISO  4   1 100  68 101  81 101  85 100
M  END
> <chiral flag>
0

> <version>
0

> <s_m_source_file>
/data/baiqing/PycharmProjects/Reinvent-master-3.2/result/LINK_invent/BTK/process_docking_weight1_custom_sum_contain_oxygen_bond_distance_aromatic_linkinvent_7_9_3/rearranged_h_0161.sdf

> <i_m_source_file_index>
88

> <r_mmod_Potential_Energy-OPLS-2005>
111.393424987793

> <r_mmod_Stretch_Energy-OPLS-2005>
80.5729904174805

> <r_mmod_Bend_Energy-OPLS-2005>
181.427429199219

> <r_mmod_Torsional_Energy-OPLS-2005>
258.234985351562

> <r_mmod_Improper_Torsional_Energy-OPLS-2005>
5.06392669677734

> <r_mmod_Van_der_Waal_Energy-OPLS-2005>
148.248596191406

> <r_mmod_Electrostatic_Energy-OPLS-2005>
-410.472839355469

> <r_mmod_Solvation_Energy-OPLS-2005>
-199.579620361328

> <b_mmod_Minimization_Converged-OPLS-2005>
0

> <r_mmod_RMS_Derivative-OPLS-2005>
1.12734913825989

$$$$
88
                    3D
 Structure written by MMmdl.
179189  0  0  1  0            999 V2000
  -30.6018  -14.7022   20.4170 C   0  0  0  0  0  0
  -30.4186  -12.4259   19.4386 C   0  0  0  0  0  0
  -29.4944  -12.5011   18.2035 C   0  0  0  0  0  0
  -28.0177  -12.3327   18.6182 C   0  0  0  0  0  0
  -27.6269  -13.2208   19.8296 C   0  0  2  0  0  0
  -28.6731  -13.1606   20.9586 C   0  0  0  0  0  0
  -25.2453  -13.8178   20.5637 C   0  0  0  0  0  0
  -24.1709  -13.0434   20.9131 C   0  0  0  0  0  0
  -24.6276  -11.6916   20.8633 C   0  0  0  0  0  0
  -23.8973  -10.4299   21.0401 C   0  0  0  0  0  0
  -24.3573   -9.4254   21.9183 C   0  0  0  0  0  0
  -23.6283   -8.2271   22.0737 C   0  0  0  0  0  0
  -22.4265   -8.0274   21.3554 C   0  0  0  0  0  0
  -21.9865   -9.0211   20.4655 C   0  0  0  0  0  0
  -22.7158  -10.2113   20.3067 C   0  0  0  0  0  0
  -21.6870   -6.0739   22.5302 C   0  0  0  0  0  0
  -21.4020   -6.5620   23.8235 C   0  0  0  0  0  0
  -21.3644   -5.6746   24.9179 C   0  0  0  0  0  0
  -21.6055   -4.3020   24.7227 C   0  0  0  0  0  0
  -21.8821   -3.8128   23.4334 C   0  0  0  0  0  0
  -21.9164   -4.6960   22.3401 C   0  0  0  0  0  0
  -22.7765  -13.5310   21.1775 C   0  0  0  0  0  0
  -22.1640   -4.2135   21.0977 F   0  0  0  0  0  0
  -21.5605   -3.4493   25.7735 F   0  0  0  0  0  0
  -29.9741  -13.4855   20.3674 N   0  0  0  0  0  0
  -26.2835  -12.9338   20.3185 N   0  0  0  0  0  0
  -25.9214  -11.6502   20.5674 N   0  0  0  0  0  0
  -22.0347  -12.8395   22.0390 N   0  0  0  0  0  0
  -25.4183  -15.1889   20.4110 N   0  0  0  0  0  0
  -31.8101  -14.7890   20.1770 O   0  0  0  0  0  0
  -21.6612   -6.8886   21.4271 O   0  0  0  0  0  0
  -22.3509  -14.5619   20.6599 O   0  0  0  0  0  0
  -24.6237  -31.8632   23.2019 C   0  0  0  0  0  0
  -25.9105  -32.4802   23.8342 C   0  0  1  0  0  0
  -27.2540  -27.3615   20.0894 C   0  0  0  0  0  0
  -25.5937  -33.8599   24.2308 N   0  0  0  0  0  0
  -23.4171  -30.4839   21.5452 C   0  0  2  0  0  0
  -24.8660  -28.9342   20.1121 C   0  0  0  0  0  0
  -22.7454  -29.4670   22.4971 C   0  0  0  0  0  0
  -18.0276  -28.1390   22.8498 C   0  0  0  0  0  0
  -24.1479  -36.7273   23.2649 C   0  0  0  0  0  0
  -25.9546  -30.8065   21.3635 C   0  0  0  0  0  0
  -26.0335  -29.4343   20.7070 C   0  0  0  0  0  0
  -27.2263  -28.6582   20.6838 C   0  0  0  0  0  0
  -26.0645  -26.9024   19.4832 C   0  0  0  0  0  0
  -24.8836  -27.6723   19.4951 C   0  0  0  0  0  0
  -23.6296  -29.8119   20.1633 C   0  0  0  0  0  0
  -25.4101  -36.3100   24.0356 C   0  0  1  0  0  0
  -20.5878  -28.3705   23.1291 C   0  0  2  0  0  0
  -20.6753  -26.9422   22.5426 C   0  0  0  0  0  0
  -19.5713  -26.6393   21.5239 C   0  0  0  0  0  0
  -18.1906  -26.7939   22.1653 C   0  0  0  0  0  0
  -19.1526  -28.8865   23.2888 C   0  0  0  0  0  0
  -18.9465  -30.1473   23.8904 C   0  0  0  0  0  0
  -17.6463  -30.6588   24.0584 C   0  0  0  0  0  0
  -25.9043  -34.9470   23.5126 C   0  0  0  0  0  0
  -16.5350  -29.9103   23.6316 C   0  0  0  0  0  0
  -16.7280  -28.6512   23.0359 C   0  0  0  0  0  0
  -26.4474  -31.6607   25.0707 C   0  0  0  0  0  0
  -25.3694  -31.3767   26.1435 C   0  0  0  0  0  0
  -27.0347  -30.3043   24.6159 C   0  0  0  0  0  0
  -27.6043  -32.4337   25.7459 C   0  0  0  0  0  0
  -27.5574  -37.1793   24.8467 C   0  0  0  0  0  0
  -21.4179  -29.3054   22.3697 N   0  0  0  0  0  0
  -26.4284  -37.3788   23.9420 N   0  0  0  0  0  0
  -24.6852  -31.0666   22.0956 N   0  0  0  0  0  0
  -23.4183  -28.8231   23.3068 O   0  0  0  0  0  0
  -28.4116  -26.5748   20.1151 O   0  0  0  0  0  0
  -26.5607  -34.8934   22.4690 O   0  0  0  0  0  0
  -23.5390  -32.1473   23.7340 O   0  0  0  0  0  0
  -29.4444  -21.6599   20.0986 C   0  0  0  0  0  0
  -30.0187  -22.9118   19.6954 C   0  0  0  0  0  0
  -30.0007  -20.3904   19.6903 C   0  0  0  0  0  0
  -31.1816  -22.8881   18.9089 C   0  0  0  0  0  0
  -31.1430  -20.4247   18.8326 C   0  0  0  0  0  0
  -31.7428  -21.6599   18.4501 C   0  0  0  0  0  0
  -28.8790  -17.9895   19.1579 C   0  0  0  0  0  0
  -30.2911  -18.2589   21.2467 C   0  0  0  0  0  0
  -30.9386  -25.1516   19.7179 C   0  0  0  0  0  0
  -29.4353  -16.5022   19.1409 C   0  0  0  0  0  0
  -29.8264  -16.7970   21.5694 C   0  0  0  0  0  0
  -29.4117  -19.0160   20.2162 C   0  0  0  0  0  0
  -29.6939  -24.3586   20.2142 C   0  0  2  0  0  0
  -31.7366  -24.2958   18.6959 C   0  0  0  0  0  0
  -31.7987  -19.1393   18.3196 C   0  0  0  0  0  0
  -33.0185  -21.6208   17.5987 C   0  0  0  0  0  0
  -29.6441  -24.3113   21.7576 C   0  0  0  0  0  0
  -33.2484  -24.4620   19.0221 C   0  0  0  0  0  0
  -31.4286  -24.7447   17.2524 C   0  0  0  0  0  0
  -28.4039  -25.1490   19.7196 C   0  0  0  0  0  0
  -29.8068  -15.8431   20.4300 N   0  0  0  0  0  0
  -31.4581  -12.5395   19.1308 H   0  0  0  0  0  0
  -30.3499  -11.4535   19.9283 H   0  0  0  0  0  0
  -29.7777  -11.7400   17.4728 H   0  0  0  0  0  0
  -29.6111  -13.4639   17.7007 H   0  0  0  0  0  0
  -27.8523  -11.2803   18.8486 H   0  0  0  0  0  0
  -27.3694  -12.5726   17.7737 H   0  0  0  0  0  0
  -27.6100  -14.2338   19.4406 H   0  0  0  0  0  0
  -28.7034  -12.1758   21.4184 H   0  0  0  0  0  0
  -28.4109  -13.8665   21.7496 H   0  0  0  0  0  0
  -25.2730   -9.5717   22.4723 H   0  0  0  0  0  0
  -23.9976   -7.4680   22.7464 H   0  0  0  0  0  0
  -21.0779   -8.8775   19.8978 H   0  0  0  0  0  0
  -22.3671  -10.9621   19.6127 H   0  0  0  0  0  0
  -21.2094   -7.6133   23.9772 H   0  0  0  0  0  0
  -21.1425   -6.0452   25.9078 H   0  0  0  0  0  0
  -22.0611   -2.7603   23.2822 H   0  0  0  0  0  0
  -22.3878  -12.0135   22.4932 H   0  0  0  0  0  0
  -21.0946  -13.1452   22.2457 H   0  0  0  0  0  0
  -24.6639  -15.8540   20.5441 H   0  0  0  0  0  0
  -26.2929  -15.6271   20.1450 H   0  0  0  0  0  0
  -26.7208  -32.5476   23.1115 H   0  0  0  0  0  0
  -25.0118  -33.9752   25.0478 H   0  0  0  0  0  0
  -22.7071  -31.3022   21.4025 H   0  0  0  0  0  0
  -23.3766  -35.9581   23.3306 H   0  0  0  0  0  0
  -24.3575  -36.8872   22.2066 H   0  0  0  0  0  0
  -23.7205  -37.6466   23.6641 H   0  0  0  0  0  0
  -26.0818  -31.5776   20.6006 H   0  0  0  0  0  0
  -26.8347  -30.8559   21.9937 H   0  0  0  0  0  0
  -28.1248  -29.0568   21.1386 H   0  0  0  0  0  0
  -26.0377  -25.9426   18.9918 H   0  0  0  0  0  0
  -23.9936  -27.2757   19.0259 H   0  0  0  0  0  0
  -23.7461  -30.5923   19.4093 H   0  0  0  0  0  0
  -22.7478  -29.2425   19.8592 H   0  0  0  0  0  0
  -25.1274  -36.1960   25.0851 H   0  0  0  0  0  0
  -20.9982  -28.3299   24.1412 H   0  0  0  0  0  0
  -20.5653  -26.2339   23.3653 H   0  0  0  0  0  0
  -21.6628  -26.7445   22.1219 H   0  0  0  0  0  0
  -19.6852  -25.6312   21.1258 H   0  0  0  0  0  0
  -19.6613  -27.3210   20.6771 H   0  0  0  0  0  0
  -17.4174  -26.6731   21.4051 H   0  0  0  0  0  0
  -18.0254  -26.0094   22.9047 H   0  0  0  0  0  0
  -19.7953  -30.7291   24.2257 H   0  0  0  0  0  0
  -17.5024  -31.6262   24.5211 H   0  0  0  0  0  0
  -15.5351  -30.3012   23.7626 H   0  0  0  0  0  0
  -15.8690  -28.0839   22.7056 H   0  0  0  0  0  0
  -24.5848  -30.7143   25.7749 H   0  0  0  0  0  0
  -24.8921  -32.2965   26.4826 H   0  0  0  0  0  0
  -25.8007  -30.8953   27.0226 H   0  0  0  0  0  0
  -26.2971  -29.6769   24.1161 H   0  0  0  0  0  0
  -27.4053  -29.7289   25.4647 H   0  0  0  0  0  0
  -27.8785  -30.4333   23.9388 H   0  0  0  0  0  0
  -27.2670  -33.3641   26.2019 H   0  0  0  0  0  0
  -28.3838  -32.6905   25.0278 H   0  0  0  0  0  0
  -28.0727  -31.8496   26.5382 H   0  0  0  0  0  0
  -28.2604  -38.0080   24.7541 H   0  0  0  0  0  0
  -28.1073  -36.2630   24.6265 H   0  0  0  0  0  0
  -27.2306  -37.1401   25.8873 H   0  0  0  0  0  0
  -20.9360  -29.8816   21.6937 H   0  0  0  0  0  0
  -26.0172  -38.2861   24.1434 H   0  0  0  0  0  0
  -28.6063  -21.6799   20.7819 H   0  0  0  0  0  0
  -27.7972  -17.9260   19.2844 H   0  0  0  0  0  0
  -28.9841  -18.4118   18.1572 H   0  0  0  0  0  0
  -30.3195  -18.8465   22.1695 H   0  0  0  0  0  0
  -31.3258  -18.2058   20.9185 H   0  0  0  0  0  0
  -31.5774  -25.3417   20.5828 H   0  0  0  0  0  0
  -30.7069  -26.1469   19.3332 H   0  0  0  0  0  0
  -30.2775  -16.4368   18.4528 H   0  0  0  0  0  0
  -28.6823  -15.8865   18.6520 H   0  0  0  0  0  0
  -30.4424  -16.4106   22.3790 H   0  0  0  0  0  0
  -28.8152  -16.8315   21.9783 H   0  0  0  0  0  0
  -28.5194  -19.3022   20.7781 H   0  0  0  0  0  0
  -32.8678  -19.1556   18.5172 H   0  0  0  0  0  0
  -31.6408  -19.0272   17.2440 H   0  0  0  0  0  0
  -31.4579  -18.2305   18.7914 H   0  0  0  0  0  0
  -33.2211  -22.5467   17.0805 H   0  0  0  0  0  0
  -32.9577  -20.8835   16.8017 H   0  0  0  0  0  0
  -33.8948  -21.3823   18.2081 H   0  0  0  0  0  0
  -30.5607  -23.8809   22.1648 H   0  0  0  0  0  0
  -28.8090  -23.6989   22.1080 H   0  0  0  0  0  0
  -29.5360  -25.3038   22.2011 H   0  0  0  0  0  0
  -33.5088  -24.0135   19.9841 H   0  0  0  0  0  0
  -33.5087  -25.5189   19.0863 H   0  0  0  0  0  0
  -33.9350  -24.0628   18.2770 H   0  0  0  0  0  0
  -30.3546  -24.7726   17.0598 H   0  0  0  0  0  0
  -31.8532  -24.0612   16.5220 H   0  0  0  0  0  0
  -31.8418  -25.7292   17.0353 H   0  0  0  0  0  0
  -27.5158  -24.6491   20.1100 H   0  0  0  0  0  0
  -28.3366  -25.1061   18.6316 H   0  0  0  0  0  0
  1 25  1  0  0  0
  1 30  2  0  0  0
  1 91  1  0  0  0
  2  3  1  0  0  0
  2 25  1  0  0  0
  2 92  1  0  0  0
  2 93  1  0  0  0
  3  4  1  0  0  0
  3 94  1  0  0  0
  3 95  1  0  0  0
  4  5  1  0  0  0
  4 96  1  0  0  0
  4 97  1  0  0  0
  5  6  1  0  0  0
  5 26  1  0  0  0
  5 98  1  0  0  0
  6 25  1  0  0  0
  6 99  1  0  0  0
  6100  1  0  0  0
  7  8  2  0  0  0
  7 26  1  0  0  0
  7 29  1  0  0  0
  8  9  1  0  0  0
  8 22  1  0  0  0
  9 10  1  0  0  0
  9 27  2  0  0  0
 10 11  2  0  0  0
 10 15  1  0  0  0
 11 12  1  0  0  0
 11101  1  0  0  0
 12 13  2  0  0  0
 12102  1  0  0  0
 13 14  1  0  0  0
 13 31  1  0  0  0
 14 15  2  0  0  0
 14103  1  0  0  0
 15104  1  0  0  0
 16 17  2  0  0  0
 16 21  1  0  0  0
 16 31  1  0  0  0
 17 18  1  0  0  0
 17105  1  0  0  0
 18 19  2  0  0  0
 18106  1  0  0  0
 19 20  1  0  0  0
 19 24  1  0  0  0
 20 21  2  0  0  0
 20107  1  0  0  0
 21 23  1  0  0  0
 22 28  1  0  0  0
 22 32  2  0  0  0
 26 27  1  0  0  0
 28108  1  0  0  0
 28109  1  0  0  0
 29110  1  0  0  0
 29111  1  0  0  0
 33 34  1  0  0  0
 33 66  1  0  0  0
 33 70  2  0  0  0
 34 36  1  0  0  0
 34 59  1  0  0  0
 34112  1  0  0  0
 35 44  2  0  0  0
 35 45  1  0  0  0
 35 68  1  0  0  0
 36 56  1  0  0  0
 36113  1  0  0  0
 37 39  1  0  0  0
 37 47  1  0  0  0
 37 66  1  0  0  0
 37114  1  0  0  0
 38 43  2  0  0  0
 38 46  1  0  0  0
 38 47  1  0  0  0
 39 64  1  0  0  0
 39 67  2  0  0  0
 40 52  1  0  0  0
 40 53  2  0  0  0
 40 58  1  0  0  0
 41115  1  0  0  0
 41116  1  0  0  0
 41117  1  0  0  0
 41 48  1  0  0  0
 42 43  1  0  0  0
 42 66  1  0  0  0
 42118  1  0  0  0
 42119  1  0  0  0
 43 44  1  0  0  0
 44120  1  0  0  0
 45 46  2  0  0  0
 45121  1  0  0  0
 46122  1  0  0  0
 47123  1  0  0  0
 47124  1  0  0  0
 48 56  1  0  0  0
 48 65  1  0  0  0
 48125  1  0  0  0
 49 50  1  0  0  0
 49 53  1  0  0  0
 49 64  1  0  0  0
 49126  1  0  0  0
 50 51  1  0  0  0
 50127  1  0  0  0
 50128  1  0  0  0
 51 52  1  0  0  0
 51129  1  0  0  0
 51130  1  0  0  0
 52131  1  0  0  0
 52132  1  0  0  0
 53 54  1  0  0  0
 54 55  2  0  0  0
 54133  1  0  0  0
 55 57  1  0  0  0
 55134  1  0  0  0
 56 69  2  0  0  0
 57 58  2  0  0  0
 57135  1  0  0  0
 58136  1  0  0  0
 59 60  1  0  0  0
 59 61  1  0  0  0
 59 62  1  0  0  0
 60137  1  0  0  0
 60138  1  0  0  0
 60139  1  0  0  0
 61140  1  0  0  0
 61141  1  0  0  0
 61142  1  0  0  0
 62143  1  0  0  0
 62144  1  0  0  0
 62145  1  0  0  0
 63 65  1  0  0  0
 63146  1  0  0  0
 63147  1  0  0  0
 63148  1  0  0  0
 64149  1  0  0  0
 65150  1  0  0  0
 68 90  1  0  0  0
 71 72  2  0  0  0
 71 73  1  0  0  0
 71151  1  0  0  0
 72 74  1  0  0  0
 72 83  1  0  0  0
 73 75  2  0  0  0
 73 82  1  0  0  0
 74 76  2  0  0  0
 74 84  1  0  0  0
 75 76  1  0  0  0
 75 85  1  0  0  0
 76 86  1  0  0  0
 77 80  1  0  0  0
 77 82  1  0  0  0
 77152  1  0  0  0
 77153  1  0  0  0
 78 81  1  0  0  0
 78 82  1  0  0  0
 78154  1  0  0  0
 78155  1  0  0  0
 79 83  1  0  0  0
 79 84  1  0  0  0
 79156  1  0  0  0
 79157  1  0  0  0
 80 91  1  0  0  0
 80158  1  0  0  0
 80159  1  0  0  0
 81 91  1  0  0  0
 81160  1  0  0  0
 81161  1  0  0  0
 82162  1  0  0  0
 83 87  1  0  0  0
 83 90  1  0  0  0
 84 88  1  0  0  0
 84 89  1  0  0  0
 85163  1  0  0  0
 85164  1  0  0  0
 85165  1  0  0  0
 86166  1  0  0  0
 86167  1  0  0  0
 86168  1  0  0  0
 87169  1  0  0  0
 87170  1  0  0  0
 87171  1  0  0  0
 88172  1  0  0  0
 88173  1  0  0  0
 88174  1  0  0  0
 89175  1  0  0  0
 89176  1  0  0  0
 89177  1  0  0  0
 90178  1  0  0  0
 90179  1  0  0  0
M  ISO  4   1 100  68 101  90 101  91 100
M  END
> <chiral flag>
0

> <version>
0

> <s_m_source_file>
/data/baiqing/PycharmProjects/Reinvent-master-3.2/result/LINK_invent/BTK/process_docking_weight1_custom_sum_contain_oxygen_bond_distance_aromatic_linkinvent_7_9_3/rearranged_h_0161.sdf

> <i_m_source_file_index>
89

> <r_mmod_Potential_Energy-OPLS-2005>
387.253265380859

> <r_mmod_Stretch_Energy-OPLS-2005>
93.5256652832031

> <r_mmod_Bend_Energy-OPLS-2005>
202.063461303711

> <r_mmod_Torsional_Energy-OPLS-2005>
386.659088134766

> <r_mmod_Improper_Torsional_Energy-OPLS-2005>
11.0318899154663

> <r_mmod_Van_der_Waal_Energy-OPLS-2005>
157.561920166016

> <r_mmod_Electrostatic_Energy-OPLS-2005>
-339.216552734375

> <r_mmod_Solvation_Energy-OPLS-2005>
-181.804153442383

> <b_mmod_Minimization_Converged-OPLS-2005>
0

> <r_mmod_RMS_Derivative-OPLS-2005>
8.009108543396

$$$$
89
                    3D
 Structure written by MMmdl.
183192  0  0  1  0            999 V2000
  -30.7244  -14.4667   20.5539 C   0  0  0  0  0  0
  -30.4168  -12.3149   19.4009 C   0  0  0  0  0  0
  -29.4826  -12.5073   18.1897 C   0  0  0  0  0  0
  -28.0008  -12.3865   18.6064 C   0  0  0  0  0  0
  -27.6591  -13.2068   19.8818 C   0  0  2  0  0  0
  -28.7122  -12.9392   20.9778 C   0  0  0  0  0  0
  -25.2585  -13.8165   20.5706 C   0  0  0  0  0  0
  -24.1844  -13.0446   20.9213 C   0  0  0  0  0  0
  -24.6396  -11.6909   20.8772 C   0  0  0  0  0  0
  -23.9065  -10.4291   21.0422 C   0  0  0  0  0  0
  -24.3617   -9.4198   21.9194 C   0  0  0  0  0  0
  -23.6288   -8.2235   22.0756 C   0  0  0  0  0  0
  -22.4268   -8.0280   21.3546 C   0  0  0  0  0  0
  -21.9912   -9.0258   20.4647 C   0  0  0  0  0  0
  -22.7243  -10.2135   20.3064 C   0  0  0  0  0  0
  -21.6848   -6.0736   22.5281 C   0  0  0  0  0  0
  -21.4010   -6.5640   23.8216 C   0  0  0  0  0  0
  -21.3662   -5.6792   24.9180 C   0  0  0  0  0  0
  -21.6044   -4.3054   24.7226 C   0  0  0  0  0  0
  -21.8818   -3.8150   23.4346 C   0  0  0  0  0  0
  -21.9188   -4.6965   22.3403 C   0  0  0  0  0  0
  -22.7865  -13.5246   21.1847 C   0  0  0  0  0  0
  -22.1656   -4.2152   21.0979 F   0  0  0  0  0  0
  -21.5632   -3.4538   25.7739 F   0  0  0  0  0  0
  -30.0155  -13.3089   20.4128 N   0  0  0  0  0  0
  -26.3023  -12.9331   20.3441 N   0  0  0  0  0  0
  -25.9321  -11.6490   20.5814 N   0  0  0  0  0  0
  -22.0483  -12.8238   22.0384 N   0  0  0  0  0  0
  -25.4308  -15.1871   20.4010 N   0  0  0  0  0  0
  -31.9138  -14.5018   20.2174 O   0  0  0  0  0  0
  -21.6630   -6.8881   21.4244 O   0  0  0  0  0  0
  -22.3576  -14.5557   20.6685 O   0  0  0  0  0  0
  -24.6114  -31.8711   23.2142 C   0  0  0  0  0  0
  -25.9020  -32.4841   23.8427 C   0  0  1  0  0  0
  -27.2330  -27.4630   20.0951 C   0  0  0  0  0  0
  -25.5892  -33.8644   24.2352 N   0  0  0  0  0  0
  -23.3979  -30.4921   21.5547 C   0  0  2  0  0  0
  -24.8451  -28.9607   20.1156 C   0  0  0  0  0  0
  -22.7393  -29.4661   22.5032 C   0  0  0  0  0  0
  -18.0256  -28.1385   22.8477 C   0  0  0  0  0  0
  -24.1488  -36.7320   23.2634 C   0  0  0  0  0  0
  -25.9229  -30.8425   21.3657 C   0  0  0  0  0  0
  -26.0004  -29.4767   20.7192 C   0  0  0  0  0  0
  -27.1973  -28.7301   20.7169 C   0  0  0  0  0  0
  -26.0711  -26.9604   19.4778 C   0  0  0  0  0  0
  -24.8728  -27.6992   19.4950 C   0  0  0  0  0  0
  -23.6037  -29.8226   20.1689 C   0  0  0  0  0  0
  -25.4104  -36.3122   24.0338 C   0  0  1  0  0  0
  -20.5845  -28.3658   23.1334 C   0  0  2  0  0  0
  -20.6765  -26.9407   22.5418 C   0  0  0  0  0  0
  -19.5751  -26.6389   21.5213 C   0  0  0  0  0  0
  -18.1909  -26.7931   22.1601 C   0  0  0  0  0  0
  -19.1503  -28.8833   23.2894 C   0  0  0  0  0  0
  -18.9445  -30.1442   23.8900 C   0  0  0  0  0  0
  -17.6452  -30.6588   24.0561 C   0  0  0  0  0  0
  -25.9029  -34.9487   23.5141 C   0  0  0  0  0  0
  -16.5341  -29.9096   23.6333 C   0  0  0  0  0  0
  -16.7248  -28.6521   23.0334 C   0  0  0  0  0  0
  -26.4474  -31.6627   25.0756 C   0  0  0  0  0  0
  -25.3745  -31.3733   26.1511 C   0  0  0  0  0  0
  -27.0319  -30.3078   24.6108 C   0  0  0  0  0  0
  -27.6041  -32.4361   25.7507 C   0  0  0  0  0  0
  -27.5580  -37.1808   24.8458 C   0  0  0  0  0  0
  -21.4121  -29.3034   22.3765 N   0  0  0  0  0  0
  -26.4296  -37.3796   23.9405 N   0  0  0  0  0  0
  -24.6616  -31.0826   22.1033 N   0  0  0  0  0  0
  -23.4174  -28.8194   23.3054 O   0  0  0  0  0  0
  -28.3872  -26.7229   20.0435 O   0  0  0  0  0  0
  -26.5585  -34.8927   22.4699 O   0  0  0  0  0  0
  -23.5314  -32.1462   23.7560 O   0  0  0  0  0  0
  -27.5239  -24.0768   20.7158 C   0  0  0  0  0  0
  -27.3034  -23.3185   23.4071 C   0  0  0  0  0  0
  -28.0638  -24.9175   21.7119 C   0  0  0  0  0  0
  -26.8586  -22.8805   21.0550 C   0  0  0  0  0  0
  -27.9515  -24.5292   23.0701 C   0  0  0  0  0  0
  -26.7571  -22.4810   22.4042 C   0  0  0  0  0  0
  -29.9667  -18.1168   19.7970 C   0  0  0  0  0  0
  -30.6909  -16.7641   19.8376 C   0  0  0  0  0  0
  -29.2148  -16.0718   21.7692 C   0  0  0  0  0  0
  -28.5253  -17.4553   21.6329 C   0  0  2  0  0  0
  -29.5414  -18.5125   21.2043 C   0  0  2  0  0  0
  -26.2844  -22.0031   19.9588 C   0  0  0  0  0  0
  -28.5319  -25.3904   24.1796 C   0  0  0  0  0  0
  -24.3183  -19.1980   23.7524 C   0  0  0  0  0  0
  -29.9074  -20.8530   21.3436 C   0  0  0  0  0  0
  -28.8126  -26.1869   21.2968 C   0  0  0  0  0  0
  -26.4368  -18.3388   22.6537 C   0  0  0  0  0  0
  -26.4190  -20.6079   23.8864 C   0  0  0  0  0  0
  -25.8559  -19.1672   23.8259 C   0  0  1  0  0  0
  -30.0364  -15.6554   20.5978 N   0  0  0  0  0  0
  -27.8296  -17.8777   22.8746 N   0  3  0  0  0  0
  -26.1243  -21.2841   22.6664 O   0  0  0  0  0  0
  -28.9469  -19.8050   21.2340 O   0  0  0  0  0  0
  -31.4561  -12.4141   19.0833 H   0  0  0  0  0  0
  -30.3340  -11.3024   19.7984 H   0  0  0  0  0  0
  -29.7134  -11.7745   17.4150 H   0  0  0  0  0  0
  -29.6586  -13.4879   17.7444 H   0  0  0  0  0  0
  -27.7951  -11.3299   18.7819 H   0  0  0  0  0  0
  -27.3529  -12.6879   17.7822 H   0  0  0  0  0  0
  -27.7103  -14.2618   19.6127 H   0  0  0  0  0  0
  -28.7122  -11.8753   21.2199 H   0  0  0  0  0  0
  -28.4930  -13.4011   21.9335 H   0  0  0  0  0  0
  -25.2765   -9.5661   22.4769 H   0  0  0  0  0  0
  -23.9995   -7.4620   22.7473 H   0  0  0  0  0  0
  -21.0847   -8.8786   19.8946 H   0  0  0  0  0  0
  -22.3718  -10.9680   19.6175 H   0  0  0  0  0  0
  -21.2002   -7.6147   23.9722 H   0  0  0  0  0  0
  -21.1486   -6.0522   25.9083 H   0  0  0  0  0  0
  -22.0593   -2.7610   23.2847 H   0  0  0  0  0  0
  -22.4067  -11.9879   22.4764 H   0  0  0  0  0  0
  -21.1098  -13.1271   22.2564 H   0  0  0  0  0  0
  -24.6220  -15.7978   20.3806 H   0  0  0  0  0  0
  -26.2277  -15.5682   19.9081 H   0  0  0  0  0  0
  -26.7074  -32.5576   23.1177 H   0  0  0  0  0  0
  -25.0138  -33.9823   25.0562 H   0  0  0  0  0  0
  -22.6859  -31.3076   21.4151 H   0  0  0  0  0  0
  -23.3756  -35.9654   23.3327 H   0  0  0  0  0  0
  -24.3564  -36.8916   22.2043 H   0  0  0  0  0  0
  -23.7251  -37.6529   23.6644 H   0  0  0  0  0  0
  -26.0295  -31.6057   20.5939 H   0  0  0  0  0  0
  -26.8142  -30.9002   21.9792 H   0  0  0  0  0  0
  -28.0910  -29.1251   21.1793 H   0  0  0  0  0  0
  -26.0912  -25.9968   18.9891 H   0  0  0  0  0  0
  -23.9864  -27.2979   19.0250 H   0  0  0  0  0  0
  -23.7033  -30.5982   19.4087 H   0  0  0  0  0  0
  -22.7302  -29.2367   19.8782 H   0  0  0  0  0  0
  -25.1281  -36.1999   25.0832 H   0  0  0  0  0  0
  -20.9894  -28.3228   24.1475 H   0  0  0  0  0  0
  -20.5700  -26.2266   23.3598 H   0  0  0  0  0  0
  -21.6638  -26.7496   22.1198 H   0  0  0  0  0  0
  -19.6943  -25.6303   21.1247 H   0  0  0  0  0  0
  -19.6716  -27.3206   20.6745 H   0  0  0  0  0  0
  -17.4201  -26.6689   21.3982 H   0  0  0  0  0  0
  -18.0279  -26.0078   22.8994 H   0  0  0  0  0  0
  -19.7934  -30.7228   24.2297 H   0  0  0  0  0  0
  -17.5027  -31.6269   24.5161 H   0  0  0  0  0  0
  -15.5343  -30.2992   23.7673 H   0  0  0  0  0  0
  -15.8649  -28.0842   22.7039 H   0  0  0  0  0  0
  -24.5917  -30.7068   25.7864 H   0  0  0  0  0  0
  -24.8929  -32.2889   26.4958 H   0  0  0  0  0  0
  -25.8102  -30.8924   27.0276 H   0  0  0  0  0  0
  -26.2874  -29.6819   24.1164 H   0  0  0  0  0  0
  -27.4116  -29.7322   25.4559 H   0  0  0  0  0  0
  -27.8686  -30.4429   23.9247 H   0  0  0  0  0  0
  -27.2660  -33.3654   26.2103 H   0  0  0  0  0  0
  -28.3830  -32.6935   25.0321 H   0  0  0  0  0  0
  -28.0731  -31.8491   26.5411 H   0  0  0  0  0  0
  -28.2596  -38.0105   24.7500 H   0  0  0  0  0  0
  -28.1071  -36.2632   24.6292 H   0  0  0  0  0  0
  -27.2289  -37.1468   25.8856 H   0  0  0  0  0  0
  -20.9290  -29.8761   21.6993 H   0  0  0  0  0  0
  -26.0200  -38.2878   24.1410 H   0  0  0  0  0  0
  -27.6289  -24.3510   19.6756 H   0  0  0  0  0  0
  -27.2245  -23.0454   24.4485 H   0  0  0  0  0  0
  -29.1012  -18.0650   19.1350 H   0  0  0  0  0  0
  -30.6286  -18.8674   19.3651 H   0  0  0  0  0  0
  -31.6718  -16.9555   20.2796 H   0  0  0  0  0  0
  -30.8774  -16.4462   18.8095 H   0  0  0  0  0  0
  -28.3970  -15.3861   21.9428 H   0  0  0  0  0  0
  -29.8477  -16.0465   22.6586 H   0  0  0  0  0  0
  -27.7739  -17.3557   20.8466 H   0  0  0  0  0  0
  -30.3959  -18.4829   21.8847 H   0  0  0  0  0  0
  -26.4021  -22.4571   18.9753 H   0  0  0  0  0  0
  -25.2214  -21.8301   20.1267 H   0  0  0  0  0  0
  -26.7895  -21.0375   19.9450 H   0  0  0  0  0  0
  -28.4534  -24.9007   25.1508 H   0  0  0  0  0  0
  -28.0040  -26.3433   24.2409 H   0  0  0  0  0  0
  -29.5875  -25.5922   23.9957 H   0  0  0  0  0  0
  -23.9005  -18.1905   23.7465 H   0  0  0  0  0  0
  -23.9757  -19.7031   22.8486 H   0  0  0  0  0  0
  -23.8924  -19.7222   24.6088 H   0  0  0  0  0  0
  -29.4097  -21.8187   21.4074 H   0  0  0  0  0  0
  -30.5770  -20.8870   20.4840 H   0  0  0  0  0  0
  -30.5124  -20.7438   22.2452 H   0  0  0  0  0  0
  -29.8700  -25.9343   21.2101 H   0  0  0  0  0  0
  -28.7478  -26.9518   22.0705 H   0  0  0  0  0  0
  -26.3695  -18.9237   21.7346 H   0  0  0  0  0  0
  -25.8288  -17.4484   22.4866 H   0  0  0  0  0  0
  -27.4976  -20.5819   24.0501 H   0  0  0  0  0  0
  -25.9768  -21.1447   24.7274 H   0  0  0  0  0  0
  -26.1117  -18.6651   24.7612 H   0  0  0  0  0  0
  -28.3626  -18.6383   23.2660 H   0  0  0  0  0  0
  -27.8223  -17.1229   23.5427 H   0  0  0  0  0  0
  1 25  1  0  0  0
  1 30  2  0  0  0
  1 90  1  0  0  0
  2  3  1  0  0  0
  2 25  1  0  0  0
  2 94  1  0  0  0
  2 95  1  0  0  0
  3  4  1  0  0  0
  3 96  1  0  0  0
  3 97  1  0  0  0
  4  5  1  0  0  0
  4 98  1  0  0  0
  4 99  1  0  0  0
  5  6  1  0  0  0
  5 26  1  0  0  0
  5100  1  0  0  0
  6 25  1  0  0  0
  6101  1  0  0  0
  6102  1  0  0  0
  7  8  2  0  0  0
  7 26  1  0  0  0
  7 29  1  0  0  0
  8  9  1  0  0  0
  8 22  1  0  0  0
  9 10  1  0  0  0
  9 27  2  0  0  0
 10 11  2  0  0  0
 10 15  1  0  0  0
 11 12  1  0  0  0
 11103  1  0  0  0
 12 13  2  0  0  0
 12104  1  0  0  0
 13 14  1  0  0  0
 13 31  1  0  0  0
 14 15  2  0  0  0
 14105  1  0  0  0
 15106  1  0  0  0
 16 17  2  0  0  0
 16 21  1  0  0  0
 16 31  1  0  0  0
 17 18  1  0  0  0
 17107  1  0  0  0
 18 19  2  0  0  0
 18108  1  0  0  0
 19 20  1  0  0  0
 19 24  1  0  0  0
 20 21  2  0  0  0
 20109  1  0  0  0
 21 23  1  0  0  0
 22 28  1  0  0  0
 22 32  2  0  0  0
 26 27  1  0  0  0
 28110  1  0  0  0
 28111  1  0  0  0
 29112  1  0  0  0
 29113  1  0  0  0
 33 34  1  0  0  0
 33 66  1  0  0  0
 33 70  2  0  0  0
 34 36  1  0  0  0
 34 59  1  0  0  0
 34114  1  0  0  0
 35 44  2  0  0  0
 35 45  1  0  0  0
 35 68  1  0  0  0
 36 56  1  0  0  0
 36115  1  0  0  0
 37 39  1  0  0  0
 37 47  1  0  0  0
 37 66  1  0  0  0
 37116  1  0  0  0
 38 43  2  0  0  0
 38 46  1  0  0  0
 38 47  1  0  0  0
 39 64  1  0  0  0
 39 67  2  0  0  0
 40 52  1  0  0  0
 40 53  2  0  0  0
 40 58  1  0  0  0
 41117  1  0  0  0
 41118  1  0  0  0
 41119  1  0  0  0
 41 48  1  0  0  0
 42 43  1  0  0  0
 42 66  1  0  0  0
 42120  1  0  0  0
 42121  1  0  0  0
 43 44  1  0  0  0
 44122  1  0  0  0
 45 46  2  0  0  0
 45123  1  0  0  0
 46124  1  0  0  0
 47125  1  0  0  0
 47126  1  0  0  0
 48 56  1  0  0  0
 48 65  1  0  0  0
 48127  1  0  0  0
 49 50  1  0  0  0
 49 53  1  0  0  0
 49 64  1  0  0  0
 49128  1  0  0  0
 50 51  1  0  0  0
 50129  1  0  0  0
 50130  1  0  0  0
 51 52  1  0  0  0
 51131  1  0  0  0
 51132  1  0  0  0
 52133  1  0  0  0
 52134  1  0  0  0
 53 54  1  0  0  0
 54 55  2  0  0  0
 54135  1  0  0  0
 55 57  1  0  0  0
 55136  1  0  0  0
 56 69  2  0  0  0
 57 58  2  0  0  0
 57137  1  0  0  0
 58138  1  0  0  0
 59 60  1  0  0  0
 59 61  1  0  0  0
 59 62  1  0  0  0
 60139  1  0  0  0
 60140  1  0  0  0
 60141  1  0  0  0
 61142  1  0  0  0
 61143  1  0  0  0
 61144  1  0  0  0
 62145  1  0  0  0
 62146  1  0  0  0
 62147  1  0  0  0
 63 65  1  0  0  0
 63148  1  0  0  0
 63149  1  0  0  0
 63150  1  0  0  0
 64151  1  0  0  0
 65152  1  0  0  0
 68 86  1  0  0  0
 71 73  2  0  0  0
 71 74  1  0  0  0
 71153  1  0  0  0
 72 75  2  0  0  0
 72 76  1  0  0  0
 72154  1  0  0  0
 73 75  1  0  0  0
 73 86  1  0  0  0
 74 76  2  0  0  0
 74 82  1  0  0  0
 75 83  1  0  0  0
 76 92  1  0  0  0
 77 78  1  0  0  0
 77 81  1  0  0  0
 77155  1  0  0  0
 77156  1  0  0  0
 78 90  1  0  0  0
 78157  1  0  0  0
 78158  1  0  0  0
 79 80  1  0  0  0
 79 90  1  0  0  0
 79159  1  0  0  0
 79160  1  0  0  0
 80 81  1  0  0  0
 80 91  1  0  0  0
 80161  1  0  0  0
 81 93  1  0  0  0
 81162  1  0  0  0
 82163  1  0  0  0
 82164  1  0  0  0
 82165  1  0  0  0
 83166  1  0  0  0
 83167  1  0  0  0
 83168  1  0  0  0
 84169  1  0  0  0
 84170  1  0  0  0
 84171  1  0  0  0
 84 89  1  0  0  0
 85 93  1  0  0  0
 85172  1  0  0  0
 85173  1  0  0  0
 85174  1  0  0  0
 86175  1  0  0  0
 86176  1  0  0  0
 87 89  1  0  0  0
 87 91  1  0  0  0
 87177  1  0  0  0
 87178  1  0  0  0
 88 89  1  0  0  0
 88 92  1  0  0  0
 88179  1  0  0  0
 88180  1  0  0  0
 89181  1  0  0  0
 91182  1  0  0  0
 91183  1  0  0  0
M  CHG  1  91   1
M  ISO  4   1 100  68 101  86 101  90 100
M  END
> <chiral flag>
0

> <version>
0

> <s_m_source_file>
/data/baiqing/PycharmProjects/Reinvent-master-3.2/result/LINK_invent/BTK/process_docking_weight1_custom_sum_contain_oxygen_bond_distance_aromatic_linkinvent_7_9_3/rearranged_h_0161.sdf

> <i_m_source_file_index>
90

> <r_mmod_Potential_Energy-OPLS-2005>
94.0180816650391

> <r_mmod_Stretch_Energy-OPLS-2005>
44.4639358520508

> <r_mmod_Bend_Energy-OPLS-2005>
127.270545959473

> <r_mmod_Torsional_Energy-OPLS-2005>
374.736785888672

> <r_mmod_Improper_Torsional_Energy-OPLS-2005>
18.7154293060303

> <r_mmod_Van_der_Waal_Energy-OPLS-2005>
156.105438232422

> <r_mmod_Electrostatic_Energy-OPLS-2005>
-227.041091918945

> <r_mmod_Solvation_Energy-OPLS-2005>
-418.065521240234

> <b_mmod_Minimization_Converged-OPLS-2005>
0

> <r_mmod_RMS_Derivative-OPLS-2005>
1.83098316192627

$$$$
90
                    3D
 Structure written by MMmdl.
167176  0  0  1  0            999 V2000
  -30.7008  -14.5299   20.5645 C   0  0  0  0  0  0
  -30.4238  -12.3471   19.4291 C   0  0  0  0  0  0
  -29.4988  -12.5050   18.2074 C   0  0  0  0  0  0
  -28.0216  -12.3555   18.6229 C   0  0  0  0  0  0
  -27.6554  -13.2143   19.8624 C   0  0  2  0  0  0
  -28.6990  -13.0456   20.9882 C   0  0  0  0  0  0
  -25.2567  -13.8168   20.5673 C   0  0  0  0  0  0
  -24.1814  -13.0449   20.9174 C   0  0  0  0  0  0
  -24.6397  -11.6917   20.8737 C   0  0  0  0  0  0
  -23.9077  -10.4298   21.0411 C   0  0  0  0  0  0
  -24.3642   -9.4213   21.9192 C   0  0  0  0  0  0
  -23.6304   -8.2254   22.0762 C   0  0  0  0  0  0
  -22.4272   -8.0305   21.3571 C   0  0  0  0  0  0
  -21.9924   -9.0281   20.4667 C   0  0  0  0  0  0
  -22.7258  -10.2144   20.3065 C   0  0  0  0  0  0
  -21.6854   -6.0739   22.5292 C   0  0  0  0  0  0
  -21.4022   -6.5639   23.8228 C   0  0  0  0  0  0
  -21.3658   -5.6776   24.9190 C   0  0  0  0  0  0
  -21.6055   -4.3045   24.7226 C   0  0  0  0  0  0
  -21.8818   -3.8150   23.4345 C   0  0  0  0  0  0
  -21.9198   -4.6972   22.3405 C   0  0  0  0  0  0
  -22.7851  -13.5269   21.1833 C   0  0  0  0  0  0
  -22.1658   -4.2164   21.0975 F   0  0  0  0  0  0
  -21.5633   -3.4522   25.7736 F   0  0  0  0  0  0
  -30.0187  -13.3585   20.4219 N   0  0  0  0  0  0
  -26.2997  -12.9354   20.3307 N   0  0  0  0  0  0
  -25.9324  -11.6516   20.5740 N   0  0  0  0  0  0
  -22.0454  -12.8313   22.0392 N   0  0  0  0  0  0
  -25.4307  -15.1885   20.4108 N   0  0  0  0  0  0
  -31.8451  -14.6761   20.1295 O   0  0  0  0  0  0
  -21.6636   -6.8902   21.4256 O   0  0  0  0  0  0
  -22.3559  -14.5593   20.6681 O   0  0  0  0  0  0
  -24.6183  -31.8669   23.2075 C   0  0  0  0  0  0
  -25.9078  -32.4812   23.8360 C   0  0  1  0  0  0
  -27.2240  -27.3922   20.1073 C   0  0  0  0  0  0
  -25.5933  -33.8596   24.2318 N   0  0  0  0  0  0
  -23.4079  -30.4854   21.5517 C   0  0  2  0  0  0
  -24.8535  -28.9455   20.1113 C   0  0  0  0  0  0
  -22.7461  -29.4609   22.5020 C   0  0  0  0  0  0
  -18.0286  -28.1352   22.8504 C   0  0  0  0  0  0
  -24.1474  -36.7295   23.2631 C   0  0  0  0  0  0
  -25.9380  -30.8158   21.3661 C   0  0  0  0  0  0
  -26.0147  -29.4462   20.7152 C   0  0  0  0  0  0
  -27.2051  -28.6780   20.7078 C   0  0  0  0  0  0
  -26.0519  -26.9190   19.4857 C   0  0  0  0  0  0
  -24.8691  -27.6803   19.4950 C   0  0  0  0  0  0
  -23.6173  -29.8182   20.1642 C   0  0  0  0  0  0
  -25.4095  -36.3106   24.0339 C   0  0  1  0  0  0
  -20.5884  -28.3632   23.1375 C   0  0  2  0  0  0
  -20.6793  -26.9386   22.5447 C   0  0  0  0  0  0
  -19.5788  -26.6370   21.5232 C   0  0  0  0  0  0
  -18.1945  -26.7901   22.1618 C   0  0  0  0  0  0
  -19.1543  -28.8824   23.2924 C   0  0  0  0  0  0
  -18.9448  -30.1435   23.8930 C   0  0  0  0  0  0
  -17.6452  -30.6583   24.0562 C   0  0  0  0  0  0
  -25.9028  -34.9465   23.5133 C   0  0  0  0  0  0
  -16.5339  -29.9065   23.6330 C   0  0  0  0  0  0
  -16.7275  -28.6467   23.0355 C   0  0  0  0  0  0
  -26.4484  -31.6589   25.0693 C   0  0  0  0  0  0
  -25.3735  -31.3708   26.1443 C   0  0  0  0  0  0
  -27.0308  -30.3034   24.6036 C   0  0  0  0  0  0
  -27.6076  -32.4300   25.7440 C   0  0  0  0  0  0
  -27.5576  -37.1793   24.8469 C   0  0  0  0  0  0
  -21.4194  -29.3014   22.3802 N   0  0  0  0  0  0
  -26.4288  -37.3794   23.9416 N   0  0  0  0  0  0
  -24.6730  -31.0711   22.0994 N   0  0  0  0  0  0
  -23.4224  -28.8150   23.3086 O   0  0  0  0  0  0
  -28.3688  -26.6097   20.1086 O   0  0  0  0  0  0
  -26.5593  -34.8926   22.4695 O   0  0  0  0  0  0
  -23.5385  -32.1438   23.7468 O   0  0  0  0  0  0
  -28.9185  -19.4477   23.6133 C   0  0  0  0  0  0
  -29.6299  -19.1145   20.9006 C   0  0  0  0  0  0
  -29.5689  -18.2852   23.1757 C   0  0  0  0  0  0
  -29.8912  -18.0759   21.8412 C   0  0  0  0  0  0
  -28.6221  -20.4706   22.6875 C   0  0  0  0  0  0
  -29.0049  -20.3419   21.3154 C   0  0  0  0  0  0
  -30.0858  -17.1898   24.0612 C   0  0  0  0  0  0
  -30.7014  -16.7687   21.6795 C   0  0  1  0  0  0
  -31.0672  -16.4104   23.1559 C   0  0  1  0  0  0
  -27.9075  -21.6966   23.2380 C   0  0  0  0  0  0
  -27.3964  -25.3867   22.0706 C   0  0  0  0  0  0
  -28.7180  -21.4754   20.2821 C   0  0  0  0  0  0
  -28.3295  -24.0268   20.0699 C   0  0  0  0  0  0
  -28.3945  -25.3713   20.8888 C   0  0  1  0  0  0
  -30.0360  -15.5715   21.1227 N   0  0  0  0  0  0
  -29.0020  -22.8659   20.7640 N   0  3  0  0  0  0
  -32.3945  -16.8302   23.4239 O   0  0  0  0  0  0
  -31.4691  -12.4449   19.1324 H   0  0  0  0  0  0
  -30.3331  -11.3459   19.8527 H   0  0  0  0  0  0
  -29.7485  -11.7679   17.4439 H   0  0  0  0  0  0
  -29.6607  -13.4794   17.7452 H   0  0  0  0  0  0
  -27.8488  -11.3021   18.8439 H   0  0  0  0  0  0
  -27.3668  -12.5985   17.7846 H   0  0  0  0  0  0
  -27.6869  -14.2536   19.5350 H   0  0  0  0  0  0
  -28.6870  -12.0231   21.3673 H   0  0  0  0  0  0
  -28.4580  -13.6800   21.8423 H   0  0  0  0  0  0
  -25.2793   -9.5660   22.4763 H   0  0  0  0  0  0
  -24.0014   -7.4626   22.7471 H   0  0  0  0  0  0
  -21.0866   -8.8829   19.8955 H   0  0  0  0  0  0
  -22.3766  -10.9703   19.6168 H   0  0  0  0  0  0
  -21.2015   -7.6144   23.9755 H   0  0  0  0  0  0
  -21.1469   -6.0490   25.9096 H   0  0  0  0  0  0
  -22.0593   -2.7616   23.2836 H   0  0  0  0  0  0
  -22.4040  -11.9998   22.4839 H   0  0  0  0  0  0
  -21.1088  -13.1377   22.2551 H   0  0  0  0  0  0
  -24.6694  -15.8506   20.5221 H   0  0  0  0  0  0
  -26.2888  -15.6239   20.0948 H   0  0  0  0  0  0
  -26.7143  -32.5483   23.1110 H   0  0  0  0  0  0
  -25.0144  -33.9730   25.0503 H   0  0  0  0  0  0
  -22.6946  -31.2996   21.4128 H   0  0  0  0  0  0
  -23.3745  -35.9628   23.3305 H   0  0  0  0  0  0
  -24.3565  -36.8894   22.2050 H   0  0  0  0  0  0
  -23.7211  -37.6489   23.6628 H   0  0  0  0  0  0
  -26.0408  -31.5729   20.5870 H   0  0  0  0  0  0
  -26.8306  -30.8751   21.9798 H   0  0  0  0  0  0
  -28.1018  -29.0555   21.1803 H   0  0  0  0  0  0
  -26.0532  -25.9531   19.0022 H   0  0  0  0  0  0
  -23.9799  -27.2894   19.0196 H   0  0  0  0  0  0
  -23.7271  -30.5899   19.4017 H   0  0  0  0  0  0
  -22.7401  -29.2374   19.8714 H   0  0  0  0  0  0
  -25.1261  -36.1980   25.0834 H   0  0  0  0  0  0
  -20.9945  -28.3158   24.1506 H   0  0  0  0  0  0
  -20.5774  -26.2228   23.3614 H   0  0  0  0  0  0
  -21.6693  -26.7490   22.1245 H   0  0  0  0  0  0
  -19.6976  -25.6282   21.1213 H   0  0  0  0  0  0
  -19.6710  -27.3197   20.6785 H   0  0  0  0  0  0
  -17.4253  -26.6753   21.3965 H   0  0  0  0  0  0
  -18.0264  -25.9990   22.8952 H   0  0  0  0  0  0
  -19.7921  -30.7251   24.2324 H   0  0  0  0  0  0
  -17.4981  -31.6264   24.5157 H   0  0  0  0  0  0
  -15.5334  -30.2946   23.7641 H   0  0  0  0  0  0
  -15.8669  -28.0786   22.7064 H   0  0  0  0  0  0
  -24.5918  -30.7046   25.7757 H   0  0  0  0  0  0
  -24.8913  -32.2872   26.4863 H   0  0  0  0  0  0
  -25.8089  -30.8884   27.0202 H   0  0  0  0  0  0
  -26.2841  -29.6812   24.1100 H   0  0  0  0  0  0
  -27.4109  -29.7246   25.4457 H   0  0  0  0  0  0
  -27.8653  -30.4365   23.9152 H   0  0  0  0  0  0
  -27.2725  -33.3602   26.2033 H   0  0  0  0  0  0
  -28.3865  -32.6867   25.0241 H   0  0  0  0  0  0
  -28.0758  -31.8406   26.5333 H   0  0  0  0  0  0
  -28.2610  -38.0076   24.7511 H   0  0  0  0  0  0
  -28.1053  -36.2603   24.6300 H   0  0  0  0  0  0
  -27.2283  -37.1457   25.8871 H   0  0  0  0  0  0
  -20.9392  -29.8741   21.7003 H   0  0  0  0  0  0
  -26.0181  -38.2870   24.1425 H   0  0  0  0  0  0
  -28.6723  -19.5650   24.6605 H   0  0  0  0  0  0
  -29.9318  -18.9820   19.8699 H   0  0  0  0  0  0
  -29.2398  -16.5618   24.3434 H   0  0  0  0  0  0
  -30.5455  -17.5712   24.9739 H   0  0  0  0  0  0
  -31.5935  -16.9959   21.0922 H   0  0  0  0  0  0
  -31.0250  -15.3391   23.3757 H   0  0  0  0  0  0
  -27.4931  -21.5008   24.2275 H   0  0  0  0  0  0
  -27.0760  -22.0021   22.6013 H   0  0  0  0  0  0
  -28.6115  -22.5197   23.3579 H   0  0  0  0  0  0
  -27.5766  -24.5769   22.7745 H   0  0  0  0  0  0
  -26.3667  -25.2909   21.7269 H   0  0  0  0  0  0
  -27.4725  -26.3182   22.6344 H   0  0  0  0  0  0
  -27.6729  -21.3957   19.9865 H   0  0  0  0  0  0
  -29.3049  -21.3003   19.3788 H   0  0  0  0  0  0
  -28.8095  -24.1659   19.0979 H   0  0  0  0  0  0
  -27.2864  -23.7795   19.8621 H   0  0  0  0  0  0
  -29.3898  -25.4005   21.3338 H   0  0  0  0  0  0
  -29.0767  -15.4188   21.3883 H   0  0  0  0  0  0
  -30.0026  -23.0000   20.7673 H   0  0  0  0  0  0
  -28.6998  -22.8552   21.7251 H   0  0  0  0  0  0
  -32.4457  -17.7550   23.2002 H   0  0  0  0  0  0
  1 25  1  0  0  0
  1 30  2  0  0  0
  1 85  1  0  0  0
  2  3  1  0  0  0
  2 25  1  0  0  0
  2 88  1  0  0  0
  2 89  1  0  0  0
  3  4  1  0  0  0
  3 90  1  0  0  0
  3 91  1  0  0  0
  4  5  1  0  0  0
  4 92  1  0  0  0
  4 93  1  0  0  0
  5  6  1  0  0  0
  5 26  1  0  0  0
  5 94  1  0  0  0
  6 25  1  0  0  0
  6 95  1  0  0  0
  6 96  1  0  0  0
  7  8  2  0  0  0
  7 26  1  0  0  0
  7 29  1  0  0  0
  8  9  1  0  0  0
  8 22  1  0  0  0
  9 10  1  0  0  0
  9 27  2  0  0  0
 10 11  2  0  0  0
 10 15  1  0  0  0
 11 12  1  0  0  0
 11 97  1  0  0  0
 12 13  2  0  0  0
 12 98  1  0  0  0
 13 14  1  0  0  0
 13 31  1  0  0  0
 14 15  2  0  0  0
 14 99  1  0  0  0
 15100  1  0  0  0
 16 17  2  0  0  0
 16 21  1  0  0  0
 16 31  1  0  0  0
 17 18  1  0  0  0
 17101  1  0  0  0
 18 19  2  0  0  0
 18102  1  0  0  0
 19 20  1  0  0  0
 19 24  1  0  0  0
 20 21  2  0  0  0
 20103  1  0  0  0
 21 23  1  0  0  0
 22 28  1  0  0  0
 22 32  2  0  0  0
 26 27  1  0  0  0
 28104  1  0  0  0
 28105  1  0  0  0
 29106  1  0  0  0
 29107  1  0  0  0
 33 34  1  0  0  0
 33 66  1  0  0  0
 33 70  2  0  0  0
 34 36  1  0  0  0
 34 59  1  0  0  0
 34108  1  0  0  0
 35 44  2  0  0  0
 35 45  1  0  0  0
 35 68  1  0  0  0
 36 56  1  0  0  0
 36109  1  0  0  0
 37 39  1  0  0  0
 37 47  1  0  0  0
 37 66  1  0  0  0
 37110  1  0  0  0
 38 43  2  0  0  0
 38 46  1  0  0  0
 38 47  1  0  0  0
 39 64  1  0  0  0
 39 67  2  0  0  0
 40 52  1  0  0  0
 40 53  2  0  0  0
 40 58  1  0  0  0
 41111  1  0  0  0
 41112  1  0  0  0
 41113  1  0  0  0
 41 48  1  0  0  0
 42 43  1  0  0  0
 42 66  1  0  0  0
 42114  1  0  0  0
 42115  1  0  0  0
 43 44  1  0  0  0
 44116  1  0  0  0
 45 46  2  0  0  0
 45117  1  0  0  0
 46118  1  0  0  0
 47119  1  0  0  0
 47120  1  0  0  0
 48 56  1  0  0  0
 48 65  1  0  0  0
 48121  1  0  0  0
 49 50  1  0  0  0
 49 53  1  0  0  0
 49 64  1  0  0  0
 49122  1  0  0  0
 50 51  1  0  0  0
 50123  1  0  0  0
 50124  1  0  0  0
 51 52  1  0  0  0
 51125  1  0  0  0
 51126  1  0  0  0
 52127  1  0  0  0
 52128  1  0  0  0
 53 54  1  0  0  0
 54 55  2  0  0  0
 54129  1  0  0  0
 55 57  1  0  0  0
 55130  1  0  0  0
 56 69  2  0  0  0
 57 58  2  0  0  0
 57131  1  0  0  0
 58132  1  0  0  0
 59 60  1  0  0  0
 59 61  1  0  0  0
 59 62  1  0  0  0
 60133  1  0  0  0
 60134  1  0  0  0
 60135  1  0  0  0
 61136  1  0  0  0
 61137  1  0  0  0
 61138  1  0  0  0
 62139  1  0  0  0
 62140  1  0  0  0
 62141  1  0  0  0
 63 65  1  0  0  0
 63142  1  0  0  0
 63143  1  0  0  0
 63144  1  0  0  0
 64145  1  0  0  0
 65146  1  0  0  0
 68 84  1  0  0  0
 71 73  2  0  0  0
 71 75  1  0  0  0
 71147  1  0  0  0
 72 74  2  0  0  0
 72 76  1  0  0  0
 72148  1  0  0  0
 73 74  1  0  0  0
 73 77  1  0  0  0
 74 78  1  0  0  0
 75 76  2  0  0  0
 75 80  1  0  0  0
 76 82  1  0  0  0
 77 79  1  0  0  0
 77149  1  0  0  0
 77150  1  0  0  0
 78 79  1  0  0  0
 78 85  1  0  0  0
 78151  1  0  0  0
 79 87  1  0  0  0
 79152  1  0  0  0
 80153  1  0  0  0
 80154  1  0  0  0
 80155  1  0  0  0
 81156  1  0  0  0
 81157  1  0  0  0
 81158  1  0  0  0
 81 84  1  0  0  0
 82 86  1  0  0  0
 82159  1  0  0  0
 82160  1  0  0  0
 83 84  1  0  0  0
 83 86  1  0  0  0
 83161  1  0  0  0
 83162  1  0  0  0
 84163  1  0  0  0
 85164  1  0  0  0
 86165  1  0  0  0
 86166  1  0  0  0
 87167  1  0  0  0
M  CHG  1  86   1
M  ISO  4   1 100  68 101  84 101  85 100
M  END
> <chiral flag>
0

> <version>
0

> <s_m_source_file>
/data/baiqing/PycharmProjects/Reinvent-master-3.2/result/LINK_invent/BTK/process_docking_weight1_custom_sum_contain_oxygen_bond_distance_aromatic_linkinvent_7_9_3/rearranged_h_0161.sdf

> <i_m_source_file_index>
91

> <r_mmod_Potential_Energy-OPLS-2005>
-245.848831176758

> <r_mmod_Stretch_Energy-OPLS-2005>
57.5152549743652

> <r_mmod_Bend_Energy-OPLS-2005>
158.324111938477

> <r_mmod_Torsional_Energy-OPLS-2005>
223.252105712891

> <r_mmod_Improper_Torsional_Energy-OPLS-2005>
4.10880756378174

> <r_mmod_Van_der_Waal_Energy-OPLS-2005>
145.021362304688

> <r_mmod_Electrostatic_Energy-OPLS-2005>
-390.740875244141

> <r_mmod_Solvation_Energy-OPLS-2005>
-465.349395751953

> <b_mmod_Minimization_Converged-OPLS-2005>
0

> <r_mmod_RMS_Derivative-OPLS-2005>
4.4155330657959

$$$$
91
                    3D
 Structure written by MMmdl.
182191  0  0  1  0            999 V2000
  -30.7350  -14.4356   20.6139 C   0  0  0  0  0  0
  -30.4180  -12.3025   19.4152 C   0  0  0  0  0  0
  -29.4893  -12.5106   18.2028 C   0  0  0  0  0  0
  -28.0121  -12.3742   18.6181 C   0  0  0  0  0  0
  -27.6639  -13.2097   19.8792 C   0  0  2  0  0  0
  -28.7047  -12.9816   20.9984 C   0  0  0  0  0  0
  -25.2585  -13.8169   20.5674 C   0  0  0  0  0  0
  -24.1841  -13.0441   20.9184 C   0  0  0  0  0  0
  -24.6403  -11.6913   20.8750 C   0  0  0  0  0  0
  -23.9073  -10.4296   21.0414 C   0  0  0  0  0  0
  -24.3619   -9.4211   21.9193 C   0  0  0  0  0  0
  -23.6292   -8.2247   22.0762 C   0  0  0  0  0  0
  -22.4276   -8.0286   21.3547 C   0  0  0  0  0  0
  -21.9918   -9.0262   20.4648 C   0  0  0  0  0  0
  -22.7248  -10.2141   20.3061 C   0  0  0  0  0  0
  -21.6851   -6.0739   22.5283 C   0  0  0  0  0  0
  -21.4007   -6.5644   23.8214 C   0  0  0  0  0  0
  -21.3654   -5.6797   24.9176 C   0  0  0  0  0  0
  -21.6044   -4.3059   24.7227 C   0  0  0  0  0  0
  -21.8820   -3.8151   23.4348 C   0  0  0  0  0  0
  -21.9193   -4.6968   22.3405 C   0  0  0  0  0  0
  -22.7863  -13.5241   21.1843 C   0  0  0  0  0  0
  -22.1663   -4.2155   21.0983 F   0  0  0  0  0  0
  -21.5630   -3.4541   25.7736 F   0  0  0  0  0  0
  -30.0390  -13.2789   20.4491 N   0  0  0  0  0  0
  -26.3036  -12.9350   20.3391 N   0  0  0  0  0  0
  -25.9333  -11.6505   20.5787 N   0  0  0  0  0  0
  -22.0506  -12.8238   22.0407 N   0  0  0  0  0  0
  -25.4284  -15.1876   20.4041 N   0  0  0  0  0  0
  -31.8232  -14.6426   20.0719 O   0  0  0  0  0  0
  -21.6638   -6.8883   21.4245 O   0  0  0  0  0  0
  -22.3549  -14.5545   20.6690 O   0  0  0  0  0  0
  -24.6155  -31.8680   23.2116 C   0  0  0  0  0  0
  -25.9045  -32.4821   23.8403 C   0  0  1  0  0  0
  -27.2279  -27.4161   20.0810 C   0  0  0  0  0  0
  -25.5896  -33.8619   24.2329 N   0  0  0  0  0  0
  -23.4033  -30.4943   21.5532 C   0  0  2  0  0  0
  -24.8458  -28.9651   20.1125 C   0  0  0  0  0  0
  -22.7415  -29.4657   22.4987 C   0  0  0  0  0  0
  -18.0272  -28.1375   22.8494 C   0  0  0  0  0  0
  -24.1476  -36.7303   23.2643 C   0  0  0  0  0  0
  -25.9359  -30.8245   21.3713 C   0  0  0  0  0  0
  -26.0079  -29.4602   20.7141 C   0  0  0  0  0  0
  -27.1952  -28.6900   20.7024 C   0  0  0  0  0  0
  -26.0395  -26.9507   19.4640 C   0  0  0  0  0  0
  -24.8574  -27.7100   19.4884 C   0  0  0  0  0  0
  -23.6108  -29.8339   20.1654 C   0  0  0  0  0  0
  -25.4103  -36.3108   24.0339 C   0  0  1  0  0  0
  -20.5865  -28.3658   23.1313 C   0  0  2  0  0  0
  -20.6761  -26.9394   22.5412 C   0  0  0  0  0  0
  -19.5732  -26.6371   21.5215 C   0  0  0  0  0  0
  -18.1913  -26.7919   22.1629 C   0  0  0  0  0  0
  -19.1525  -28.8833   23.2898 C   0  0  0  0  0  0
  -18.9458  -30.1444   23.8898 C   0  0  0  0  0  0
  -17.6462  -30.6587   24.0560 C   0  0  0  0  0  0
  -25.9035  -34.9474   23.5133 C   0  0  0  0  0  0
  -16.5349  -29.9092   23.6327 C   0  0  0  0  0  0
  -16.7263  -28.6507   23.0349 C   0  0  0  0  0  0
  -26.4465  -31.6601   25.0736 C   0  0  0  0  0  0
  -25.3719  -31.3685   26.1469 C   0  0  0  0  0  0
  -27.0322  -30.3052   24.6119 C   0  0  0  0  0  0
  -27.6030  -32.4328   25.7507 C   0  0  0  0  0  0
  -27.5573  -37.1805   24.8475 C   0  0  0  0  0  0
  -21.4143  -29.3028   22.3720 N   0  0  0  0  0  0
  -26.4287  -37.3795   23.9418 N   0  0  0  0  0  0
  -24.6700  -31.0766   22.1033 N   0  0  0  0  0  0
  -23.4186  -28.8193   23.3024 O   0  0  0  0  0  0
  -28.4091  -26.6900   20.1352 O   0  0  0  0  0  0
  -26.5604  -34.8927   22.4699 O   0  0  0  0  0  0
  -23.5344  -32.1450   23.7494 O   0  0  0  0  0  0
  -28.3958  -23.5280   21.2219 C   0  0  0  0  0  0
  -30.5869  -24.0441   20.2630 C   0  0  0  0  0  0
  -28.9649  -22.4460   21.9563 C   0  0  0  0  0  0
  -31.1731  -23.0212   21.0650 C   0  0  0  0  0  0
  -29.1941  -24.3137   20.3434 C   0  0  0  0  0  0
  -30.3571  -22.1440   21.8493 C   0  0  0  0  0  0
  -30.7839  -17.0426   23.0535 C   0  0  0  0  0  0
  -31.3038  -18.4708   23.2445 C   0  0  0  0  0  0
  -30.6307  -16.7554   21.5576 C   0  0  2  0  0  0
  -30.4075  -19.5268   22.5485 C   0  0  1  0  0  0
  -29.7408  -17.8390   20.8783 C   0  0  0  0  0  0
  -26.9052  -23.8294   21.3989 C   0  0  0  0  0  0
  -31.4428  -24.8665   19.2923 C   0  0  0  0  0  0
  -28.0540  -21.6302   22.8776 C   0  0  0  0  0  0
  -32.7029  -22.9118   21.1033 C   0  0  0  0  0  0
  -29.8383  -17.7182   19.3491 C   0  0  0  0  0  0
  -28.2537  -17.7532   21.2855 C   0  0  0  0  0  0
  -31.3632  -21.4286   24.0738 C   0  0  0  0  0  0
  -28.5542  -25.4190   19.4683 C   0  0  0  0  0  0
  -31.0264  -20.9705   22.6362 C   0  0  2  0  0  0
  -30.1320  -15.3875   21.3438 N   0  0  0  0  0  0
  -30.2593  -19.1499   21.1698 O   0  0  0  0  0  0
  -31.4616  -12.3972   19.1094 H   0  0  0  0  0  0
  -30.3168  -11.2889   19.8063 H   0  0  0  0  0  0
  -29.7234  -11.7873   17.4207 H   0  0  0  0  0  0
  -29.6616  -13.4973   17.7698 H   0  0  0  0  0  0
  -27.8182  -11.3183   18.8096 H   0  0  0  0  0  0
  -27.3604  -12.6562   17.7901 H   0  0  0  0  0  0
  -27.7131  -14.2600   19.5899 H   0  0  0  0  0  0
  -28.6764  -11.9448   21.3365 H   0  0  0  0  0  0
  -28.4632  -13.5781   21.8785 H   0  0  0  0  0  0
  -25.2761   -9.5683   22.4775 H   0  0  0  0  0  0
  -23.9998   -7.4637   22.7486 H   0  0  0  0  0  0
  -21.0852   -8.8785   19.8948 H   0  0  0  0  0  0
  -22.3714  -10.9682   19.6172 H   0  0  0  0  0  0
  -21.1994   -7.6150   23.9719 H   0  0  0  0  0  0
  -21.1473   -6.0524   25.9079 H   0  0  0  0  0  0
  -22.0603   -2.7616   23.2848 H   0  0  0  0  0  0
  -22.4115  -11.9895   22.4791 H   0  0  0  0  0  0
  -21.1130  -13.1276   22.2621 H   0  0  0  0  0  0
  -24.6607  -15.8421   20.5054 H   0  0  0  0  0  0
  -26.2780  -15.6222   20.0686 H   0  0  0  0  0  0
  -26.7112  -32.5523   23.1159 H   0  0  0  0  0  0
  -25.0019  -33.9774   25.0455 H   0  0  0  0  0  0
  -22.6923  -31.3121   21.4180 H   0  0  0  0  0  0
  -23.3744  -35.9631   23.3313 H   0  0  0  0  0  0
  -24.3557  -36.8913   22.2055 H   0  0  0  0  0  0
  -23.7223  -37.6503   23.6663 H   0  0  0  0  0  0
  -26.0555  -31.5915   20.6048 H   0  0  0  0  0  0
  -26.8217  -30.8718   21.9931 H   0  0  0  0  0  0
  -28.0899  -29.0661   21.1791 H   0  0  0  0  0  0
  -25.9622  -26.0044   18.9566 H   0  0  0  0  0  0
  -23.9630  -27.3249   19.0179 H   0  0  0  0  0  0
  -23.7219  -30.6118   19.4092 H   0  0  0  0  0  0
  -22.7331  -29.2576   19.8680 H   0  0  0  0  0  0
  -25.1276  -36.1968   25.0832 H   0  0  0  0  0  0
  -20.9958  -28.3220   24.1433 H   0  0  0  0  0  0
  -20.5669  -26.2262   23.3598 H   0  0  0  0  0  0
  -21.6630  -26.7441   22.1198 H   0  0  0  0  0  0
  -19.6885  -25.6282   21.1240 H   0  0  0  0  0  0
  -19.6664  -27.3181   20.6743 H   0  0  0  0  0  0
  -17.4183  -26.6675   21.4030 H   0  0  0  0  0  0
  -18.0308  -26.0061   22.9023 H   0  0  0  0  0  0
  -19.7939  -30.7260   24.2257 H   0  0  0  0  0  0
  -17.5028  -31.6270   24.5161 H   0  0  0  0  0  0
  -15.5353  -30.3004   23.7648 H   0  0  0  0  0  0
  -15.8660  -28.0836   22.7057 H   0  0  0  0  0  0
  -24.5906  -30.7026   25.7783 H   0  0  0  0  0  0
  -24.8892  -32.2831   26.4924 H   0  0  0  0  0  0
  -25.8062  -30.8840   27.0223 H   0  0  0  0  0  0
  -26.2882  -29.6796   24.1174 H   0  0  0  0  0  0
  -27.4101  -29.7296   25.4577 H   0  0  0  0  0  0
  -27.8709  -30.4379   23.9281 H   0  0  0  0  0  0
  -27.2638  -33.3614   26.2109 H   0  0  0  0  0  0
  -28.3832  -32.6907   25.0335 H   0  0  0  0  0  0
  -28.0714  -31.8442   26.5406 H   0  0  0  0  0  0
  -28.2601  -38.0095   24.7536 H   0  0  0  0  0  0
  -28.1061  -36.2628   24.6301 H   0  0  0  0  0  0
  -27.2284  -37.1451   25.8875 H   0  0  0  0  0  0
  -20.9299  -29.8767   21.6961 H   0  0  0  0  0  0
  -26.0173  -38.2868   24.1435 H   0  0  0  0  0  0
  -29.8357  -16.9176   23.5760 H   0  0  0  0  0  0
  -31.4806  -16.3351   23.5047 H   0  0  0  0  0  0
  -32.3228  -18.5378   22.8609 H   0  0  0  0  0  0
  -31.3627  -18.6661   24.3146 H   0  0  0  0  0  0
  -31.6307  -16.8478   21.1281 H   0  0  0  0  0  0
  -29.4403  -19.4846   23.0364 H   0  0  0  0  0  0
  -26.7183  -24.1894   22.4110 H   0  0  0  0  0  0
  -26.3083  -22.9318   21.2343 H   0  0  0  0  0  0
  -26.5001  -24.5876   20.7408 H   0  0  0  0  0  0
  -32.4846  -24.5687   19.2131 H   0  0  0  0  0  0
  -31.4213  -25.9225   19.5643 H   0  0  0  0  0  0
  -31.0642  -24.7617   18.2760 H   0  0  0  0  0  0
  -27.2077  -22.1905   23.2675 H   0  0  0  0  0  0
  -28.5620  -21.2896   23.7733 H   0  0  0  0  0  0
  -27.6581  -20.7648   22.3458 H   0  0  0  0  0  0
  -33.1733  -23.8933   21.0666 H   0  0  0  0  0  0
  -33.0740  -22.3108   20.2727 H   0  0  0  0  0  0
  -33.0940  -22.5042   22.0325 H   0  0  0  0  0  0
  -29.4342  -16.7698   18.9939 H   0  0  0  0  0  0
  -30.8736  -17.7792   19.0124 H   0  0  0  0  0  0
  -29.2857  -18.5163   18.8523 H   0  0  0  0  0  0
  -27.8052  -16.8205   20.9456 H   0  0  0  0  0  0
  -27.6797  -18.5673   20.8425 H   0  0  0  0  0  0
  -28.1036  -17.8005   22.3626 H   0  0  0  0  0  0
  -31.8566  -22.4004   24.0660 H   0  0  0  0  0  0
  -32.0476  -20.7452   24.5739 H   0  0  0  0  0  0
  -30.4819  -21.5269   24.7039 H   0  0  0  0  0  0
  -27.6638  -24.9897   19.0268 H   0  0  0  0  0  0
  -29.1430  -25.6260   18.5797 H   0  0  0  0  0  0
  -31.9800  -20.7783   22.1540 H   0  0  0  0  0  0
  -29.2310  -15.1581   21.7334 H   0  0  0  0  0  0
  1 25  1  0  0  0
  1 30  2  0  0  0
  1 91  1  0  0  0
  2  3  1  0  0  0
  2 25  1  0  0  0
  2 93  1  0  0  0
  2 94  1  0  0  0
  3  4  1  0  0  0
  3 95  1  0  0  0
  3 96  1  0  0  0
  4  5  1  0  0  0
  4 97  1  0  0  0
  4 98  1  0  0  0
  5  6  1  0  0  0
  5 26  1  0  0  0
  5 99  1  0  0  0
  6 25  1  0  0  0
  6100  1  0  0  0
  6101  1  0  0  0
  7  8  2  0  0  0
  7 26  1  0  0  0
  7 29  1  0  0  0
  8  9  1  0  0  0
  8 22  1  0  0  0
  9 10  1  0  0  0
  9 27  2  0  0  0
 10 11  2  0  0  0
 10 15  1  0  0  0
 11 12  1  0  0  0
 11102  1  0  0  0
 12 13  2  0  0  0
 12103  1  0  0  0
 13 14  1  0  0  0
 13 31  1  0  0  0
 14 15  2  0  0  0
 14104  1  0  0  0
 15105  1  0  0  0
 16 17  2  0  0  0
 16 21  1  0  0  0
 16 31  1  0  0  0
 17 18  1  0  0  0
 17106  1  0  0  0
 18 19  2  0  0  0
 18107  1  0  0  0
 19 20  1  0  0  0
 19 24  1  0  0  0
 20 21  2  0  0  0
 20108  1  0  0  0
 21 23  1  0  0  0
 22 28  1  0  0  0
 22 32  2  0  0  0
 26 27  1  0  0  0
 28109  1  0  0  0
 28110  1  0  0  0
 29111  1  0  0  0
 29112  1  0  0  0
 33 34  1  0  0  0
 33 66  1  0  0  0
 33 70  2  0  0  0
 34 36  1  0  0  0
 34 59  1  0  0  0
 34113  1  0  0  0
 35 44  2  0  0  0
 35 45  1  0  0  0
 35 68  1  0  0  0
 36 56  1  0  0  0
 36114  1  0  0  0
 37 39  1  0  0  0
 37 47  1  0  0  0
 37 66  1  0  0  0
 37115  1  0  0  0
 38 43  2  0  0  0
 38 46  1  0  0  0
 38 47  1  0  0  0
 39 64  1  0  0  0
 39 67  2  0  0  0
 40 52  1  0  0  0
 40 53  2  0  0  0
 40 58  1  0  0  0
 41116  1  0  0  0
 41117  1  0  0  0
 41118  1  0  0  0
 41 48  1  0  0  0
 42 43  1  0  0  0
 42 66  1  0  0  0
 42119  1  0  0  0
 42120  1  0  0  0
 43 44  1  0  0  0
 44121  1  0  0  0
 45 46  2  0  0  0
 45122  1  0  0  0
 46123  1  0  0  0
 47124  1  0  0  0
 47125  1  0  0  0
 48 56  1  0  0  0
 48 65  1  0  0  0
 48126  1  0  0  0
 49 50  1  0  0  0
 49 53  1  0  0  0
 49 64  1  0  0  0
 49127  1  0  0  0
 50 51  1  0  0  0
 50128  1  0  0  0
 50129  1  0  0  0
 51 52  1  0  0  0
 51130  1  0  0  0
 51131  1  0  0  0
 52132  1  0  0  0
 52133  1  0  0  0
 53 54  1  0  0  0
 54 55  2  0  0  0
 54134  1  0  0  0
 55 57  1  0  0  0
 55135  1  0  0  0
 56 69  2  0  0  0
 57 58  2  0  0  0
 57136  1  0  0  0
 58137  1  0  0  0
 59 60  1  0  0  0
 59 61  1  0  0  0
 59 62  1  0  0  0
 60138  1  0  0  0
 60139  1  0  0  0
 60140  1  0  0  0
 61141  1  0  0  0
 61142  1  0  0  0
 61143  1  0  0  0
 62144  1  0  0  0
 62145  1  0  0  0
 62146  1  0  0  0
 63 65  1  0  0  0
 63147  1  0  0  0
 63148  1  0  0  0
 63149  1  0  0  0
 64150  1  0  0  0
 65151  1  0  0  0
 68 89  1  0  0  0
 71 73  2  0  0  0
 71 75  1  0  0  0
 71 82  1  0  0  0
 72 74  1  0  0  0
 72 75  2  0  0  0
 72 83  1  0  0  0
 73 76  1  0  0  0
 73 84  1  0  0  0
 74 76  2  0  0  0
 74 85  1  0  0  0
 75 89  1  0  0  0
 76 90  1  0  0  0
 77 78  1  0  0  0
 77 79  1  0  0  0
 77152  1  0  0  0
 77153  1  0  0  0
 78154  1  0  0  0
 78155  1  0  0  0
 78 80  1  0  0  0
 79 81  1  0  0  0
 79 91  1  0  0  0
 79156  1  0  0  0
 80 90  1  0  0  0
 80 92  1  0  0  0
 80157  1  0  0  0
 81 86  1  0  0  0
 81 87  1  0  0  0
 81 92  1  0  0  0
 82158  1  0  0  0
 82159  1  0  0  0
 82160  1  0  0  0
 83161  1  0  0  0
 83162  1  0  0  0
 83163  1  0  0  0
 84164  1  0  0  0
 84165  1  0  0  0
 84166  1  0  0  0
 85167  1  0  0  0
 85168  1  0  0  0
 85169  1  0  0  0
 86170  1  0  0  0
 86171  1  0  0  0
 86172  1  0  0  0
 87173  1  0  0  0
 87174  1  0  0  0
 87175  1  0  0  0
 88176  1  0  0  0
 88177  1  0  0  0
 88178  1  0  0  0
 88 90  1  0  0  0
 89179  1  0  0  0
 89180  1  0  0  0
 90181  1  0  0  0
 91182  1  0  0  0
M  ISO  4   1 100  68 101  89 101  91 100
M  END
> <chiral flag>
0

> <version>
0

> <s_m_source_file>
/data/baiqing/PycharmProjects/Reinvent-master-3.2/result/LINK_invent/BTK/process_docking_weight1_custom_sum_contain_oxygen_bond_distance_aromatic_linkinvent_7_9_3/rearranged_h_0161.sdf

> <i_m_source_file_index>
92

> <r_mmod_Potential_Energy-OPLS-2005>
-69.810661315918

> <r_mmod_Stretch_Energy-OPLS-2005>
56.1791458129883

> <r_mmod_Bend_Energy-OPLS-2005>
139.265533447266

> <r_mmod_Torsional_Energy-OPLS-2005>
230.787094116211

> <r_mmod_Improper_Torsional_Energy-OPLS-2005>
2.56163740158081

> <r_mmod_Van_der_Waal_Energy-OPLS-2005>
194.534469604492

> <r_mmod_Electrostatic_Energy-OPLS-2005>
-501.135955810547

> <r_mmod_Solvation_Energy-OPLS-2005>
-204.422225952148

> <b_mmod_Minimization_Converged-OPLS-2005>
0

> <r_mmod_RMS_Derivative-OPLS-2005>
0.728630602359772

$$$$
92
                    3D
 Structure written by MMmdl.
155164  0  0  1  0            999 V2000
  -30.6572  -14.8362   20.4301 C   0  0  0  0  0  0
  -30.4135  -12.5215   19.4857 C   0  0  0  0  0  0
  -29.5016  -12.4944   18.2432 C   0  0  0  0  0  0
  -28.0378  -12.2883   18.6686 C   0  0  0  0  0  0
  -27.6217  -13.2257   19.8305 C   0  0  2  0  0  0
  -28.6700  -13.2844   20.9646 C   0  0  0  0  0  0
  -25.2467  -13.8166   20.5728 C   0  0  0  0  0  0
  -24.1765  -13.0418   20.9238 C   0  0  0  0  0  0
  -24.6356  -11.6894   20.8777 C   0  0  0  0  0  0
  -23.9040  -10.4281   21.0422 C   0  0  0  0  0  0
  -24.3604   -9.4200   21.9192 C   0  0  0  0  0  0
  -23.6289   -8.2231   22.0756 C   0  0  0  0  0  0
  -22.4273   -8.0266   21.3544 C   0  0  0  0  0  0
  -21.9901   -9.0238   20.4649 C   0  0  0  0  0  0
  -22.7217  -10.2124   20.3063 C   0  0  0  0  0  0
  -21.6855   -6.0727   22.5270 C   0  0  0  0  0  0
  -21.4012   -6.5634   23.8202 C   0  0  0  0  0  0
  -21.3662   -5.6789   24.9167 C   0  0  0  0  0  0
  -21.6042   -4.3047   24.7219 C   0  0  0  0  0  0
  -21.8819   -3.8139   23.4341 C   0  0  0  0  0  0
  -21.9195   -4.6957   22.3396 C   0  0  0  0  0  0
  -22.7792  -13.5208   21.1884 C   0  0  0  0  0  0
  -22.1667   -4.2143   21.0974 F   0  0  0  0  0  0
  -21.5635   -3.4532   25.7733 F   0  0  0  0  0  0
  -29.9545  -13.6420   20.3526 N   0  0  0  0  0  0
  -26.2850  -12.9342   20.3257 N   0  0  0  0  0  0
  -25.9279  -11.6499   20.5784 N   0  0  0  0  0  0
  -22.0438  -12.8205   22.0439 N   0  0  0  0  0  0
  -25.4162  -15.1893   20.4153 N   0  0  0  0  0  0
  -31.8677  -14.7852   20.1923 O   0  0  0  0  0  0
  -21.6640   -6.8864   21.4232 O   0  0  0  0  0  0
  -22.3480  -14.5509   20.6722 O   0  0  0  0  0  0
  -24.6356  -31.8515   23.1960 C   0  0  0  0  0  0
  -25.9164  -32.4732   23.8315 C   0  0  1  0  0  0
  -27.2071  -27.2074   20.1332 C   0  0  0  0  0  0
  -25.5941  -33.8538   24.2229 N   0  0  0  0  0  0
  -23.4344  -30.4750   21.5406 C   0  0  2  0  0  0
  -24.8805  -28.9197   20.1063 C   0  0  0  0  0  0
  -22.7529  -29.4583   22.4891 C   0  0  0  0  0  0
  -18.0296  -28.1391   22.8482 C   0  0  0  0  0  0
  -24.1492  -36.7277   23.2639 C   0  0  0  0  0  0
  -25.9862  -30.7451   21.3878 C   0  0  0  0  0  0
  -26.0545  -29.3651   20.7270 C   0  0  0  0  0  0
  -27.2178  -28.5202   20.7331 C   0  0  0  0  0  0
  -26.0157  -26.8609   19.4540 C   0  0  0  0  0  0
  -24.8700  -27.6784   19.4570 C   0  0  0  0  0  0
  -23.6551  -29.8133   20.1554 C   0  0  0  0  0  0
  -25.4119  -36.3057   24.0320 C   0  0  1  0  0  0
  -20.5905  -28.3706   23.1256 C   0  0  2  0  0  0
  -20.6786  -26.9418   22.5406 C   0  0  0  0  0  0
  -19.5761  -26.6380   21.5213 C   0  0  0  0  0  0
  -18.1940  -26.7929   22.1623 C   0  0  0  0  0  0
  -19.1550  -28.8865   23.2862 C   0  0  0  0  0  0
  -18.9471  -30.1463   23.8882 C   0  0  0  0  0  0
  -17.6470  -30.6589   24.0559 C   0  0  0  0  0  0
  -25.9065  -34.9430   23.5082 C   0  0  0  0  0  0
  -16.5362  -29.9086   23.6333 C   0  0  0  0  0  0
  -16.7282  -28.6505   23.0355 C   0  0  0  0  0  0
  -26.4507  -31.6582   25.0734 C   0  0  0  0  0  0
  -25.3702  -31.3750   26.1432 C   0  0  0  0  0  0
  -27.0372  -30.2991   24.6274 C   0  0  0  0  0  0
  -27.6040  -32.4342   25.7517 C   0  0  0  0  0  0
  -27.5579  -37.1793   24.8462 C   0  0  0  0  0  0
  -21.4231  -29.3046   22.3639 N   0  0  0  0  0  0
  -26.4288  -37.3762   23.9409 N   0  0  0  0  0  0
  -24.7047  -31.0434   22.0969 N   0  0  0  0  0  0
  -23.4208  -28.8125   23.3007 O   0  0  0  0  0  0
  -28.2676  -26.2549   20.2293 O   0  0  0  0  0  0
  -26.5649  -34.8913   22.4660 O   0  0  0  0  0  0
  -23.5495  -32.1365   23.7225 O   0  0  0  0  0  0
  -28.2117  -19.4895   20.1895 C   0  0  0  0  0  0
  -28.7591  -16.7152   20.2673 C   0  0  0  0  0  0
  -30.3977  -20.0635   20.3640 C   0  0  0  0  0  0
  -30.8774  -17.3631   20.9077 C   0  0  0  0  0  0
  -28.9606  -18.1944   19.7051 C   0  0  2  0  0  0
  -30.3953  -18.5270   19.9571 C   0  0  1  0  0  0
  -28.8211  -23.4661   20.4861 C   0  0  0  0  0  0
  -28.6070  -22.0085   19.7558 C   0  0  0  0  0  0
  -28.0285  -24.7833   19.8915 C   0  0  0  0  0  0
  -29.0100  -20.6019   20.2937 N   0  0  0  0  0  0
  -30.0780  -16.1124   20.6533 N   0  0  0  0  0  0
  -26.9825  -19.5113   20.2855 O   0  0  0  0  0  0
  -31.4530  -12.6260   19.1713 H   0  0  0  0  0  0
  -30.3637  -11.5734   20.0235 H   0  0  0  0  0  0
  -29.8105  -11.6987   17.5632 H   0  0  0  0  0  0
  -29.6001  -13.4289   17.6888 H   0  0  0  0  0  0
  -27.9298  -11.2488   18.9787 H   0  0  0  0  0  0
  -27.3714  -12.4218   17.8158 H   0  0  0  0  0  0
  -27.5629  -14.2037   19.3684 H   0  0  0  0  0  0
  -28.7401  -12.3289   21.4866 H   0  0  0  0  0  0
  -28.3848  -14.0282   21.7106 H   0  0  0  0  0  0
  -25.2750   -9.5685   22.4763 H   0  0  0  0  0  0
  -24.0005   -7.4620   22.7472 H   0  0  0  0  0  0
  -21.0833   -8.8747   19.8953 H   0  0  0  0  0  0
  -22.3668  -10.9666   19.6176 H   0  0  0  0  0  0
  -21.2001   -7.6142   23.9703 H   0  0  0  0  0  0
  -21.1490   -6.0522   25.9072 H   0  0  0  0  0  0
  -22.0602   -2.7603   23.2840 H   0  0  0  0  0  0
  -22.4062  -11.9882   22.4848 H   0  0  0  0  0  0
  -21.1053  -13.1226   22.2623 H   0  0  0  0  0  0
  -24.6528  -15.8450   20.5432 H   0  0  0  0  0  0
  -26.2696  -15.6332   20.1043 H   0  0  0  0  0  0
  -26.7232  -32.5359   23.1048 H   0  0  0  0  0  0
  -25.0053  -33.9664   25.0350 H   0  0  0  0  0  0
  -22.7337  -31.2995   21.3945 H   0  0  0  0  0  0
  -23.3755  -35.9606   23.3285 H   0  0  0  0  0  0
  -24.3584  -36.8919   22.2057 H   0  0  0  0  0  0
  -23.7239  -37.6469   23.6680 H   0  0  0  0  0  0
  -26.1380  -31.5046   20.6197 H   0  0  0  0  0  0
  -26.8590  -30.7889   22.0275 H   0  0  0  0  0  0
  -28.1090  -28.8498   21.2490 H   0  0  0  0  0  0
  -25.9278  -25.9263   18.9221 H   0  0  0  0  0  0
  -23.9763  -27.3376   18.9518 H   0  0  0  0  0  0
  -23.7864  -30.5920   19.4029 H   0  0  0  0  0  0
  -22.7709  -29.2531   19.8458 H   0  0  0  0  0  0
  -25.1302  -36.1896   25.0811 H   0  0  0  0  0  0
  -20.9993  -28.3287   24.1378 H   0  0  0  0  0  0
  -20.5690  -26.2318   23.3616 H   0  0  0  0  0  0
  -21.6655  -26.7442   22.1199 H   0  0  0  0  0  0
  -19.6925  -25.6287   21.1256 H   0  0  0  0  0  0
  -19.6698  -27.3179   20.6736 H   0  0  0  0  0  0
  -17.4210  -26.6669   21.4027 H   0  0  0  0  0  0
  -18.0344  -26.0073   22.9025 H   0  0  0  0  0  0
  -19.7948  -30.7284   24.2245 H   0  0  0  0  0  0
  -17.5025  -31.6269   24.5165 H   0  0  0  0  0  0
  -15.5362  -30.2988   23.7662 H   0  0  0  0  0  0
  -15.8681  -28.0820   22.7080 H   0  0  0  0  0  0
  -24.5891  -30.7084   25.7751 H   0  0  0  0  0  0
  -24.8873  -32.2925   26.4808 H   0  0  0  0  0  0
  -25.7994  -30.8958   27.0240 H   0  0  0  0  0  0
  -26.2982  -29.6721   24.1272 H   0  0  0  0  0  0
  -27.4001  -29.7277   25.4827 H   0  0  0  0  0  0
  -27.8884  -30.4249   23.9577 H   0  0  0  0  0  0
  -27.2629  -33.3648   26.2067 H   0  0  0  0  0  0
  -28.3867  -32.6897   25.0363 H   0  0  0  0  0  0
  -28.0689  -31.8490   26.5460 H   0  0  0  0  0  0
  -28.2584  -38.0103   24.7523 H   0  0  0  0  0  0
  -28.1089  -36.2634   24.6270 H   0  0  0  0  0  0
  -27.2302  -37.1419   25.8865 H   0  0  0  0  0  0
  -20.9425  -29.8766   21.6835 H   0  0  0  0  0  0
  -26.0160  -38.2831   24.1416 H   0  0  0  0  0  0
  -28.3039  -16.1286   19.4763 H   0  0  0  0  0  0
  -28.0824  -16.7065   21.1226 H   0  0  0  0  0  0
  -31.0482  -20.6362   19.7009 H   0  0  0  0  0  0
  -30.7795  -20.1936   21.3777 H   0  0  0  0  0  0
  -30.7134  -17.6461   21.9494 H   0  0  0  0  0  0
  -31.9515  -17.2075   20.8004 H   0  0  0  0  0  0
  -28.8022  -18.1651   18.6257 H   0  0  0  0  0  0
  -30.9372  -18.4234   19.0152 H   0  0  0  0  0  0
  -29.8891  -23.6830   20.4811 H   0  0  0  0  0  0
  -28.5522  -23.3660   21.5377 H   0  0  0  0  0  0
  -29.0644  -22.0833   18.7686 H   0  0  0  0  0  0
  -27.5387  -21.9526   19.5409 H   0  0  0  0  0  0
  -26.9900  -24.5572   20.1306 H   0  0  0  0  0  0
  -28.0972  -24.7262   18.8048 H   0  0  0  0  0  0
  1 25  1  0  0  0
  1 30  2  0  0  0
  1 81  1  0  0  0
  2  3  1  0  0  0
  2 25  1  0  0  0
  2 83  1  0  0  0
  2 84  1  0  0  0
  3  4  1  0  0  0
  3 85  1  0  0  0
  3 86  1  0  0  0
  4  5  1  0  0  0
  4 87  1  0  0  0
  4 88  1  0  0  0
  5  6  1  0  0  0
  5 26  1  0  0  0
  5 89  1  0  0  0
  6 25  1  0  0  0
  6 90  1  0  0  0
  6 91  1  0  0  0
  7  8  2  0  0  0
  7 26  1  0  0  0
  7 29  1  0  0  0
  8  9  1  0  0  0
  8 22  1  0  0  0
  9 10  1  0  0  0
  9 27  2  0  0  0
 10 11  2  0  0  0
 10 15  1  0  0  0
 11 12  1  0  0  0
 11 92  1  0  0  0
 12 13  2  0  0  0
 12 93  1  0  0  0
 13 14  1  0  0  0
 13 31  1  0  0  0
 14 15  2  0  0  0
 14 94  1  0  0  0
 15 95  1  0  0  0
 16 17  2  0  0  0
 16 21  1  0  0  0
 16 31  1  0  0  0
 17 18  1  0  0  0
 17 96  1  0  0  0
 18 19  2  0  0  0
 18 97  1  0  0  0
 19 20  1  0  0  0
 19 24  1  0  0  0
 20 21  2  0  0  0
 20 98  1  0  0  0
 21 23  1  0  0  0
 22 28  1  0  0  0
 22 32  2  0  0  0
 26 27  1  0  0  0
 28 99  1  0  0  0
 28100  1  0  0  0
 29101  1  0  0  0
 29102  1  0  0  0
 33 34  1  0  0  0
 33 66  1  0  0  0
 33 70  2  0  0  0
 34 36  1  0  0  0
 34 59  1  0  0  0
 34103  1  0  0  0
 35 44  2  0  0  0
 35 45  1  0  0  0
 35 68  1  0  0  0
 36 56  1  0  0  0
 36104  1  0  0  0
 37 39  1  0  0  0
 37 47  1  0  0  0
 37 66  1  0  0  0
 37105  1  0  0  0
 38 43  2  0  0  0
 38 46  1  0  0  0
 38 47  1  0  0  0
 39 64  1  0  0  0
 39 67  2  0  0  0
 40 52  1  0  0  0
 40 53  2  0  0  0
 40 58  1  0  0  0
 41106  1  0  0  0
 41107  1  0  0  0
 41108  1  0  0  0
 41 48  1  0  0  0
 42 43  1  0  0  0
 42 66  1  0  0  0
 42109  1  0  0  0
 42110  1  0  0  0
 43 44  1  0  0  0
 44111  1  0  0  0
 45 46  2  0  0  0
 45112  1  0  0  0
 46113  1  0  0  0
 47114  1  0  0  0
 47115  1  0  0  0
 48 56  1  0  0  0
 48 65  1  0  0  0
 48116  1  0  0  0
 49 50  1  0  0  0
 49 53  1  0  0  0
 49 64  1  0  0  0
 49117  1  0  0  0
 50 51  1  0  0  0
 50118  1  0  0  0
 50119  1  0  0  0
 51 52  1  0  0  0
 51120  1  0  0  0
 51121  1  0  0  0
 52122  1  0  0  0
 52123  1  0  0  0
 53 54  1  0  0  0
 54 55  2  0  0  0
 54124  1  0  0  0
 55 57  1  0  0  0
 55125  1  0  0  0
 56 69  2  0  0  0
 57 58  2  0  0  0
 57126  1  0  0  0
 58127  1  0  0  0
 59 60  1  0  0  0
 59 61  1  0  0  0
 59 62  1  0  0  0
 60128  1  0  0  0
 60129  1  0  0  0
 60130  1  0  0  0
 61131  1  0  0  0
 61132  1  0  0  0
 61133  1  0  0  0
 62134  1  0  0  0
 62135  1  0  0  0
 62136  1  0  0  0
 63 65  1  0  0  0
 63137  1  0  0  0
 63138  1  0  0  0
 63139  1  0  0  0
 64140  1  0  0  0
 65141  1  0  0  0
 68 79  1  0  0  0
 71 75  1  0  0  0
 71 80  1  0  0  0
 71 82  2  0  0  0
 72 81  1  0  0  0
 72142  1  0  0  0
 72143  1  0  0  0
 72 75  1  0  0  0
 73 80  1  0  0  0
 73144  1  0  0  0
 73145  1  0  0  0
 73 76  1  0  0  0
 74 76  1  0  0  0
 74 81  1  0  0  0
 74146  1  0  0  0
 74147  1  0  0  0
 75 76  1  0  0  0
 75148  1  0  0  0
 76149  1  0  0  0
 77 78  1  0  0  0
 77 79  1  0  0  0
 77150  1  0  0  0
 77151  1  0  0  0
 78 80  1  0  0  0
 78152  1  0  0  0
 78153  1  0  0  0
 79154  1  0  0  0
 79155  1  0  0  0
M  ISO  4   1 100  68 101  79 101  81 100
M  END
> <chiral flag>
0

> <version>
0

> <s_m_source_file>
/data/baiqing/PycharmProjects/Reinvent-master-3.2/result/LINK_invent/BTK/process_docking_weight1_custom_sum_contain_oxygen_bond_distance_aromatic_linkinvent_7_9_3/rearranged_h_0161.sdf

> <i_m_source_file_index>
93

> <r_mmod_Potential_Energy-OPLS-2005>
596.374877929688

> <r_mmod_Stretch_Energy-OPLS-2005>
162.034225463867

> <r_mmod_Bend_Energy-OPLS-2005>
289.265838623047

> <r_mmod_Torsional_Energy-OPLS-2005>
377.855743408203

> <r_mmod_Improper_Torsional_Energy-OPLS-2005>
7.49570226669312

> <r_mmod_Van_der_Waal_Energy-OPLS-2005>
117.082504272461

> <r_mmod_Electrostatic_Energy-OPLS-2005>
-263.698181152344

> <r_mmod_Solvation_Energy-OPLS-2005>
-229.875762939453

> <b_mmod_Minimization_Converged-OPLS-2005>
0

> <r_mmod_RMS_Derivative-OPLS-2005>
0.93704092502594

$$$$
93
                    3D
 Structure written by MMmdl.
188198  0  0  1  0            999 V2000
  -30.6290  -14.6988   20.5763 C   0  0  0  0  0  0
  -30.4304  -12.4513   19.4844 C   0  0  0  0  0  0
  -29.5154  -12.4909   18.2446 C   0  0  0  0  0  0
  -28.0447  -12.2656   18.6524 C   0  0  0  0  0  0
  -27.6277  -13.1801   19.8238 C   0  0  2  0  0  0
  -28.6530  -13.1400   20.9751 C   0  0  0  0  0  0
  -25.2527  -13.8051   20.5644 C   0  0  0  0  0  0
  -24.1769  -13.0341   20.9149 C   0  0  0  0  0  0
  -24.6316  -11.6833   20.8669 C   0  0  0  0  0  0
  -23.8988  -10.4237   21.0390 C   0  0  0  0  0  0
  -24.3568   -9.4177   21.9169 C   0  0  0  0  0  0
  -23.6250   -8.2216   22.0734 C   0  0  0  0  0  0
  -22.4235   -8.0258   21.3521 C   0  0  0  0  0  0
  -21.9864   -9.0206   20.4618 C   0  0  0  0  0  0
  -22.7181  -10.2092   20.3028 C   0  0  0  0  0  0
  -21.6815   -6.0732   22.5264 C   0  0  0  0  0  0
  -21.4009   -6.5640   23.8195 C   0  0  0  0  0  0
  -21.3663   -5.6797   24.9144 C   0  0  0  0  0  0
  -21.6027   -4.3053   24.7190 C   0  0  0  0  0  0
  -21.8828   -3.8143   23.4316 C   0  0  0  0  0  0
  -21.9185   -4.6966   22.3378 C   0  0  0  0  0  0
  -22.7825  -13.5162   21.1843 C   0  0  0  0  0  0
  -22.1667   -4.2165   21.0949 F   0  0  0  0  0  0
  -21.5617   -3.4554   25.7712 F   0  0  0  0  0  0
  -29.9666  -13.5001   20.4274 N   0  0  0  0  0  0
  -26.2835  -12.9135   20.3086 N   0  0  0  0  0  0
  -25.9194  -11.6331   20.5616 N   0  0  0  0  0  0
  -22.0519  -12.8066   22.0411 N   0  0  0  0  0  0
  -25.4164  -15.1781   20.4223 N   0  0  0  0  0  0
  -31.8047  -14.7802   20.2021 O   0  0  0  0  0  0
  -21.6573   -6.8884   21.4238 O   0  0  0  0  0  0
  -22.3498  -14.5472   20.6754 O   0  0  0  0  0  0
  -24.6218  -31.8648   23.2076 C   0  0  0  0  0  0
  -25.9075  -32.4805   23.8385 C   0  0  1  0  0  0
  -27.2265  -27.3712   20.1112 C   0  0  0  0  0  0
  -25.5911  -33.8593   24.2312 N   0  0  0  0  0  0
  -23.4125  -30.4900   21.5498 C   0  0  2  0  0  0
  -24.8557  -28.9533   20.1129 C   0  0  0  0  0  0
  -22.7452  -29.4697   22.4995 C   0  0  0  0  0  0
  -18.0288  -28.1420   22.8494 C   0  0  0  0  0  0
  -24.1509  -36.7295   23.2655 C   0  0  0  0  0  0
  -25.9470  -30.8113   21.3731 C   0  0  0  0  0  0
  -26.0213  -29.4382   20.7226 C   0  0  0  0  0  0
  -27.2075  -28.6530   20.7267 C   0  0  0  0  0  0
  -26.0586  -26.9581   19.4352 C   0  0  0  0  0  0
  -24.8750  -27.7142   19.4583 C   0  0  0  0  0  0
  -23.6169  -29.8196   20.1662 C   0  0  0  0  0  0
  -25.4121  -36.3099   24.0366 C   0  0  1  0  0  0
  -20.5872  -28.3704   23.1293 C   0  0  2  0  0  0
  -20.6777  -26.9433   22.5399 C   0  0  0  0  0  0
  -19.5749  -26.6408   21.5215 C   0  0  0  0  0  0
  -18.1926  -26.7956   22.1623 C   0  0  0  0  0  0
  -19.1544  -28.8876   23.2882 C   0  0  0  0  0  0
  -18.9466  -30.1488   23.8874 C   0  0  0  0  0  0
  -17.6461  -30.6602   24.0579 C   0  0  0  0  0  0
  -25.9057  -34.9471   23.5139 C   0  0  0  0  0  0
  -16.5348  -29.9092   23.6343 C   0  0  0  0  0  0
  -16.7275  -28.6526   23.0333 C   0  0  0  0  0  0
  -26.4469  -31.6566   25.0708 C   0  0  0  0  0  0
  -25.3734  -31.3575   26.1435 C   0  0  0  0  0  0
  -27.0340  -30.3033   24.6072 C   0  0  0  0  0  0
  -27.6067  -32.4253   25.7428 C   0  0  0  0  0  0
  -27.5603  -37.1774   24.8470 C   0  0  0  0  0  0
  -21.4174  -29.3060   22.3681 N   0  0  0  0  0  0
  -26.4306  -37.3795   23.9452 N   0  0  0  0  0  0
  -24.6800  -31.0699   22.0998 N   0  0  0  0  0  0
  -23.4190  -28.8246   23.3092 O   0  0  0  0  0  0
  -28.3502  -26.5482   20.1166 O   0  0  0  0  0  0
  -26.5609  -34.8943   22.4690 O   0  0  0  0  0  0
  -23.5399  -32.1423   23.7432 O   0  0  0  0  0  0
  -26.0888  -20.3249   19.7442 C   0  0  0  0  0  0
  -25.6647  -19.5247   17.0979 C   0  0  0  0  0  0
  -26.9528  -20.8189   18.7311 C   0  0  0  0  0  0
  -25.0087  -19.4708   19.4411 C   0  0  0  0  0  0
  -26.7067  -20.4301   17.3860 C   0  0  0  0  0  0
  -24.8197  -19.0379   18.1122 C   0  0  0  0  0  0
  -30.9210  -18.1965   21.4697 C   0  0  0  0  0  0
  -28.8770  -17.8756   20.1451 C   0  0  0  0  0  0
  -30.7303  -16.7469   22.0585 C   0  0  0  0  0  0
  -28.7305  -16.4620   20.8045 C   0  0  0  0  0  0
  -29.0036  -22.6882   21.1161 C   0  0  0  0  0  0
  -28.0873  -21.7983   19.0927 C   0  0  1  0  0  0
  -29.6126  -18.9273   21.0222 C   0  0  0  0  0  0
  -28.6539  -23.9130   20.1955 C   0  0  1  0  0  0
  -27.6198  -23.3054   19.2224 C   0  0  0  0  0  0
  -24.0373  -19.0617   20.5396 C   0  0  0  0  0  0
  -27.5122  -20.9681   16.2113 C   0  0  0  0  0  0
  -23.7067  -18.0696   17.7503 C   0  0  0  0  0  0
  -26.1659  -23.4044   19.7741 C   0  0  0  0  0  0
  -27.7108  -24.0654   17.8717 C   0  0  0  0  0  0
  -29.8528  -20.3493   20.3077 C   0  0  0  0  0  0
  -28.2750  -25.3004   20.8915 C   0  0  0  0  0  0
  -30.0118  -15.8030   21.1654 N   0  0  0  0  0  0
  -28.7425  -21.4003   20.3773 N   0  3  1  0  0  0
  -31.4701  -12.5903   19.1815 H   0  0  0  0  0  0
  -30.3858  -11.4708   19.9583 H   0  0  0  0  0  0
  -29.8219  -11.7411   17.5142 H   0  0  0  0  0  0
  -29.6180  -13.4588   17.7555 H   0  0  0  0  0  0
  -27.9291  -11.2198   18.9429 H   0  0  0  0  0  0
  -27.3892  -12.4257   17.7957 H   0  0  0  0  0  0
  -27.5954  -14.1514   19.3499 H   0  0  0  0  0  0
  -28.6831  -12.1439   21.4193 H   0  0  0  0  0  0
  -28.3514  -13.8120   21.7763 H   0  0  0  0  0  0
  -25.2744   -9.5622   22.4706 H   0  0  0  0  0  0
  -23.9949   -7.4590   22.7431 H   0  0  0  0  0  0
  -21.0808   -8.8700   19.8912 H   0  0  0  0  0  0
  -22.3640  -10.9605   19.6101 H   0  0  0  0  0  0
  -21.2013   -7.6147   23.9686 H   0  0  0  0  0  0
  -21.1463   -6.0527   25.9050 H   0  0  0  0  0  0
  -22.0593   -2.7604   23.2792 H   0  0  0  0  0  0
  -22.4217  -11.9709   22.4669 H   0  0  0  0  0  0
  -21.1155  -13.1037   22.2731 H   0  0  0  0  0  0
  -24.6477  -15.8206   20.5834 H   0  0  0  0  0  0
  -26.2541  -15.6429   20.1033 H   0  0  0  0  0  0
  -26.7157  -32.5529   23.1172 H   0  0  0  0  0  0
  -25.0060  -33.9736   25.0452 H   0  0  0  0  0  0
  -22.7093  -31.3137   21.4091 H   0  0  0  0  0  0
  -23.3838  -35.9563   23.3239 H   0  0  0  0  0  0
  -24.3635  -36.8960   22.2087 H   0  0  0  0  0  0
  -23.7170  -37.6452   23.6689 H   0  0  0  0  0  0
  -26.0700  -31.5810   20.6099 H   0  0  0  0  0  0
  -26.8341  -30.8633   21.9941 H   0  0  0  0  0  0
  -28.0965  -29.0152   21.2208 H   0  0  0  0  0  0
  -26.0447  -26.0562   18.8512 H   0  0  0  0  0  0
  -23.9915  -27.3504   18.9482 H   0  0  0  0  0  0
  -23.7162  -30.5936   19.4045 H   0  0  0  0  0  0
  -22.7415  -29.2323   19.8815 H   0  0  0  0  0  0
  -25.1293  -36.1968   25.0866 H   0  0  0  0  0  0
  -20.9963  -28.3296   24.1425 H   0  0  0  0  0  0
  -20.5720  -26.2326   23.3616 H   0  0  0  0  0  0
  -21.6638  -26.7497   22.1164 H   0  0  0  0  0  0
  -19.6937  -25.6337   21.1213 H   0  0  0  0  0  0
  -19.6662  -27.3266   20.6786 H   0  0  0  0  0  0
  -17.4168  -26.6725   21.4030 H   0  0  0  0  0  0
  -18.0308  -26.0122   22.9045 H   0  0  0  0  0  0
  -19.7956  -30.7315   24.2204 H   0  0  0  0  0  0
  -17.5022  -31.6275   24.5207 H   0  0  0  0  0  0
  -15.5345  -30.2974   23.7702 H   0  0  0  0  0  0
  -15.8696  -28.0860   22.7001 H   0  0  0  0  0  0
  -24.5991  -30.6826   25.7713 H   0  0  0  0  0  0
  -24.8824  -32.2678   26.4895 H   0  0  0  0  0  0
  -25.8128  -30.8729   27.0173 H   0  0  0  0  0  0
  -26.2879  -29.6726   24.1214 H   0  0  0  0  0  0
  -27.4257  -29.7289   25.4481 H   0  0  0  0  0  0
  -27.8640  -30.4400   23.9133 H   0  0  0  0  0  0
  -27.2759  -33.3599   26.1972 H   0  0  0  0  0  0
  -28.3865  -32.6703   25.0192 H   0  0  0  0  0  0
  -28.0765  -31.8377   26.5347 H   0  0  0  0  0  0
  -28.2540  -38.0149   24.7657 H   0  0  0  0  0  0
  -28.1183  -36.2686   24.6148 H   0  0  0  0  0  0
  -27.2327  -37.1223   25.8865 H   0  0  0  0  0  0
  -20.9375  -29.8712   21.6828 H   0  0  0  0  0  0
  -26.0213  -38.2869   24.1511 H   0  0  0  0  0  0
  -26.2141  -20.6280   20.7742 H   0  0  0  0  0  0
  -25.5008  -19.2088   16.0763 H   0  0  0  0  0  0
  -31.6113  -18.1478   20.6275 H   0  0  0  0  0  0
  -31.4303  -18.7994   22.2245 H   0  0  0  0  0  0
  -27.8876  -18.2457   19.8805 H   0  0  0  0  0  0
  -29.4078  -17.7628   19.1986 H   0  0  0  0  0  0
  -30.1644  -16.8141   22.9910 H   0  0  0  0  0  0
  -31.6923  -16.3271   22.3564 H   0  0  0  0  0  0
  -28.1487  -15.8751   20.1198 H   0  0  0  0  0  0
  -28.1145  -16.5429   21.7025 H   0  0  0  0  0  0
  -28.3452  -22.6975   21.9847 H   0  0  0  0  0  0
  -30.0202  -22.7654   21.5008 H   0  0  0  0  0  0
  -28.8662  -21.7589   18.3304 H   0  0  0  0  0  0
  -29.0352  -19.0992   21.9327 H   0  0  0  0  0  0
  -29.5660  -24.1060   19.6284 H   0  0  0  0  0  0
  -24.3783  -19.3768   21.5263 H   0  0  0  0  0  0
  -23.8900  -17.9815   20.5631 H   0  0  0  0  0  0
  -23.0710  -19.5379   20.3632 H   0  0  0  0  0  0
  -27.0887  -20.6409   15.2607 H   0  0  0  0  0  0
  -28.5471  -20.6329   16.2424 H   0  0  0  0  0  0
  -27.4991  -22.0525   16.1804 H   0  0  0  0  0  0
  -23.7766  -17.7602   16.7078 H   0  0  0  0  0  0
  -22.7323  -18.5342   17.9004 H   0  0  0  0  0  0
  -23.7614  -17.1701   18.3620 H   0  0  0  0  0  0
  -26.0419  -22.8581   20.7063 H   0  0  0  0  0  0
  -25.4296  -23.0239   19.0612 H   0  0  0  0  0  0
  -25.8433  -24.4060   20.0140 H   0  0  0  0  0  0
  -28.6185  -23.8232   17.3172 H   0  0  0  0  0  0
  -27.7426  -25.1434   18.0049 H   0  0  0  0  0  0
  -26.8599  -23.8600   17.2232 H   0  0  0  0  0  0
  -30.1119  -20.1614   19.2641 H   0  0  0  0  0  0
  -30.7619  -20.7908   20.7188 H   0  0  0  0  0  0
  -28.9870  -25.4420   21.7055 H   0  0  0  0  0  0
  -27.3140  -25.2254   21.3983 H   0  0  0  0  0  0
  -28.0077  -20.9579   20.9023 H   0  0  0  0  0  0
  1 25  1  0  0  0
  1 30  2  0  0  0
  1 93  1  0  0  0
  2  3  1  0  0  0
  2 25  1  0  0  0
  2 95  1  0  0  0
  2 96  1  0  0  0
  3  4  1  0  0  0
  3 97  1  0  0  0
  3 98  1  0  0  0
  4  5  1  0  0  0
  4 99  1  0  0  0
  4100  1  0  0  0
  5  6  1  0  0  0
  5 26  1  0  0  0
  5101  1  0  0  0
  6 25  1  0  0  0
  6102  1  0  0  0
  6103  1  0  0  0
  7  8  2  0  0  0
  7 26  1  0  0  0
  7 29  1  0  0  0
  8  9  1  0  0  0
  8 22  1  0  0  0
  9 10  1  0  0  0
  9 27  2  0  0  0
 10 11  2  0  0  0
 10 15  1  0  0  0
 11 12  1  0  0  0
 11104  1  0  0  0
 12 13  2  0  0  0
 12105  1  0  0  0
 13 14  1  0  0  0
 13 31  1  0  0  0
 14 15  2  0  0  0
 14106  1  0  0  0
 15107  1  0  0  0
 16 17  2  0  0  0
 16 21  1  0  0  0
 16 31  1  0  0  0
 17 18  1  0  0  0
 17108  1  0  0  0
 18 19  2  0  0  0
 18109  1  0  0  0
 19 20  1  0  0  0
 19 24  1  0  0  0
 20 21  2  0  0  0
 20110  1  0  0  0
 21 23  1  0  0  0
 22 28  1  0  0  0
 22 32  2  0  0  0
 26 27  1  0  0  0
 28111  1  0  0  0
 28112  1  0  0  0
 29113  1  0  0  0
 29114  1  0  0  0
 33 34  1  0  0  0
 33 66  1  0  0  0
 33 70  2  0  0  0
 34 36  1  0  0  0
 34 59  1  0  0  0
 34115  1  0  0  0
 35 44  2  0  0  0
 35 45  1  0  0  0
 35 68  1  0  0  0
 36 56  1  0  0  0
 36116  1  0  0  0
 37 39  1  0  0  0
 37 47  1  0  0  0
 37 66  1  0  0  0
 37117  1  0  0  0
 38 43  2  0  0  0
 38 46  1  0  0  0
 38 47  1  0  0  0
 39 64  1  0  0  0
 39 67  2  0  0  0
 40 52  1  0  0  0
 40 53  2  0  0  0
 40 58  1  0  0  0
 41118  1  0  0  0
 41119  1  0  0  0
 41120  1  0  0  0
 41 48  1  0  0  0
 42 43  1  0  0  0
 42 66  1  0  0  0
 42121  1  0  0  0
 42122  1  0  0  0
 43 44  1  0  0  0
 44123  1  0  0  0
 45 46  2  0  0  0
 45124  1  0  0  0
 46125  1  0  0  0
 47126  1  0  0  0
 47127  1  0  0  0
 48 56  1  0  0  0
 48 65  1  0  0  0
 48128  1  0  0  0
 49 50  1  0  0  0
 49 53  1  0  0  0
 49 64  1  0  0  0
 49129  1  0  0  0
 50 51  1  0  0  0
 50130  1  0  0  0
 50131  1  0  0  0
 51 52  1  0  0  0
 51132  1  0  0  0
 51133  1  0  0  0
 52134  1  0  0  0
 52135  1  0  0  0
 53 54  1  0  0  0
 54 55  2  0  0  0
 54136  1  0  0  0
 55 57  1  0  0  0
 55137  1  0  0  0
 56 69  2  0  0  0
 57 58  2  0  0  0
 57138  1  0  0  0
 58139  1  0  0  0
 59 60  1  0  0  0
 59 61  1  0  0  0
 59 62  1  0  0  0
 60140  1  0  0  0
 60141  1  0  0  0
 60142  1  0  0  0
 61143  1  0  0  0
 61144  1  0  0  0
 61145  1  0  0  0
 62146  1  0  0  0
 62147  1  0  0  0
 62148  1  0  0  0
 63 65  1  0  0  0
 63149  1  0  0  0
 63150  1  0  0  0
 63151  1  0  0  0
 64152  1  0  0  0
 65153  1  0  0  0
 68 92  1  0  0  0
 71 73  2  0  0  0
 71 74  1  0  0  0
 71154  1  0  0  0
 72 75  2  0  0  0
 72 76  1  0  0  0
 72155  1  0  0  0
 73 75  1  0  0  0
 73 82  1  0  0  0
 74 76  2  0  0  0
 74 86  1  0  0  0
 75 87  1  0  0  0
 76 88  1  0  0  0
 77 79  1  0  0  0
 77 83  1  0  0  0
 77156  1  0  0  0
 77157  1  0  0  0
 78 80  1  0  0  0
 78 83  1  0  0  0
 78158  1  0  0  0
 78159  1  0  0  0
 79 93  1  0  0  0
 79160  1  0  0  0
 79161  1  0  0  0
 80 93  1  0  0  0
 80162  1  0  0  0
 80163  1  0  0  0
 81 84  1  0  0  0
 81 94  1  0  0  0
 81164  1  0  0  0
 81165  1  0  0  0
 82 85  1  0  0  0
 82 94  1  0  0  0
 82166  1  0  0  0
 83 91  1  0  0  0
 83167  1  0  0  0
 84 85  1  0  0  0
 84 92  1  0  0  0
 84168  1  0  0  0
 85 89  1  0  0  0
 85 90  1  0  0  0
 86169  1  0  0  0
 86170  1  0  0  0
 86171  1  0  0  0
 87172  1  0  0  0
 87173  1  0  0  0
 87174  1  0  0  0
 88175  1  0  0  0
 88176  1  0  0  0
 88177  1  0  0  0
 89178  1  0  0  0
 89179  1  0  0  0
 89180  1  0  0  0
 90181  1  0  0  0
 90182  1  0  0  0
 90183  1  0  0  0
 91184  1  0  0  0
 91185  1  0  0  0
 91 94  1  0  0  0
 92186  1  0  0  0
 92187  1  0  0  0
 94188  1  0  0  0
M  CHG  1  94   1
M  ISO  4   1 100  68 101  92 101  93 100
M  END
> <chiral flag>
0

> <version>
0

> <s_m_source_file>
/data/baiqing/PycharmProjects/Reinvent-master-3.2/result/LINK_invent/BTK/process_docking_weight1_custom_sum_contain_oxygen_bond_distance_aromatic_linkinvent_7_9_3/rearranged_h_0161.sdf

> <i_m_source_file_index>
94

> <r_mmod_Potential_Energy-OPLS-2005>
323.477142333984

> <r_mmod_Stretch_Energy-OPLS-2005>
89.1501541137695

> <r_mmod_Bend_Energy-OPLS-2005>
191.456527709961

> <r_mmod_Torsional_Energy-OPLS-2005>
428.503997802734

> <r_mmod_Improper_Torsional_Energy-OPLS-2005>
2.3505585193634

> <r_mmod_Van_der_Waal_Energy-OPLS-2005>
148.562606811523

> <r_mmod_Electrostatic_Energy-OPLS-2005>
-191.388366699219

> <r_mmod_Solvation_Energy-OPLS-2005>
-400.187042236328

> <b_mmod_Minimization_Converged-OPLS-2005>
0

> <r_mmod_RMS_Derivative-OPLS-2005>
6.24882173538208

$$$$
94
                    3D
 Structure written by MMmdl.
169177  0  0  1  0            999 V2000
  -31.3162  -14.5746   21.0279 C   0  0  0  0  0  0
  -30.9703  -13.2236   18.9461 C   0  0  0  0  0  0
  -29.5976  -13.0340   17.5423 C   0  0  0  0  0  0
  -27.6929  -13.1023   18.0377 C   0  0  0  0  0  0
  -27.2504  -13.4315   19.9147 C   0  0  2  0  0  0
  -28.7741  -13.5727   21.2982 C   0  0  0  0  0  0
  -24.9809  -13.8267   20.6248 C   0  0  0  0  0  0
  -23.9954  -12.9944   20.9663 C   0  0  0  0  0  0
  -24.5355  -11.6718   20.9053 C   0  0  0  0  0  0
  -23.8618  -10.3977   21.0453 C   0  0  0  0  0  0
  -24.3408   -9.4038   21.9202 C   0  0  0  0  0  0
  -23.6192   -8.2036   22.0711 C   0  0  0  0  0  0
  -22.4191   -8.0032   21.3463 C   0  0  0  0  0  0
  -21.9710   -8.9936   20.4543 C   0  0  0  0  0  0
  -22.6922  -10.1828   20.2993 C   0  0  0  0  0  0
  -21.6795   -6.0664   22.5286 C   0  0  0  0  0  0
  -21.3897   -6.5583   23.8192 C   0  0  0  0  0  0
  -21.3564   -5.6736   24.9154 C   0  0  0  0  0  0
  -21.6035   -4.3011   24.7210 C   0  0  0  0  0  0
  -21.8900   -3.8119   23.4339 C   0  0  0  0  0  0
  -21.9221   -4.6916   22.3393 C   0  0  0  0  0  0
  -22.6089  -13.4534   21.2187 C   0  0  0  0  0  0
  -22.1721   -4.2130   21.0961 F   0  0  0  0  0  0
  -21.5648   -3.4499   25.7716 F   0  0  0  0  0  0
  -30.4905  -13.5933   20.6819 N   0  0  0  0  0  0
  -26.0497  -12.9923   20.4096 N   0  0  0  0  0  0
  -25.8196  -11.6851   20.5971 N   0  0  0  0  0  0
  -21.9048  -12.7570   22.0919 N   0  0  0  0  0  0
  -24.9865  -15.2091   20.4316 N   0  0  0  0  0  0
  -32.4282  -14.6489   20.5269 O   0  0  0  0  0  0
  -21.6546   -6.8680   21.4202 O   0  0  0  0  0  0
  -22.1759  -14.4832   20.6972 O   0  0  0  0  0  0
  -24.6688  -31.8322   23.1732 C   0  0  0  0  0  0
  -25.9354  -32.4660   23.8216 C   0  0  1  0  0  0
  -27.1885  -26.9569   20.1060 C   0  0  0  0  0  0
  -25.5994  -33.8453   24.2113 N   0  0  0  0  0  0
  -23.4776  -30.4504   21.5258 C   0  0  2  0  0  0
  -24.9146  -28.8424   20.1138 C   0  0  0  0  0  0
  -22.7712  -29.4530   22.4826 C   0  0  0  0  0  0
  -18.0339  -28.1445   22.8483 C   0  0  0  0  0  0
  -24.1469  -36.7189   23.2652 C   0  0  0  0  0  0
  -26.0503  -30.6391   21.4015 C   0  0  0  0  0  0
  -26.1078  -29.2334   20.7341 C   0  0  0  0  0  0
  -27.2455  -28.3054   20.7136 C   0  0  0  0  0  0
  -25.9543  -26.7064   19.4803 C   0  0  0  0  0  0
  -24.8585  -27.5953   19.4786 C   0  0  0  0  0  0
  -23.7074  -29.7732   20.1505 C   0  0  0  0  0  0
  -25.4127  -36.3008   24.0311 C   0  0  1  0  0  0
  -20.5977  -28.3802   23.1183 C   0  0  2  0  0  0
  -20.6810  -26.9487   22.5390 C   0  0  0  0  0  0
  -19.5740  -26.6415   21.5228 C   0  0  0  0  0  0
  -18.1937  -26.7987   22.1658 C   0  0  0  0  0  0
  -19.1609  -28.8945   23.2817 C   0  0  0  0  0  0
  -18.9501  -30.1540   23.8848 C   0  0  0  0  0  0
  -17.6488  -30.6621   24.0582 C   0  0  0  0  0  0
  -25.9114  -34.9396   23.5037 C   0  0  0  0  0  0
  -16.5380  -29.9113   23.6344 C   0  0  0  0  0  0
  -16.7326  -28.6539   23.0349 C   0  0  0  0  0  0
  -26.4550  -31.6582   25.0737 C   0  0  0  0  0  0
  -25.3625  -31.3774   26.1334 C   0  0  0  0  0  0
  -27.0484  -30.2980   24.6461 C   0  0  0  0  0  0
  -27.6077  -32.4398   25.7511 C   0  0  0  0  0  0
  -27.5563  -37.1774   24.8495 C   0  0  0  0  0  0
  -21.4390  -29.3097   22.3556 N   0  0  0  0  0  0
  -26.4290  -37.3743   23.9421 N   0  0  0  0  0  0
  -24.7545  -31.0020   22.0863 N   0  0  0  0  0  0
  -23.4256  -28.8098   23.3069 O   0  0  0  0  0  0
  -28.1765  -25.8518   20.0839 O   0  0  0  0  0  0
  -26.5732  -34.8930   22.4646 O   0  0  0  0  0  0
  -23.5754  -32.1289   23.6813 O   0  0  0  0  0  0
  -29.0583  -14.7610   19.1943 C   0  0  0  0  0  0
  -28.2005  -15.9631   19.7670 C   0  0  0  0  0  0
  -29.9798  -15.8097   18.5601 C   0  0  0  0  0  0
  -28.0608  -17.3655   19.2615 C   0  0  0  0  0  0
  -30.2522  -17.2060   19.0967 C   0  0  0  0  0  0
  -29.2033  -18.2309   19.2002 C   0  0  0  0  0  0
  -29.0730  -12.0824   19.5821 C   0  0  0  0  0  0
  -27.5940  -16.1107   21.1969 C   0  0  0  0  0  0
  -29.9998  -15.9182   17.0301 C   0  0  0  0  0  0
  -26.6808  -17.9686   19.0699 C   0  0  0  0  0  0
  -31.5098  -17.4263   19.9386 C   0  0  0  0  0  0
  -28.7922  -22.7619   19.7100 C   0  0  0  0  0  0
  -31.3491  -16.9996   21.4479 C   0  0  0  0  0  0
  -27.8426  -24.2725   19.7873 C   0  0  0  0  0  0
  -28.3897  -21.0367   19.4679 C   0  0  0  0  0  0
  -30.8135  -15.6396   21.6588 N   0  0  0  0  0  0
  -29.3573  -19.7439   19.3349 O   0  0  0  0  0  0
  -31.6887  -13.9283   18.5169 H   0  0  0  0  0  0
  -31.5822  -12.3189   18.9559 H   0  0  0  0  0  0
  -29.7851  -12.0578   17.0903 H   0  0  0  0  0  0
  -29.8119  -13.5647   16.6289 H   0  0  0  0  0  0
  -27.2061  -12.1797   17.7074 H   0  0  0  0  0  0
  -27.1843  -13.8437   17.4144 H   0  0  0  0  0  0
  -26.8240  -14.2994   19.4770 H   0  0  0  0  0  0
  -28.7098  -12.6820   21.9308 H   0  0  0  0  0  0
  -28.6723  -14.2422   22.1401 H   0  0  0  0  0  0
  -25.2527   -9.5725   22.4766 H   0  0  0  0  0  0
  -23.9967   -7.4478   22.7458 H   0  0  0  0  0  0
  -21.0660   -8.8431   19.8829 H   0  0  0  0  0  0
  -22.3399  -10.9390   19.6113 H   0  0  0  0  0  0
  -21.1784   -7.6093   23.9654 H   0  0  0  0  0  0
  -21.1259   -6.0460   25.9049 H   0  0  0  0  0  0
  -22.0753   -2.7592   23.2849 H   0  0  0  0  0  0
  -22.3007  -11.9491   22.5519 H   0  0  0  0  0  0
  -20.9617  -13.0397   22.3146 H   0  0  0  0  0  0
  -24.1389  -15.7644   20.4716 H   0  0  0  0  0  0
  -25.8164  -15.7443   20.2114 H   0  0  0  0  0  0
  -26.7469  -32.5198   23.0972 H   0  0  0  0  0  0
  -25.0087  -33.9513   25.0221 H   0  0  0  0  0  0
  -22.7903  -31.2856   21.3642 H   0  0  0  0  0  0
  -23.3789  -35.9470   23.3334 H   0  0  0  0  0  0
  -24.3524  -36.8808   22.2065 H   0  0  0  0  0  0
  -23.7156  -37.6353   23.6687 H   0  0  0  0  0  0
  -26.2493  -31.3870   20.6313 H   0  0  0  0  0  0
  -26.9050  -30.6825   22.0661 H   0  0  0  0  0  0
  -28.1540  -28.5936   21.2271 H   0  0  0  0  0  0
  -25.7815  -25.7549   19.0042 H   0  0  0  0  0  0
  -23.9482  -27.2775   18.9937 H   0  0  0  0  0  0
  -23.8606  -30.5447   19.3956 H   0  0  0  0  0  0
  -22.8094  -29.2379   19.8375 H   0  0  0  0  0  0
  -25.1317  -36.1845   25.0814 H   0  0  0  0  0  0
  -21.0080  -28.3413   24.1300 H   0  0  0  0  0  0
  -20.5735  -26.2427   23.3638 H   0  0  0  0  0  0
  -21.6657  -26.7468   22.1148 H   0  0  0  0  0  0
  -19.6879  -25.6301   21.1293 H   0  0  0  0  0  0
  -19.6644  -27.3193   20.6728 H   0  0  0  0  0  0
  -17.4204  -26.6764   21.4074 H   0  0  0  0  0  0
  -18.0320  -26.0141   22.9069 H   0  0  0  0  0  0
  -19.7959  -30.7407   24.2178 H   0  0  0  0  0  0
  -17.5005  -31.6277   24.5234 H   0  0  0  0  0  0
  -15.5366  -30.2986   23.7679 H   0  0  0  0  0  0
  -15.8728  -28.0843   22.7057 H   0  0  0  0  0  0
  -24.5810  -30.7176   25.7503 H   0  0  0  0  0  0
  -24.8776  -32.2948   26.4717 H   0  0  0  0  0  0
  -25.7759  -30.8876   27.0160 H   0  0  0  0  0  0
  -26.3150  -29.6636   24.1466 H   0  0  0  0  0  0
  -27.4044  -29.7373   25.5107 H   0  0  0  0  0  0
  -27.9077  -30.4202   23.9866 H   0  0  0  0  0  0
  -27.2687  -33.3758   26.1977 H   0  0  0  0  0  0
  -28.3895  -32.6896   25.0316 H   0  0  0  0  0  0
  -28.0757  -31.8613   26.5484 H   0  0  0  0  0  0
  -28.2627  -38.0025   24.7534 H   0  0  0  0  0  0
  -28.1012  -36.2571   24.6364 H   0  0  0  0  0  0
  -27.2271  -37.1458   25.8892 H   0  0  0  0  0  0
  -20.9674  -29.8790   21.6639 H   0  0  0  0  0  0
  -26.0161  -38.2833   24.1370 H   0  0  0  0  0  0
  -28.3836  -11.5408   20.2401 H   0  0  0  0  0  0
  -29.9128  -11.5209   20.0268 H   0  0  0  0  0  0
  -28.9181  -11.3168   18.8052 H   0  0  0  0  0  0
  -27.0475  -15.2895   21.6331 H   0  0  0  0  0  0
  -26.8753  -16.9168   21.3048 H   0  0  0  0  0  0
  -28.3692  -16.3981   21.9052 H   0  0  0  0  0  0
  -30.8315  -15.3785   16.5823 H   0  0  0  0  0  0
  -30.1001  -16.9503   16.6858 H   0  0  0  0  0  0
  -29.0522  -15.5840   16.6077 H   0  0  0  0  0  0
  -26.3207  -18.4564   19.9744 H   0  0  0  0  0  0
  -25.9639  -17.1986   18.7855 H   0  0  0  0  0  0
  -26.6899  -18.6921   18.2554 H   0  0  0  0  0  0
  -31.8402  -18.4641   19.8738 H   0  0  0  0  0  0
  -32.3166  -16.8804   19.4572 H   0  0  0  0  0  0
  -29.3466  -22.7410   20.6450 H   0  0  0  0  0  0
  -29.5514  -22.9666   18.9523 H   0  0  0  0  0  0
  -32.3045  -17.0732   21.9726 H   0  0  0  0  0  0
  -30.6761  -17.7012   21.9470 H   0  0  0  0  0  0
  -27.0496  -24.0463   20.4999 H   0  0  0  0  0  0
  -27.3361  -24.2967   18.8238 H   0  0  0  0  0  0
  -27.7386  -20.9860   18.5909 H   0  0  0  0  0  0
  -27.7355  -20.7847   20.3002 H   0  0  0  0  0  0
  -29.8650  -15.5734   21.9926 H   0  0  0  0  0  0
  1 25  1  0  0  0
  1 30  2  0  0  0
  1 86  1  0  0  0
  2  3  1  0  0  0
  2 25  1  0  0  0
  2 88  1  0  0  0
  2 89  1  0  0  0
  3  4  1  0  0  0
  3 90  1  0  0  0
  3 91  1  0  0  0
  4  5  1  0  0  0
  4 92  1  0  0  0
  4 93  1  0  0  0
  5  6  1  0  0  0
  5 26  1  0  0  0
  5 94  1  0  0  0
  6 25  1  0  0  0
  6 95  1  0  0  0
  6 96  1  0  0  0
  7  8  2  0  0  0
  7 26  1  0  0  0
  7 29  1  0  0  0
  8  9  1  0  0  0
  8 22  1  0  0  0
  9 10  1  0  0  0
  9 27  2  0  0  0
 10 11  2  0  0  0
 10 15  1  0  0  0
 11 12  1  0  0  0
 11 97  1  0  0  0
 12 13  2  0  0  0
 12 98  1  0  0  0
 13 14  1  0  0  0
 13 31  1  0  0  0
 14 15  2  0  0  0
 14 99  1  0  0  0
 15100  1  0  0  0
 16 17  2  0  0  0
 16 21  1  0  0  0
 16 31  1  0  0  0
 17 18  1  0  0  0
 17101  1  0  0  0
 18 19  2  0  0  0
 18102  1  0  0  0
 19 20  1  0  0  0
 19 24  1  0  0  0
 20 21  2  0  0  0
 20103  1  0  0  0
 21 23  1  0  0  0
 22 28  1  0  0  0
 22 32  2  0  0  0
 26 27  1  0  0  0
 28104  1  0  0  0
 28105  1  0  0  0
 29106  1  0  0  0
 29107  1  0  0  0
 33 34  1  0  0  0
 33 66  1  0  0  0
 33 70  2  0  0  0
 34 36  1  0  0  0
 34 59  1  0  0  0
 34108  1  0  0  0
 35 44  2  0  0  0
 35 45  1  0  0  0
 35 68  1  0  0  0
 36 56  1  0  0  0
 36109  1  0  0  0
 37 39  1  0  0  0
 37 47  1  0  0  0
 37 66  1  0  0  0
 37110  1  0  0  0
 38 43  2  0  0  0
 38 46  1  0  0  0
 38 47  1  0  0  0
 39 64  1  0  0  0
 39 67  2  0  0  0
 40 52  1  0  0  0
 40 53  2  0  0  0
 40 58  1  0  0  0
 41111  1  0  0  0
 41112  1  0  0  0
 41113  1  0  0  0
 41 48  1  0  0  0
 42 43  1  0  0  0
 42 66  1  0  0  0
 42114  1  0  0  0
 42115  1  0  0  0
 43 44  1  0  0  0
 44116  1  0  0  0
 45 46  2  0  0  0
 45117  1  0  0  0
 46118  1  0  0  0
 47119  1  0  0  0
 47120  1  0  0  0
 48 56  1  0  0  0
 48 65  1  0  0  0
 48121  1  0  0  0
 49 50  1  0  0  0
 49 53  1  0  0  0
 49 64  1  0  0  0
 49122  1  0  0  0
 50 51  1  0  0  0
 50123  1  0  0  0
 50124  1  0  0  0
 51 52  1  0  0  0
 51125  1  0  0  0
 51126  1  0  0  0
 52127  1  0  0  0
 52128  1  0  0  0
 53 54  1  0  0  0
 54 55  2  0  0  0
 54129  1  0  0  0
 55 57  1  0  0  0
 55130  1  0  0  0
 56 69  2  0  0  0
 57 58  2  0  0  0
 57131  1  0  0  0
 58132  1  0  0  0
 59 60  1  0  0  0
 59 61  1  0  0  0
 59 62  1  0  0  0
 60133  1  0  0  0
 60134  1  0  0  0
 60135  1  0  0  0
 61136  1  0  0  0
 61137  1  0  0  0
 61138  1  0  0  0
 62139  1  0  0  0
 62140  1  0  0  0
 62141  1  0  0  0
 63 65  1  0  0  0
 63142  1  0  0  0
 63143  1  0  0  0
 63144  1  0  0  0
 64145  1  0  0  0
 65146  1  0  0  0
 68 84  1  0  0  0
 71 72  2  0  0  0
 71 73  1  0  0  0
 71 77  1  0  0  0
 72 74  1  0  0  0
 72 78  1  0  0  0
 73 75  2  0  0  0
 73 79  1  0  0  0
 74 76  2  0  0  0
 74 80  1  0  0  0
 75 76  1  0  0  0
 75 81  1  0  0  0
 76 87  1  0  0  0
 77147  1  0  0  0
 77148  1  0  0  0
 77149  1  0  0  0
 78150  1  0  0  0
 78151  1  0  0  0
 78152  1  0  0  0
 79153  1  0  0  0
 79154  1  0  0  0
 79155  1  0  0  0
 80156  1  0  0  0
 80157  1  0  0  0
 80158  1  0  0  0
 81 83  1  0  0  0
 81159  1  0  0  0
 81160  1  0  0  0
 82 84  1  0  0  0
 82 85  1  0  0  0
 82161  1  0  0  0
 82162  1  0  0  0
 83 86  1  0  0  0
 83163  1  0  0  0
 83164  1  0  0  0
 84165  1  0  0  0
 84166  1  0  0  0
 85 87  1  0  0  0
 85167  1  0  0  0
 85168  1  0  0  0
 86169  1  0  0  0
M  ISO  4   1 100  68 101  84 101  86 100
M  END
> <chiral flag>
0

> <version>
0

> <s_m_source_file>
/data/baiqing/PycharmProjects/Reinvent-master-3.2/result/LINK_invent/BTK/process_docking_weight1_custom_sum_contain_oxygen_bond_distance_aromatic_linkinvent_7_9_3/rearranged_h_0161.sdf

> <i_m_source_file_index>
95

> <r_mmod_Potential_Energy-OPLS-2005>
7402.7333984375

> <r_mmod_Stretch_Energy-OPLS-2005>
3864.208984375

> <r_mmod_Bend_Energy-OPLS-2005>
823.920959472656

> <r_mmod_Torsional_Energy-OPLS-2005>
615.23974609375

> <r_mmod_Improper_Torsional_Energy-OPLS-2005>
31.0745620727539

> <r_mmod_Van_der_Waal_Energy-OPLS-2005>
1976.8955078125

> <r_mmod_Electrostatic_Energy-OPLS-2005>
-455.566375732422

> <r_mmod_Solvation_Energy-OPLS-2005>
-204.23323059082

> <b_mmod_Minimization_Converged-OPLS-2005>
0

> <r_mmod_RMS_Derivative-OPLS-2005>
9.18452644348145

$$$$
95
                    3D
 Structure written by MMmdl.
174183  0  0  1  0            999 V2000
  -30.6829  -14.4433   20.4136 C   0  0  0  0  0  0
  -30.4093  -12.2470   19.4086 C   0  0  0  0  0  0
  -29.4774  -12.4341   18.1922 C   0  0  0  0  0  0
  -27.9972  -12.3324   18.6072 C   0  0  0  0  0  0
  -27.6510  -13.1941   19.8514 C   0  0  2  0  0  0
  -28.7013  -13.0144   20.9745 C   0  0  0  0  0  0
  -25.2593  -13.8148   20.5645 C   0  0  0  0  0  0
  -24.1846  -13.0450   20.9181 C   0  0  0  0  0  0
  -24.6396  -11.6915   20.8774 C   0  0  0  0  0  0
  -23.9094  -10.4306   21.0449 C   0  0  0  0  0  0
  -24.3647   -9.4221   21.9220 C   0  0  0  0  0  0
  -23.6317   -8.2253   22.0772 C   0  0  0  0  0  0
  -22.4298   -8.0302   21.3554 C   0  0  0  0  0  0
  -21.9942   -9.0287   20.4668 C   0  0  0  0  0  0
  -22.7279  -10.2158   20.3078 C   0  0  0  0  0  0
  -21.6864   -6.0767   22.5290 C   0  0  0  0  0  0
  -21.3998   -6.5674   23.8224 C   0  0  0  0  0  0
  -21.3654   -5.6817   24.9183 C   0  0  0  0  0  0
  -21.6044   -4.3083   24.7225 C   0  0  0  0  0  0
  -21.8820   -3.8171   23.4356 C   0  0  0  0  0  0
  -21.9193   -4.6997   22.3423 C   0  0  0  0  0  0
  -22.7886  -13.5273   21.1853 C   0  0  0  0  0  0
  -22.1675   -4.2178   21.0993 F   0  0  0  0  0  0
  -21.5642   -3.4564   25.7745 F   0  0  0  0  0  0
  -30.0335  -13.2572   20.4015 N   0  0  0  0  0  0
  -26.2984  -12.9270   20.3286 N   0  0  0  0  0  0
  -25.9290  -11.6469   20.5766 N   0  0  0  0  0  0
  -22.0516  -12.8245   22.0379 N   0  0  0  0  0  0
  -25.4343  -15.1869   20.4041 N   0  0  0  0  0  0
  -31.8963  -14.5669   20.2353 O   0  0  0  0  0  0
  -21.6657   -6.8909   21.4257 O   0  0  0  0  0  0
  -22.3579  -14.5597   20.6731 O   0  0  0  0  0  0
  -24.6086  -31.8729   23.2137 C   0  0  0  0  0  0
  -25.9017  -32.4860   23.8412 C   0  0  1  0  0  0
  -27.2590  -27.4831   20.1141 C   0  0  0  0  0  0
  -25.5892  -33.8657   24.2359 N   0  0  0  0  0  0
  -23.3955  -30.4919   21.5529 C   0  0  2  0  0  0
  -24.8499  -28.9617   20.1170 C   0  0  0  0  0  0
  -22.7380  -29.4684   22.5045 C   0  0  0  0  0  0
  -18.0248  -28.1363   22.8493 C   0  0  0  0  0  0
  -24.1485  -36.7316   23.2634 C   0  0  0  0  0  0
  -25.9149  -30.8573   21.3578 C   0  0  0  0  0  0
  -25.9994  -29.4911   20.7138 C   0  0  0  0  0  0
  -27.2043  -28.7635   20.7119 C   0  0  0  0  0  0
  -26.0966  -26.9645   19.5025 C   0  0  0  0  0  0
  -24.8908  -27.6948   19.5054 C   0  0  0  0  0  0
  -23.6032  -29.8159   20.1684 C   0  0  0  0  0  0
  -25.4115  -36.3145   24.0343 C   0  0  1  0  0  0
  -20.5838  -28.3645   23.1343 C   0  0  2  0  0  0
  -20.6753  -26.9390   22.5428 C   0  0  0  0  0  0
  -19.5731  -26.6374   21.5228 C   0  0  0  0  0  0
  -18.1900  -26.7925   22.1611 C   0  0  0  0  0  0
  -19.1504  -28.8820   23.2921 C   0  0  0  0  0  0
  -18.9431  -30.1422   23.8942 C   0  0  0  0  0  0
  -17.6437  -30.6583   24.0556 C   0  0  0  0  0  0
  -25.9032  -34.9502   23.5147 C   0  0  0  0  0  0
  -16.5323  -29.9077   23.6325 C   0  0  0  0  0  0
  -16.7242  -28.6482   23.0373 C   0  0  0  0  0  0
  -26.4469  -31.6602   25.0692 C   0  0  0  0  0  0
  -25.3751  -31.3652   26.1432 C   0  0  0  0  0  0
  -27.0275  -30.3050   24.6012 C   0  0  0  0  0  0
  -27.6048  -32.4294   25.7476 C   0  0  0  0  0  0
  -27.5598  -37.1817   24.8470 C   0  0  0  0  0  0
  -21.4113  -29.3029   22.3768 N   0  0  0  0  0  0
  -26.4311  -37.3827   23.9412 N   0  0  0  0  0  0
  -24.6567  -31.0865   22.1023 N   0  0  0  0  0  0
  -23.4166  -28.8250   23.3097 O   0  0  0  0  0  0
  -28.3939  -26.7042   20.0945 O   0  0  0  0  0  0
  -26.5591  -34.8930   22.4709 O   0  0  0  0  0  0
  -23.5311  -32.1472   23.7585 O   0  0  0  0  0  0
  -31.1786  -18.2242   18.0585 C   0  0  0  0  0  0
  -30.9272  -19.3400   18.8601 C   0  0  0  0  0  0
  -30.7754  -16.9458   18.4767 C   0  0  0  0  0  0
  -29.8542  -17.9185   20.5402 C   0  0  0  0  0  0
  -30.2116  -19.2069   20.0701 C   0  0  0  0  0  0
  -30.1915  -16.7746   19.7683 C   0  0  0  0  0  0
  -30.5462  -22.4037   21.9651 C   0  0  0  0  0  0
  -30.9728  -21.0922   21.2886 C   0  0  0  0  0  0
  -28.8651  -21.1194   19.9491 C   0  0  0  0  0  0
  -28.4030  -22.4056   20.6483 C   0  0  1  0  0  0
  -29.6557  -23.2274   21.0168 C   0  0  1  0  0  0
  -30.9058  -15.8282   17.4534 C   0  0  0  0  0  0
  -29.0782  -17.7602   21.8466 C   0  0  0  0  0  0
  -27.4255  -23.1819   19.7435 C   0  0  0  0  0  0
  -30.1849  -25.6564   21.2824 C   0  0  0  0  0  0
  -29.3747  -26.9437   21.1112 C   0  0  0  0  0  0
  -29.8186  -20.3612   20.7639 N   0  0  0  0  0  0
  -29.8534  -15.4893   20.2800 N   0  0  0  0  0  0
  -29.2772  -24.5295   21.6030 N   0  3  0  0  0  0
  -31.4546  -12.3310   19.1031 H   0  0  0  0  0  0
  -30.2933  -11.2477   19.8271 H   0  0  0  0  0  0
  -29.7000  -11.6858   17.4307 H   0  0  0  0  0  0
  -29.6501  -13.3955   17.7161 H   0  0  0  0  0  0
  -27.7852  -11.2832   18.8082 H   0  0  0  0  0  0
  -27.3552  -12.6139   17.7721 H   0  0  0  0  0  0
  -27.6718  -14.2293   19.5123 H   0  0  0  0  0  0
  -28.6593  -12.0045   21.3827 H   0  0  0  0  0  0
  -28.4979  -13.6880   21.8086 H   0  0  0  0  0  0
  -25.2797   -9.5696   22.4812 H   0  0  0  0  0  0
  -24.0041   -7.4640   22.7472 H   0  0  0  0  0  0
  -21.0882   -8.8830   19.8948 H   0  0  0  0  0  0
  -22.3787  -10.9722   19.6184 H   0  0  0  0  0  0
  -21.1965   -7.6176   23.9734 H   0  0  0  0  0  0
  -21.1479   -6.0550   25.9087 H   0  0  0  0  0  0
  -22.0601   -2.7634   23.2861 H   0  0  0  0  0  0
  -22.4144  -11.9882   22.4724 H   0  0  0  0  0  0
  -21.1117  -13.1241   22.2565 H   0  0  0  0  0  0
  -24.6604  -15.8352   20.5015 H   0  0  0  0  0  0
  -26.2749  -15.6328   20.0598 H   0  0  0  0  0  0
  -26.7102  -32.5623   23.1200 H   0  0  0  0  0  0
  -25.0054  -33.9840   25.0515 H   0  0  0  0  0  0
  -22.6806  -31.3048   21.4094 H   0  0  0  0  0  0
  -23.3775  -35.9617   23.3312 H   0  0  0  0  0  0
  -24.3580  -36.8924   22.2043 H   0  0  0  0  0  0
  -23.7182  -37.6502   23.6631 H   0  0  0  0  0  0
  -26.0078  -31.6203   20.5846 H   0  0  0  0  0  0
  -26.8096  -30.9271   21.9631 H   0  0  0  0  0  0
  -28.0802  -29.2036   21.1680 H   0  0  0  0  0  0
  -26.1245  -25.9911   19.0352 H   0  0  0  0  0  0
  -24.0098  -27.2814   19.0350 H   0  0  0  0  0  0
  -23.6941  -30.5854   19.4007 H   0  0  0  0  0  0
  -22.7326  -29.2221   19.8827 H   0  0  0  0  0  0
  -25.1312  -36.2022   25.0843 H   0  0  0  0  0  0
  -20.9911  -28.3180   24.1467 H   0  0  0  0  0  0
  -20.5642  -26.2265   23.3619 H   0  0  0  0  0  0
  -21.6617  -26.7454   22.1197 H   0  0  0  0  0  0
  -19.6893  -25.6291   21.1252 H   0  0  0  0  0  0
  -19.6688  -27.3206   20.6782 H   0  0  0  0  0  0
  -17.4196  -26.6707   21.3984 H   0  0  0  0  0  0
  -18.0270  -26.0046   22.8971 H   0  0  0  0  0  0
  -19.7910  -30.7215   24.2350 H   0  0  0  0  0  0
  -17.4993  -31.6289   24.5096 H   0  0  0  0  0  0
  -15.5330  -30.2997   23.7628 H   0  0  0  0  0  0
  -15.8628  -28.0796   22.7114 H   0  0  0  0  0  0
  -24.5927  -30.7022   25.7719 H   0  0  0  0  0  0
  -24.8948  -32.2793   26.4923 H   0  0  0  0  0  0
  -25.8107  -30.8749   27.0142 H   0  0  0  0  0  0
  -26.2778  -29.6820   24.1102 H   0  0  0  0  0  0
  -27.4103  -29.7264   25.4432 H   0  0  0  0  0  0
  -27.8596  -30.4381   23.9090 H   0  0  0  0  0  0
  -27.2654  -33.3568   26.2089 H   0  0  0  0  0  0
  -28.3832  -32.6892   25.0293 H   0  0  0  0  0  0
  -28.0717  -31.8385   26.5360 H   0  0  0  0  0  0
  -28.2617  -38.0116   24.7557 H   0  0  0  0  0  0
  -28.1105  -36.2663   24.6279 H   0  0  0  0  0  0
  -27.2314  -37.1416   25.8868 H   0  0  0  0  0  0
  -20.9261  -29.8730   21.6979 H   0  0  0  0  0  0
  -26.0226  -38.2910   24.1434 H   0  0  0  0  0  0
  -31.6441  -18.3674   17.0916 H   0  0  0  0  0  0
  -31.2331  -20.3127   18.4997 H   0  0  0  0  0  0
  -31.4352  -22.9683   22.2487 H   0  0  0  0  0  0
  -30.0115  -22.1781   22.8893 H   0  0  0  0  0  0
  -31.4969  -20.4612   22.0106 H   0  0  0  0  0  0
  -31.6905  -21.3083   20.4958 H   0  0  0  0  0  0
  -29.3087  -21.3827   18.9873 H   0  0  0  0  0  0
  -28.0028  -20.4877   19.7278 H   0  0  0  0  0  0
  -27.8675  -22.1264   21.5589 H   0  0  0  0  0  0
  -30.2051  -23.3995   20.0909 H   0  0  0  0  0  0
  -31.4413  -16.1653   16.5660 H   0  0  0  0  0  0
  -29.9100  -15.5302   17.1275 H   0  0  0  0  0  0
  -31.4394  -14.9568   17.8197 H   0  0  0  0  0  0
  -29.1960  -18.6152   22.5109 H   0  0  0  0  0  0
  -29.4066  -16.8896   22.4113 H   0  0  0  0  0  0
  -28.0148  -17.6491   21.6335 H   0  0  0  0  0  0
  -27.9299  -23.6059   18.8753 H   0  0  0  0  0  0
  -26.9381  -23.9955   20.2814 H   0  0  0  0  0  0
  -26.6343  -22.5301   19.3721 H   0  0  0  0  0  0
  -30.9229  -25.7666   22.0775 H   0  0  0  0  0  0
  -30.7405  -25.4769   20.3624 H   0  0  0  0  0  0
  -30.0244  -27.7711   20.8213 H   0  0  0  0  0  0
  -28.9138  -27.2039   22.0657 H   0  0  0  0  0  0
  -28.8830  -15.3196   20.4937 H   0  0  0  0  0  0
  -29.1268  -24.4460   22.5966 H   0  0  0  0  0  0
  -28.3910  -24.7655   21.1801 H   0  0  0  0  0  0
  1 25  1  0  0  0
  1 30  2  0  0  0
  1 88  1  0  0  0
  2  3  1  0  0  0
  2 25  1  0  0  0
  2 90  1  0  0  0
  2 91  1  0  0  0
  3  4  1  0  0  0
  3 92  1  0  0  0
  3 93  1  0  0  0
  4  5  1  0  0  0
  4 94  1  0  0  0
  4 95  1  0  0  0
  5  6  1  0  0  0
  5 26  1  0  0  0
  5 96  1  0  0  0
  6 25  1  0  0  0
  6 97  1  0  0  0
  6 98  1  0  0  0
  7  8  2  0  0  0
  7 26  1  0  0  0
  7 29  1  0  0  0
  8  9  1  0  0  0
  8 22  1  0  0  0
  9 10  1  0  0  0
  9 27  2  0  0  0
 10 11  2  0  0  0
 10 15  1  0  0  0
 11 12  1  0  0  0
 11 99  1  0  0  0
 12 13  2  0  0  0
 12100  1  0  0  0
 13 14  1  0  0  0
 13 31  1  0  0  0
 14 15  2  0  0  0
 14101  1  0  0  0
 15102  1  0  0  0
 16 17  2  0  0  0
 16 21  1  0  0  0
 16 31  1  0  0  0
 17 18  1  0  0  0
 17103  1  0  0  0
 18 19  2  0  0  0
 18104  1  0  0  0
 19 20  1  0  0  0
 19 24  1  0  0  0
 20 21  2  0  0  0
 20105  1  0  0  0
 21 23  1  0  0  0
 22 28  1  0  0  0
 22 32  2  0  0  0
 26 27  1  0  0  0
 28106  1  0  0  0
 28107  1  0  0  0
 29108  1  0  0  0
 29109  1  0  0  0
 33 34  1  0  0  0
 33 66  1  0  0  0
 33 70  2  0  0  0
 34 36  1  0  0  0
 34 59  1  0  0  0
 34110  1  0  0  0
 35 44  2  0  0  0
 35 45  1  0  0  0
 35 68  1  0  0  0
 36 56  1  0  0  0
 36111  1  0  0  0
 37 39  1  0  0  0
 37 47  1  0  0  0
 37 66  1  0  0  0
 37112  1  0  0  0
 38 43  2  0  0  0
 38 46  1  0  0  0
 38 47  1  0  0  0
 39 64  1  0  0  0
 39 67  2  0  0  0
 40 52  1  0  0  0
 40 53  2  0  0  0
 40 58  1  0  0  0
 41113  1  0  0  0
 41114  1  0  0  0
 41115  1  0  0  0
 41 48  1  0  0  0
 42 43  1  0  0  0
 42 66  1  0  0  0
 42116  1  0  0  0
 42117  1  0  0  0
 43 44  1  0  0  0
 44118  1  0  0  0
 45 46  2  0  0  0
 45119  1  0  0  0
 46120  1  0  0  0
 47121  1  0  0  0
 47122  1  0  0  0
 48 56  1  0  0  0
 48 65  1  0  0  0
 48123  1  0  0  0
 49 50  1  0  0  0
 49 53  1  0  0  0
 49 64  1  0  0  0
 49124  1  0  0  0
 50 51  1  0  0  0
 50125  1  0  0  0
 50126  1  0  0  0
 51 52  1  0  0  0
 51127  1  0  0  0
 51128  1  0  0  0
 52129  1  0  0  0
 52130  1  0  0  0
 53 54  1  0  0  0
 54 55  2  0  0  0
 54131  1  0  0  0
 55 57  1  0  0  0
 55132  1  0  0  0
 56 69  2  0  0  0
 57 58  2  0  0  0
 57133  1  0  0  0
 58134  1  0  0  0
 59 60  1  0  0  0
 59 61  1  0  0  0
 59 62  1  0  0  0
 60135  1  0  0  0
 60136  1  0  0  0
 60137  1  0  0  0
 61138  1  0  0  0
 61139  1  0  0  0
 61140  1  0  0  0
 62141  1  0  0  0
 62142  1  0  0  0
 62143  1  0  0  0
 63 65  1  0  0  0
 63144  1  0  0  0
 63145  1  0  0  0
 63146  1  0  0  0
 64147  1  0  0  0
 65148  1  0  0  0
 68 86  1  0  0  0
 71 72  2  0  0  0
 71 73  1  0  0  0
 71149  1  0  0  0
 72 75  1  0  0  0
 72150  1  0  0  0
 73 76  2  0  0  0
 73 82  1  0  0  0
 74 75  2  0  0  0
 74 76  1  0  0  0
 74 83  1  0  0  0
 75 87  1  0  0  0
 76 88  1  0  0  0
 77 78  1  0  0  0
 77 81  1  0  0  0
 77151  1  0  0  0
 77152  1  0  0  0
 78 87  1  0  0  0
 78153  1  0  0  0
 78154  1  0  0  0
 79 80  1  0  0  0
 79 87  1  0  0  0
 79155  1  0  0  0
 79156  1  0  0  0
 80 81  1  0  0  0
 80 84  1  0  0  0
 80157  1  0  0  0
 81 89  1  0  0  0
 81158  1  0  0  0
 82159  1  0  0  0
 82160  1  0  0  0
 82161  1  0  0  0
 83162  1  0  0  0
 83163  1  0  0  0
 83164  1  0  0  0
 84165  1  0  0  0
 84166  1  0  0  0
 84167  1  0  0  0
 85 86  1  0  0  0
 85 89  1  0  0  0
 85168  1  0  0  0
 85169  1  0  0  0
 86170  1  0  0  0
 86171  1  0  0  0
 88172  1  0  0  0
 89173  1  0  0  0
 89174  1  0  0  0
M  CHG  1  89   1
M  ISO  4   1 100  68 101  86 101  88 100
M  END
> <chiral flag>
0

> <version>
0

> <s_m_source_file>
/data/baiqing/PycharmProjects/Reinvent-master-3.2/result/LINK_invent/BTK/process_docking_weight1_custom_sum_contain_oxygen_bond_distance_aromatic_linkinvent_7_9_3/rearranged_h_0161.sdf

> <i_m_source_file_index>
96

> <r_mmod_Potential_Energy-OPLS-2005>
-109.73169708252

> <r_mmod_Stretch_Energy-OPLS-2005>
34.8354415893555

> <r_mmod_Bend_Energy-OPLS-2005>
97.958610534668

> <r_mmod_Torsional_Energy-OPLS-2005>
331.110015869141

> <r_mmod_Improper_Torsional_Energy-OPLS-2005>
14.6846437454224

> <r_mmod_Van_der_Waal_Energy-OPLS-2005>
172.444519042969

> <r_mmod_Electrostatic_Energy-OPLS-2005>
-360.068786621094

> <r_mmod_Solvation_Energy-OPLS-2005>
-422.271789550781

> <b_mmod_Minimization_Converged-OPLS-2005>
0

> <r_mmod_RMS_Derivative-OPLS-2005>
3.33065819740295

$$$$
96
                    3D
 Structure written by MMmdl.
163172  0  0  1  0            999 V2000
  -30.4142  -15.3371   20.3746 C   0  0  0  0  0  0
  -30.4251  -12.8569   19.5466 C   0  0  0  0  0  0
  -29.5339  -12.5943   18.3043 C   0  0  0  0  0  0
  -28.0874  -12.3011   18.7319 C   0  0  0  0  0  0
  -27.6039  -13.2846   19.8252 C   0  0  2  0  0  0
  -28.6276  -13.4939   20.9633 C   0  0  0  0  0  0
  -25.2339  -13.8269   20.5775 C   0  0  0  0  0  0
  -24.1708  -13.0439   20.9274 C   0  0  0  0  0  0
  -24.6378  -11.6941   20.8765 C   0  0  0  0  0  0
  -23.9081  -10.4296   21.0404 C   0  0  0  0  0  0
  -24.3629   -9.4211   21.9181 C   0  0  0  0  0  0
  -23.6302   -8.2246   22.0749 C   0  0  0  0  0  0
  -22.4283   -8.0282   21.3541 C   0  0  0  0  0  0
  -21.9924   -9.0255   20.4641 C   0  0  0  0  0  0
  -22.7254  -10.2134   20.3052 C   0  0  0  0  0  0
  -21.6858   -6.0741   22.5280 C   0  0  0  0  0  0
  -21.4019   -6.5642   23.8214 C   0  0  0  0  0  0
  -21.3662   -5.6792   24.9172 C   0  0  0  0  0  0
  -21.6044   -4.3056   24.7222 C   0  0  0  0  0  0
  -21.8816   -3.8147   23.4343 C   0  0  0  0  0  0
  -21.9194   -4.6967   22.3400 C   0  0  0  0  0  0
  -22.7726  -13.5178   21.1928 C   0  0  0  0  0  0
  -22.1660   -4.2153   21.0980 F   0  0  0  0  0  0
  -21.5628   -3.4537   25.7735 F   0  0  0  0  0  0
  -29.8543  -14.0183   20.3408 N   0  0  0  0  0  0
  -26.2768  -12.9558   20.3235 N   0  0  0  0  0  0
  -25.9315  -11.6650   20.5720 N   0  0  0  0  0  0
  -22.0398  -12.8147   22.0483 N   0  0  0  0  0  0
  -25.3951  -15.2008   20.4222 N   0  0  0  0  0  0
  -31.6288  -15.3020   20.1251 O   0  0  0  0  0  0
  -21.6642   -6.8881   21.4242 O   0  0  0  0  0  0
  -22.3401  -14.5484   20.6779 O   0  0  0  0  0  0
  -24.6660  -31.8196   23.1663 C   0  0  0  0  0  0
  -25.9315  -32.4573   23.8149 C   0  0  1  0  0  0
  -27.2137  -26.8859   20.1991 C   0  0  0  0  0  0
  -25.5974  -33.8396   24.2054 N   0  0  0  0  0  0
  -23.4839  -30.4298   21.5148 C   0  0  2  0  0  0
  -24.9392  -28.8104   20.1059 C   0  0  0  0  0  0
  -22.7697  -29.4414   22.4737 C   0  0  0  0  0  0
  -18.0331  -28.1428   22.8460 C   0  0  0  0  0  0
  -24.1484  -36.7220   23.2652 C   0  0  0  0  0  0
  -26.0537  -30.6122   21.4036 C   0  0  0  0  0  0
  -26.1202  -29.1979   20.7511 C   0  0  0  0  0  0
  -27.2473  -28.2549   20.7778 C   0  0  0  0  0  0
  -26.0125  -26.6683   19.4858 C   0  0  0  0  0  0
  -24.9146  -27.5693   19.4495 C   0  0  0  0  0  0
  -23.7279  -29.7437   20.1409 C   0  0  0  0  0  0
  -25.4127  -36.2963   24.0294 C   0  0  1  0  0  0
  -20.5963  -28.3778   23.1179 C   0  0  2  0  0  0
  -20.6803  -26.9447   22.5411 C   0  0  0  0  0  0
  -19.5772  -26.6378   21.5233 C   0  0  0  0  0  0
  -18.1950  -26.7957   22.1626 C   0  0  0  0  0  0
  -19.1593  -28.8921   23.2808 C   0  0  0  0  0  0
  -18.9508  -30.1509   23.8845 C   0  0  0  0  0  0
  -17.6502  -30.6608   24.0564 C   0  0  0  0  0  0
  -25.9099  -34.9348   23.4999 C   0  0  0  0  0  0
  -16.5392  -29.9099   23.6352 C   0  0  0  0  0  0
  -16.7314  -28.6528   23.0353 C   0  0  0  0  0  0
  -26.4546  -31.6541   25.0701 C   0  0  0  0  0  0
  -25.3658  -31.3822   26.1352 C   0  0  0  0  0  0
  -27.0456  -30.2901   24.6462 C   0  0  0  0  0  0
  -27.6017  -32.4373   25.7514 C   0  0  0  0  0  0
  -27.5561  -37.1764   24.8464 C   0  0  0  0  0  0
  -21.4357  -29.3058   22.3508 N   0  0  0  0  0  0
  -26.4267  -37.3705   23.9410 N   0  0  0  0  0  0
  -24.7560  -30.9816   22.0824 N   0  0  0  0  0  0
  -23.4229  -28.7979   23.2981 O   0  0  0  0  0  0
  -28.1885  -25.7504   20.3368 O   0  0  0  0  0  0
  -26.5712  -34.8885   22.4597 O   0  0  0  0  0  0
  -23.5712  -32.1191   23.6720 O   0  0  0  0  0  0
  -29.4986  -20.1163   22.1037 C   0  0  0  0  0  0
  -29.2919  -19.8660   20.7224 C   0  0  0  0  0  0
  -29.1593  -21.3582   22.7470 C   0  0  0  0  0  0
  -28.8501  -21.1869   20.0303 C   0  0  0  0  0  0
  -28.8014  -22.5611   22.0406 C   0  0  0  0  0  0
  -28.6140  -22.6062   20.6313 C   0  0  0  0  0  0
  -30.2514  -19.0172   22.8632 C   0  0  0  0  0  0
  -31.5230  -18.5344   22.1159 C   0  0  0  0  0  0
  -31.3926  -18.5074   20.5756 C   0  0  0  0  0  0
  -29.9285  -18.2973   20.1704 C   0  0  1  0  0  0
  -29.1813  -21.3997   24.2781 C   0  0  0  0  0  0
  -28.6417  -21.0715   18.5332 C   0  0  0  0  0  0
  -28.6261  -23.8742   22.8071 C   0  0  0  0  0  0
  -28.0215  -24.1355   19.9457 C   0  0  0  0  0  0
  -29.6730  -16.6442   20.4900 N   0  0  0  0  0  0
  -31.4438  -13.0583   19.2145 H   0  0  0  0  0  0
  -30.4949  -11.9603   20.1651 H   0  0  0  0  0  0
  -29.9268  -11.7646   17.7151 H   0  0  0  0  0  0
  -29.5516  -13.4706   17.6548 H   0  0  0  0  0  0
  -28.0593  -11.2822   19.1202 H   0  0  0  0  0  0
  -27.4174  -12.3194   17.8717 H   0  0  0  0  0  0
  -27.5090  -14.2426   19.3117 H   0  0  0  0  0  0
  -28.8066  -12.5722   21.5185 H   0  0  0  0  0  0
  -28.2475  -14.2219   21.6821 H   0  0  0  0  0  0
  -25.2768   -9.5694   22.4767 H   0  0  0  0  0  0
  -24.0010   -7.4638   22.7473 H   0  0  0  0  0  0
  -21.0853   -8.8779   19.8946 H   0  0  0  0  0  0
  -22.3706  -10.9677   19.6169 H   0  0  0  0  0  0
  -21.2013   -7.6148   23.9723 H   0  0  0  0  0  0
  -21.1485   -6.0517   25.9079 H   0  0  0  0  0  0
  -22.0591   -2.7610   23.2841 H   0  0  0  0  0  0
  -22.4032  -11.9794   22.4838 H   0  0  0  0  0  0
  -21.1019  -13.1152   22.2724 H   0  0  0  0  0  0
  -24.6211  -15.8458   20.5394 H   0  0  0  0  0  0
  -26.2311  -15.6486   20.0720 H   0  0  0  0  0  0
  -26.7396  -32.5089   23.0872 H   0  0  0  0  0  0
  -25.0074  -33.9474   25.0170 H   0  0  0  0  0  0
  -22.7996  -31.2628   21.3389 H   0  0  0  0  0  0
  -23.3747  -35.9549   23.3275 H   0  0  0  0  0  0
  -24.3570  -36.8913   22.2079 H   0  0  0  0  0  0
  -23.7236  -37.6394   23.6740 H   0  0  0  0  0  0
  -26.2334  -31.3469   20.6177 H   0  0  0  0  0  0
  -26.9152  -30.6762   22.0560 H   0  0  0  0  0  0
  -28.1301  -28.5426   21.3309 H   0  0  0  0  0  0
  -25.8779  -25.7221   18.9841 H   0  0  0  0  0  0
  -24.0214  -27.2698   18.9187 H   0  0  0  0  0  0
  -23.8875  -30.5123   19.3832 H   0  0  0  0  0  0
  -22.8376  -29.2016   19.8181 H   0  0  0  0  0  0
  -25.1317  -36.1758   25.0782 H   0  0  0  0  0  0
  -21.0056  -28.3385   24.1306 H   0  0  0  0  0  0
  -20.5709  -26.2387   23.3661 H   0  0  0  0  0  0
  -21.6655  -26.7427   22.1196 H   0  0  0  0  0  0
  -19.6930  -25.6282   21.1291 H   0  0  0  0  0  0
  -19.6708  -27.3160   20.6743 H   0  0  0  0  0  0
  -17.4227  -26.6734   21.4017 H   0  0  0  0  0  0
  -18.0311  -26.0125   22.9037 H   0  0  0  0  0  0
  -19.7989  -30.7336   24.2178 H   0  0  0  0  0  0
  -17.5059  -31.6278   24.5185 H   0  0  0  0  0  0
  -15.5391  -30.2983   23.7702 H   0  0  0  0  0  0
  -15.8717  -28.0833   22.7080 H   0  0  0  0  0  0
  -24.5853  -30.7153   25.7672 H   0  0  0  0  0  0
  -24.8828  -32.3035   26.4622 H   0  0  0  0  0  0
  -25.7867  -30.9103   27.0236 H   0  0  0  0  0  0
  -26.3135  -29.6560   24.1450 H   0  0  0  0  0  0
  -27.3964  -29.7292   25.5133 H   0  0  0  0  0  0
  -27.9070  -30.4085   23.9891 H   0  0  0  0  0  0
  -27.2568  -33.3733   26.1924 H   0  0  0  0  0  0
  -28.3906  -32.6851   25.0402 H   0  0  0  0  0  0
  -28.0585  -31.8621   26.5576 H   0  0  0  0  0  0
  -28.2544  -38.0087   24.7500 H   0  0  0  0  0  0
  -28.1079  -36.2608   24.6281 H   0  0  0  0  0  0
  -27.2282  -37.1398   25.8867 H   0  0  0  0  0  0
  -20.9612  -29.8804   21.6683 H   0  0  0  0  0  0
  -26.0108  -38.2756   24.1426 H   0  0  0  0  0  0
  -29.5676  -18.1817   23.0173 H   0  0  0  0  0  0
  -30.5766  -19.3236   23.8551 H   0  0  0  0  0  0
  -31.8050  -17.5520   22.4955 H   0  0  0  0  0  0
  -32.3554  -19.1954   22.3624 H   0  0  0  0  0  0
  -32.0641  -17.7699   20.1420 H   0  0  0  0  0  0
  -31.7333  -19.4623   20.1716 H   0  0  0  0  0  0
  -29.8715  -18.3580   19.0829 H   0  0  0  0  0  0
  -28.9756  -20.4267   24.7238 H   0  0  0  0  0  0
  -28.3916  -22.0345   24.6793 H   0  0  0  0  0  0
  -30.1414  -21.7616   24.6493 H   0  0  0  0  0  0
  -29.5996  -21.0814   18.0136 H   0  0  0  0  0  0
  -28.0328  -21.8871   18.1448 H   0  0  0  0  0  0
  -28.1280  -20.1410   18.2897 H   0  0  0  0  0  0
  -29.1582  -24.6783   22.3027 H   0  0  0  0  0  0
  -29.0460  -23.8759   23.8104 H   0  0  0  0  0  0
  -27.5733  -24.1482   22.8787 H   0  0  0  0  0  0
  -26.9446  -23.9747   19.9162 H   0  0  0  0  0  0
  -28.3271  -24.0974   18.9012 H   0  0  0  0  0  0
  -28.7037  -16.4741   20.7135 H   0  0  0  0  0  0
  1 25  1  0  0  0
  1 30  2  0  0  0
  1 85  1  0  0  0
  2  3  1  0  0  0
  2 25  1  0  0  0
  2 86  1  0  0  0
  2 87  1  0  0  0
  3  4  1  0  0  0
  3 88  1  0  0  0
  3 89  1  0  0  0
  4  5  1  0  0  0
  4 90  1  0  0  0
  4 91  1  0  0  0
  5  6  1  0  0  0
  5 26  1  0  0  0
  5 92  1  0  0  0
  6 25  1  0  0  0
  6 93  1  0  0  0
  6 94  1  0  0  0
  7  8  2  0  0  0
  7 26  1  0  0  0
  7 29  1  0  0  0
  8  9  1  0  0  0
  8 22  1  0  0  0
  9 10  1  0  0  0
  9 27  2  0  0  0
 10 11  2  0  0  0
 10 15  1  0  0  0
 11 12  1  0  0  0
 11 95  1  0  0  0
 12 13  2  0  0  0
 12 96  1  0  0  0
 13 14  1  0  0  0
 13 31  1  0  0  0
 14 15  2  0  0  0
 14 97  1  0  0  0
 15 98  1  0  0  0
 16 17  2  0  0  0
 16 21  1  0  0  0
 16 31  1  0  0  0
 17 18  1  0  0  0
 17 99  1  0  0  0
 18 19  2  0  0  0
 18100  1  0  0  0
 19 20  1  0  0  0
 19 24  1  0  0  0
 20 21  2  0  0  0
 20101  1  0  0  0
 21 23  1  0  0  0
 22 28  1  0  0  0
 22 32  2  0  0  0
 26 27  1  0  0  0
 28102  1  0  0  0
 28103  1  0  0  0
 29104  1  0  0  0
 29105  1  0  0  0
 33 34  1  0  0  0
 33 66  1  0  0  0
 33 70  2  0  0  0
 34 36  1  0  0  0
 34 59  1  0  0  0
 34106  1  0  0  0
 35 44  2  0  0  0
 35 45  1  0  0  0
 35 68  1  0  0  0
 36 56  1  0  0  0
 36107  1  0  0  0
 37 39  1  0  0  0
 37 47  1  0  0  0
 37 66  1  0  0  0
 37108  1  0  0  0
 38 43  2  0  0  0
 38 46  1  0  0  0
 38 47  1  0  0  0
 39 64  1  0  0  0
 39 67  2  0  0  0
 40 52  1  0  0  0
 40 53  2  0  0  0
 40 58  1  0  0  0
 41109  1  0  0  0
 41110  1  0  0  0
 41111  1  0  0  0
 41 48  1  0  0  0
 42 43  1  0  0  0
 42 66  1  0  0  0
 42112  1  0  0  0
 42113  1  0  0  0
 43 44  1  0  0  0
 44114  1  0  0  0
 45 46  2  0  0  0
 45115  1  0  0  0
 46116  1  0  0  0
 47117  1  0  0  0
 47118  1  0  0  0
 48 56  1  0  0  0
 48 65  1  0  0  0
 48119  1  0  0  0
 49 50  1  0  0  0
 49 53  1  0  0  0
 49 64  1  0  0  0
 49120  1  0  0  0
 50 51  1  0  0  0
 50121  1  0  0  0
 50122  1  0  0  0
 51 52  1  0  0  0
 51123  1  0  0  0
 51124  1  0  0  0
 52125  1  0  0  0
 52126  1  0  0  0
 53 54  1  0  0  0
 54 55  2  0  0  0
 54127  1  0  0  0
 55 57  1  0  0  0
 55128  1  0  0  0
 56 69  2  0  0  0
 57 58  2  0  0  0
 57129  1  0  0  0
 58130  1  0  0  0
 59 60  1  0  0  0
 59 61  1  0  0  0
 59 62  1  0  0  0
 60131  1  0  0  0
 60132  1  0  0  0
 60133  1  0  0  0
 61134  1  0  0  0
 61135  1  0  0  0
 61136  1  0  0  0
 62137  1  0  0  0
 62138  1  0  0  0
 62139  1  0  0  0
 63 65  1  0  0  0
 63140  1  0  0  0
 63141  1  0  0  0
 63142  1  0  0  0
 64143  1  0  0  0
 65144  1  0  0  0
 68 84  1  0  0  0
 71 72  1  0  0  0
 71 73  2  0  0  0
 71 77  1  0  0  0
 72 74  2  0  0  0
 72 80  1  0  0  0
 73 75  1  0  0  0
 73 81  1  0  0  0
 74 76  1  0  0  0
 74 82  1  0  0  0
 75 76  2  0  0  0
 75 83  1  0  0  0
 76 84  1  0  0  0
 77 78  1  0  0  0
 77145  1  0  0  0
 77146  1  0  0  0
 78 79  1  0  0  0
 78147  1  0  0  0
 78148  1  0  0  0
 79 80  1  0  0  0
 79149  1  0  0  0
 79150  1  0  0  0
 80 85  1  0  0  0
 80151  1  0  0  0
 81152  1  0  0  0
 81153  1  0  0  0
 81154  1  0  0  0
 82155  1  0  0  0
 82156  1  0  0  0
 82157  1  0  0  0
 83158  1  0  0  0
 83159  1  0  0  0
 83160  1  0  0  0
 84161  1  0  0  0
 84162  1  0  0  0
 85163  1  0  0  0
M  ISO  4   1 100  68 101  84 101  85 100
M  END
> <chiral flag>
0

> <version>
0

> <s_m_source_file>
/data/baiqing/PycharmProjects/Reinvent-master-3.2/result/LINK_invent/BTK/process_docking_weight1_custom_sum_contain_oxygen_bond_distance_aromatic_linkinvent_7_9_3/rearranged_h_0161.sdf

> <i_m_source_file_index>
97

> <r_mmod_Potential_Energy-OPLS-2005>
1455.13391113281

> <r_mmod_Stretch_Energy-OPLS-2005>
666.775512695312

> <r_mmod_Bend_Energy-OPLS-2005>
464.544494628906

> <r_mmod_Torsional_Energy-OPLS-2005>
245.229721069336

> <r_mmod_Improper_Torsional_Energy-OPLS-2005>
8.10531520843506

> <r_mmod_Van_der_Waal_Energy-OPLS-2005>
149.869049072266

> <r_mmod_Electrostatic_Energy-OPLS-2005>
-406.723968505859

> <r_mmod_Solvation_Energy-OPLS-2005>
-207.001358032227

> <b_mmod_Minimization_Converged-OPLS-2005>
0

> <r_mmod_RMS_Derivative-OPLS-2005>
1.67781412601471

$$$$
97
                    3D
 Structure written by MMmdl.
174183  0  0  1  0            999 V2000
  -30.6791  -14.6937   20.4658 C   0  0  0  0  0  0
  -30.4140  -12.4296   19.4605 C   0  0  0  0  0  0
  -29.4976  -12.4987   18.2229 C   0  0  0  0  0  0
  -28.0245  -12.3341   18.6422 C   0  0  0  0  0  0
  -27.6385  -13.2376   19.8451 C   0  0  2  0  0  0
  -28.6866  -13.1789   20.9755 C   0  0  0  0  0  0
  -25.2506  -13.8227   20.5702 C   0  0  0  0  0  0
  -24.1798  -13.0457   20.9192 C   0  0  0  0  0  0
  -24.6397  -11.6937   20.8734 C   0  0  0  0  0  0
  -23.9074  -10.4309   21.0396 C   0  0  0  0  0  0
  -24.3625   -9.4226   21.9174 C   0  0  0  0  0  0
  -23.6306   -8.2255   22.0746 C   0  0  0  0  0  0
  -22.4286   -8.0288   21.3541 C   0  0  0  0  0  0
  -21.9923   -9.0258   20.4642 C   0  0  0  0  0  0
  -22.7243  -10.2142   20.3051 C   0  0  0  0  0  0
  -21.6863   -6.0736   22.5275 C   0  0  0  0  0  0
  -21.4022   -6.5640   23.8207 C   0  0  0  0  0  0
  -21.3660   -5.6790   24.9167 C   0  0  0  0  0  0
  -21.6043   -4.3053   24.7222 C   0  0  0  0  0  0
  -21.8821   -3.8146   23.4346 C   0  0  0  0  0  0
  -21.9200   -4.6964   22.3400 C   0  0  0  0  0  0
  -22.7822  -13.5224   21.1856 C   0  0  0  0  0  0
  -22.1671   -4.2148   21.0978 F   0  0  0  0  0  0
  -21.5626   -3.4536   25.7737 F   0  0  0  0  0  0
  -29.9832  -13.5104   20.3774 N   0  0  0  0  0  0
  -26.2931  -12.9442   20.3284 N   0  0  0  0  0  0
  -25.9328  -11.6575   20.5745 N   0  0  0  0  0  0
  -22.0485  -12.8204   22.0418 N   0  0  0  0  0  0
  -25.4223  -15.1948   20.4154 N   0  0  0  0  0  0
  -31.8861  -14.6857   20.2052 O   0  0  0  0  0  0
  -21.6652   -6.8881   21.4236 O   0  0  0  0  0  0
  -22.3495  -14.5521   20.6701 O   0  0  0  0  0  0
  -24.6309  -31.8577   23.2032 C   0  0  0  0  0  0
  -25.9144  -32.4764   23.8363 C   0  0  1  0  0  0
  -27.2047  -27.2755   20.1163 C   0  0  0  0  0  0
  -25.5943  -33.8566   24.2277 N   0  0  0  0  0  0
  -23.4252  -30.4861   21.5466 C   0  0  2  0  0  0
  -24.8688  -28.9471   20.1055 C   0  0  0  0  0  0
  -22.7505  -29.4617   22.4911 C   0  0  0  0  0  0
  -18.0296  -28.1388   22.8480 C   0  0  0  0  0  0
  -24.1491  -36.7291   23.2639 C   0  0  0  0  0  0
  -25.9733  -30.7755   21.3831 C   0  0  0  0  0  0
  -26.0431  -29.4031   20.7181 C   0  0  0  0  0  0
  -27.2152  -28.5800   20.7150 C   0  0  0  0  0  0
  -26.0075  -26.9009   19.4593 C   0  0  0  0  0  0
  -24.8566  -27.7037   19.4641 C   0  0  0  0  0  0
  -23.6413  -29.8326   20.1584 C   0  0  0  0  0  0
  -25.4116  -36.3077   24.0327 C   0  0  1  0  0  0
  -20.5900  -28.3699   23.1261 C   0  0  2  0  0  0
  -20.6778  -26.9415   22.5404 C   0  0  0  0  0  0
  -19.5752  -26.6383   21.5208 C   0  0  0  0  0  0
  -18.1935  -26.7929   22.1623 C   0  0  0  0  0  0
  -19.1550  -28.8861   23.2865 C   0  0  0  0  0  0
  -18.9468  -30.1459   23.8888 C   0  0  0  0  0  0
  -17.6466  -30.6584   24.0565 C   0  0  0  0  0  0
  -25.9056  -34.9444   23.5099 C   0  0  0  0  0  0
  -16.5357  -29.9083   23.6328 C   0  0  0  0  0  0
  -16.7283  -28.6503   23.0345 C   0  0  0  0  0  0
  -26.4508  -31.6579   25.0742 C   0  0  0  0  0  0
  -25.3737  -31.3720   26.1463 C   0  0  0  0  0  0
  -27.0354  -30.2994   24.6228 C   0  0  0  0  0  0
  -27.6059  -32.4324   25.7519 C   0  0  0  0  0  0
  -27.5579  -37.1802   24.8465 C   0  0  0  0  0  0
  -21.4215  -29.3046   22.3654 N   0  0  0  0  0  0
  -26.4291  -37.3773   23.9408 N   0  0  0  0  0  0
  -24.6956  -31.0570   22.1000 N   0  0  0  0  0  0
  -23.4215  -28.8142   23.2991 O   0  0  0  0  0  0
  -28.2772  -26.3540   20.1927 O   0  0  0  0  0  0
  -26.5628  -34.8914   22.4669 O   0  0  0  0  0  0
  -23.5461  -32.1395   23.7335 O   0  0  0  0  0  0
  -32.3454  -23.7477   19.0784 C   0  0  0  0  0  0
  -32.8848  -22.5169   19.4968 C   0  0  0  0  0  0
  -30.9487  -23.9388   19.1159 C   0  0  0  0  0  0
  -32.0228  -21.4386   19.8486 C   0  0  0  0  0  0
  -30.1075  -23.0152   19.8116 C   0  0  0  0  0  0
  -30.6004  -21.6427   20.0445 C   0  0  0  0  0  0
  -29.8739  -18.2896   19.2029 C   0  0  0  0  0  0
  -29.0828  -18.1795   21.4543 C   0  0  0  0  0  0
  -30.4460  -16.8303   19.2765 C   0  0  0  0  0  0
  -29.5776  -16.6705   21.6012 C   0  0  0  0  0  0
  -29.9788  -19.0570   20.5404 C   0  0  0  0  0  0
  -33.2875  -24.8691   18.6193 C   0  0  0  0  0  0
  -34.4113  -22.3435   19.5252 C   0  0  0  0  0  0
  -30.3868  -25.1384   18.3610 C   0  0  0  0  0  0
  -32.7224  -20.0886   20.0480 C   0  0  0  0  0  0
  -28.7813  -23.5857   20.4557 C   0  0  0  0  0  0
  -27.9428  -24.8996   20.0062 C   0  0  0  0  0  0
  -29.9994  -15.9130   20.3778 N   0  0  0  0  0  0
  -29.7180  -20.5582   20.4659 N   0  0  0  0  0  0
  -31.4574  -12.5209   19.1548 H   0  0  0  0  0  0
  -30.3330  -11.4575   19.9492 H   0  0  0  0  0  0
  -29.7712  -11.7259   17.5030 H   0  0  0  0  0  0
  -29.6334  -13.4543   17.7135 H   0  0  0  0  0  0
  -27.8746  -11.2856   18.9031 H   0  0  0  0  0  0
  -27.3652  -12.5307   17.7966 H   0  0  0  0  0  0
  -27.6319  -14.2592   19.4636 H   0  0  0  0  0  0
  -28.7162  -12.1868   21.4274 H   0  0  0  0  0  0
  -28.4335  -13.8744   21.7751 H   0  0  0  0  0  0
  -25.2776   -9.5705   22.4737 H   0  0  0  0  0  0
  -24.0025   -7.4650   22.7462 H   0  0  0  0  0  0
  -21.0857   -8.8767   19.8949 H   0  0  0  0  0  0
  -22.3696  -10.9670   19.6155 H   0  0  0  0  0  0
  -21.2018   -7.6150   23.9708 H   0  0  0  0  0  0
  -21.1477   -6.0521   25.9065 H   0  0  0  0  0  0
  -22.0603   -2.7609   23.2842 H   0  0  0  0  0  0
  -22.4136  -11.9884   22.4819 H   0  0  0  0  0  0
  -21.1087  -13.1187   22.2611 H   0  0  0  0  0  0
  -24.6622  -15.8548   20.5376 H   0  0  0  0  0  0
  -26.2881  -15.6351   20.1288 H   0  0  0  0  0  0
  -26.7212  -32.5420   23.1106 H   0  0  0  0  0  0
  -25.0082  -33.9705   25.0416 H   0  0  0  0  0  0
  -22.7200  -31.3086   21.4079 H   0  0  0  0  0  0
  -23.3752  -35.9624   23.3303 H   0  0  0  0  0  0
  -24.3587  -36.8913   22.2055 H   0  0  0  0  0  0
  -23.7243  -37.6490   23.6666 H   0  0  0  0  0  0
  -26.1168  -31.5404   20.6188 H   0  0  0  0  0  0
  -26.8495  -30.8166   22.0185 H   0  0  0  0  0  0
  -28.1107  -28.9199   21.2160 H   0  0  0  0  0  0
  -25.9099  -25.9591   18.9433 H   0  0  0  0  0  0
  -23.9608  -27.3526   18.9699 H   0  0  0  0  0  0
  -23.7680  -30.6157   19.4097 H   0  0  0  0  0  0
  -22.7584  -29.2704   19.8480 H   0  0  0  0  0  0
  -25.1295  -36.1928   25.0819 H   0  0  0  0  0  0
  -20.9996  -28.3282   24.1380 H   0  0  0  0  0  0
  -20.5678  -26.2310   23.3612 H   0  0  0  0  0  0
  -21.6642  -26.7434   22.1196 H   0  0  0  0  0  0
  -19.6910  -25.6294   21.1236 H   0  0  0  0  0  0
  -19.6683  -27.3196   20.6741 H   0  0  0  0  0  0
  -17.4200  -26.6680   21.4031 H   0  0  0  0  0  0
  -18.0335  -26.0076   22.9025 H   0  0  0  0  0  0
  -19.7944  -30.7280   24.2251 H   0  0  0  0  0  0
  -17.5019  -31.6261   24.5171 H   0  0  0  0  0  0
  -15.5357  -30.2981   23.7648 H   0  0  0  0  0  0
  -15.8687  -28.0823   22.7051 H   0  0  0  0  0  0
  -24.5926  -30.7050   25.7798 H   0  0  0  0  0  0
  -24.8912  -32.2880   26.4879 H   0  0  0  0  0  0
  -25.8060  -30.8913   27.0246 H   0  0  0  0  0  0
  -26.2933  -29.6744   24.1241 H   0  0  0  0  0  0
  -27.4018  -29.7255   25.4749 H   0  0  0  0  0  0
  -27.8826  -30.4266   23.9487 H   0  0  0  0  0  0
  -27.2659  -33.3630   26.2082 H   0  0  0  0  0  0
  -28.3877  -32.6874   25.0352 H   0  0  0  0  0  0
  -28.0720  -31.8461   26.5448 H   0  0  0  0  0  0
  -28.2588  -38.0105   24.7506 H   0  0  0  0  0  0
  -28.1078  -36.2631   24.6295 H   0  0  0  0  0  0
  -27.2298  -37.1458   25.8869 H   0  0  0  0  0  0
  -20.9399  -29.8798   21.6886 H   0  0  0  0  0  0
  -26.0171  -38.2846   24.1409 H   0  0  0  0  0  0
  -28.8331  -18.2514   18.8784 H   0  0  0  0  0  0
  -30.3888  -18.8313   18.4094 H   0  0  0  0  0  0
  -29.0353  -18.6242   22.4493 H   0  0  0  0  0  0
  -28.0554  -18.1863   21.0858 H   0  0  0  0  0  0
  -31.5305  -16.9397   19.3286 H   0  0  0  0  0  0
  -30.2502  -16.3337   18.3244 H   0  0  0  0  0  0
  -28.8004  -16.1028   22.1126 H   0  0  0  0  0  0
  -30.4313  -16.6700   22.2821 H   0  0  0  0  0  0
  -30.9381  -18.8893   21.0065 H   0  0  0  0  0  0
  -33.9557  -25.1483   19.4340 H   0  0  0  0  0  0
  -32.8116  -25.8053   18.3395 H   0  0  0  0  0  0
  -33.8910  -24.5431   17.7714 H   0  0  0  0  0  0
  -34.9833  -23.2675   19.5346 H   0  0  0  0  0  0
  -34.7473  -21.7716   18.6593 H   0  0  0  0  0  0
  -34.7250  -21.8270   20.4331 H   0  0  0  0  0  0
  -30.3667  -26.0368   18.9761 H   0  0  0  0  0  0
  -29.4102  -24.9280   17.9400 H   0  0  0  0  0  0
  -30.9661  -25.3540   17.4644 H   0  0  0  0  0  0
  -32.7505  -19.8218   21.1041 H   0  0  0  0  0  0
  -33.7478  -20.0263   19.6985 H   0  0  0  0  0  0
  -32.2588  -19.3140   19.4510 H   0  0  0  0  0  0
  -28.9981  -23.6943   21.5185 H   0  0  0  0  0  0
  -28.0719  -22.7598   20.4065 H   0  0  0  0  0  0
  -27.0276  -24.7734   20.5877 H   0  0  0  0  0  0
  -27.6246  -24.7343   18.9786 H   0  0  0  0  0  0
  -28.7489  -20.8225   20.6150 H   0  0  0  0  0  0
  1 25  1  0  0  0
  1 30  2  0  0  0
  1 88  1  0  0  0
  2  3  1  0  0  0
  2 25  1  0  0  0
  2 90  1  0  0  0
  2 91  1  0  0  0
  3  4  1  0  0  0
  3 92  1  0  0  0
  3 93  1  0  0  0
  4  5  1  0  0  0
  4 94  1  0  0  0
  4 95  1  0  0  0
  5  6  1  0  0  0
  5 26  1  0  0  0
  5 96  1  0  0  0
  6 25  1  0  0  0
  6 97  1  0  0  0
  6 98  1  0  0  0
  7  8  2  0  0  0
  7 26  1  0  0  0
  7 29  1  0  0  0
  8  9  1  0  0  0
  8 22  1  0  0  0
  9 10  1  0  0  0
  9 27  2  0  0  0
 10 11  2  0  0  0
 10 15  1  0  0  0
 11 12  1  0  0  0
 11 99  1  0  0  0
 12 13  2  0  0  0
 12100  1  0  0  0
 13 14  1  0  0  0
 13 31  1  0  0  0
 14 15  2  0  0  0
 14101  1  0  0  0
 15102  1  0  0  0
 16 17  2  0  0  0
 16 21  1  0  0  0
 16 31  1  0  0  0
 17 18  1  0  0  0
 17103  1  0  0  0
 18 19  2  0  0  0
 18104  1  0  0  0
 19 20  1  0  0  0
 19 24  1  0  0  0
 20 21  2  0  0  0
 20105  1  0  0  0
 21 23  1  0  0  0
 22 28  1  0  0  0
 22 32  2  0  0  0
 26 27  1  0  0  0
 28106  1  0  0  0
 28107  1  0  0  0
 29108  1  0  0  0
 29109  1  0  0  0
 33 34  1  0  0  0
 33 66  1  0  0  0
 33 70  2  0  0  0
 34 36  1  0  0  0
 34 59  1  0  0  0
 34110  1  0  0  0
 35 44  2  0  0  0
 35 45  1  0  0  0
 35 68  1  0  0  0
 36 56  1  0  0  0
 36111  1  0  0  0
 37 39  1  0  0  0
 37 47  1  0  0  0
 37 66  1  0  0  0
 37112  1  0  0  0
 38 43  2  0  0  0
 38 46  1  0  0  0
 38 47  1  0  0  0
 39 64  1  0  0  0
 39 67  2  0  0  0
 40 52  1  0  0  0
 40 53  2  0  0  0
 40 58  1  0  0  0
 41113  1  0  0  0
 41114  1  0  0  0
 41115  1  0  0  0
 41 48  1  0  0  0
 42 43  1  0  0  0
 42 66  1  0  0  0
 42116  1  0  0  0
 42117  1  0  0  0
 43 44  1  0  0  0
 44118  1  0  0  0
 45 46  2  0  0  0
 45119  1  0  0  0
 46120  1  0  0  0
 47121  1  0  0  0
 47122  1  0  0  0
 48 56  1  0  0  0
 48 65  1  0  0  0
 48123  1  0  0  0
 49 50  1  0  0  0
 49 53  1  0  0  0
 49 64  1  0  0  0
 49124  1  0  0  0
 50 51  1  0  0  0
 50125  1  0  0  0
 50126  1  0  0  0
 51 52  1  0  0  0
 51127  1  0  0  0
 51128  1  0  0  0
 52129  1  0  0  0
 52130  1  0  0  0
 53 54  1  0  0  0
 54 55  2  0  0  0
 54131  1  0  0  0
 55 57  1  0  0  0
 55132  1  0  0  0
 56 69  2  0  0  0
 57 58  2  0  0  0
 57133  1  0  0  0
 58134  1  0  0  0
 59 60  1  0  0  0
 59 61  1  0  0  0
 59 62  1  0  0  0
 60135  1  0  0  0
 60136  1  0  0  0
 60137  1  0  0  0
 61138  1  0  0  0
 61139  1  0  0  0
 61140  1  0  0  0
 62141  1  0  0  0
 62142  1  0  0  0
 62143  1  0  0  0
 63 65  1  0  0  0
 63144  1  0  0  0
 63145  1  0  0  0
 63146  1  0  0  0
 64147  1  0  0  0
 65148  1  0  0  0
 68 87  1  0  0  0
 71 72  2  0  0  0
 71 73  1  0  0  0
 71 82  1  0  0  0
 72 74  1  0  0  0
 72 83  1  0  0  0
 73 75  2  0  0  0
 73 84  1  0  0  0
 74 76  2  0  0  0
 74 85  1  0  0  0
 75 76  1  0  0  0
 75 86  1  0  0  0
 76 89  1  0  0  0
 77 79  1  0  0  0
 77 81  1  0  0  0
 77149  1  0  0  0
 77150  1  0  0  0
 78 80  1  0  0  0
 78 81  1  0  0  0
 78151  1  0  0  0
 78152  1  0  0  0
 79 88  1  0  0  0
 79153  1  0  0  0
 79154  1  0  0  0
 80 88  1  0  0  0
 80155  1  0  0  0
 80156  1  0  0  0
 81 89  1  0  0  0
 81157  1  0  0  0
 82158  1  0  0  0
 82159  1  0  0  0
 82160  1  0  0  0
 83161  1  0  0  0
 83162  1  0  0  0
 83163  1  0  0  0
 84164  1  0  0  0
 84165  1  0  0  0
 84166  1  0  0  0
 85167  1  0  0  0
 85168  1  0  0  0
 85169  1  0  0  0
 86 87  1  0  0  0
 86170  1  0  0  0
 86171  1  0  0  0
 87172  1  0  0  0
 87173  1  0  0  0
 89174  1  0  0  0
M  ISO  4   1 100  68 101  87 101  88 100
M  END
> <chiral flag>
0

> <version>
0

> <s_m_source_file>
/data/baiqing/PycharmProjects/Reinvent-master-3.2/result/LINK_invent/BTK/process_docking_weight1_custom_sum_contain_oxygen_bond_distance_aromatic_linkinvent_7_9_3/rearranged_h_0161.sdf

> <i_m_source_file_index>
98

> <r_mmod_Potential_Energy-OPLS-2005>
465.0302734375

> <r_mmod_Stretch_Energy-OPLS-2005>
135.132476806641

> <r_mmod_Bend_Energy-OPLS-2005>
250.887954711914

> <r_mmod_Torsional_Energy-OPLS-2005>
359.036010742188

> <r_mmod_Improper_Torsional_Energy-OPLS-2005>
18.1690788269043

> <r_mmod_Van_der_Waal_Energy-OPLS-2005>
209.163421630859

> <r_mmod_Electrostatic_Energy-OPLS-2005>
-384.109954833984

> <r_mmod_Solvation_Energy-OPLS-2005>
-202.487609863281

> <b_mmod_Minimization_Converged-OPLS-2005>
0

> <r_mmod_RMS_Derivative-OPLS-2005>
0.871789813041687

$$$$
98
                    3D
 Structure written by MMmdl.
171181  0  0  1  0            999 V2000
  -30.6705  -14.5237   20.5785 C   0  0  0  0  0  0
  -30.4353  -12.3478   19.4175 C   0  0  0  0  0  0
  -29.4949  -12.5204   18.2040 C   0  0  0  0  0  0
  -28.0140  -12.3754   18.6156 C   0  0  0  0  0  0
  -27.6629  -13.1975   19.8847 C   0  0  2  0  0  0
  -28.7124  -12.9281   20.9867 C   0  0  0  0  0  0
  -25.2593  -13.8133   20.5679 C   0  0  0  0  0  0
  -24.1837  -13.0424   20.9177 C   0  0  0  0  0  0
  -24.6383  -11.6888   20.8745 C   0  0  0  0  0  0
  -23.9048  -10.4282   21.0410 C   0  0  0  0  0  0
  -24.3601   -9.4201   21.9190 C   0  0  0  0  0  0
  -23.6279   -8.2236   22.0757 C   0  0  0  0  0  0
  -22.4265   -8.0276   21.3543 C   0  0  0  0  0  0
  -21.9899   -9.0247   20.4644 C   0  0  0  0  0  0
  -22.7225  -10.2127   20.3055 C   0  0  0  0  0  0
  -21.6848   -6.0732   22.5278 C   0  0  0  0  0  0
  -21.4009   -6.5637   23.8211 C   0  0  0  0  0  0
  -21.3657   -5.6791   24.9175 C   0  0  0  0  0  0
  -21.6043   -4.3055   24.7226 C   0  0  0  0  0  0
  -21.8818   -3.8146   23.4348 C   0  0  0  0  0  0
  -21.9190   -4.6962   22.3404 C   0  0  0  0  0  0
  -22.7861  -13.5235   21.1836 C   0  0  0  0  0  0
  -22.1657   -4.2146   21.0982 F   0  0  0  0  0  0
  -21.5633   -3.4541   25.7740 F   0  0  0  0  0  0
  -30.0198  -13.3247   20.4432 N   0  0  0  0  0  0
  -26.3032  -12.9283   20.3426 N   0  0  0  0  0  0
  -25.9310  -11.6450   20.5794 N   0  0  0  0  0  0
  -22.0496  -12.8229   22.0389 N   0  0  0  0  0  0
  -25.4309  -15.1846   20.4040 N   0  0  0  0  0  0
  -31.8142  -14.6720   20.1313 O   0  0  0  0  0  0
  -21.6632   -6.8872   21.4239 O   0  0  0  0  0  0
  -22.3554  -14.5549   20.6694 O   0  0  0  0  0  0
  -24.6154  -31.8675   23.2094 C   0  0  0  0  0  0
  -25.9045  -32.4819   23.8393 C   0  0  1  0  0  0
  -27.2388  -27.4244   20.1060 C   0  0  0  0  0  0
  -25.5899  -33.8617   24.2324 N   0  0  0  0  0  0
  -23.4049  -30.4887   21.5496 C   0  0  2  0  0  0
  -24.8549  -28.9468   20.1232 C   0  0  0  0  0  0
  -22.7416  -29.4655   22.4995 C   0  0  0  0  0  0
  -18.0274  -28.1378   22.8493 C   0  0  0  0  0  0
  -24.1486  -36.7311   23.2639 C   0  0  0  0  0  0
  -25.9340  -30.8266   21.3671 C   0  0  0  0  0  0
  -26.0132  -29.4550   20.7269 C   0  0  0  0  0  0
  -27.2096  -28.6979   20.7240 C   0  0  0  0  0  0
  -26.0692  -26.9335   19.4952 C   0  0  0  0  0  0
  -24.8764  -27.6823   19.5085 C   0  0  0  0  0  0
  -23.6170  -29.8159   20.1667 C   0  0  0  0  0  0
  -25.4107  -36.3110   24.0339 C   0  0  1  0  0  0
  -20.5864  -28.3666   23.1318 C   0  0  2  0  0  0
  -20.6766  -26.9402   22.5419 C   0  0  0  0  0  0
  -19.5744  -26.6388   21.5214 C   0  0  0  0  0  0
  -18.1919  -26.7927   22.1620 C   0  0  0  0  0  0
  -19.1523  -28.8838   23.2902 C   0  0  0  0  0  0
  -18.9452  -30.1445   23.8913 C   0  0  0  0  0  0
  -17.6454  -30.6584   24.0568 C   0  0  0  0  0  0
  -25.9034  -34.9475   23.5129 C   0  0  0  0  0  0
  -16.5345  -29.9086   23.6328 C   0  0  0  0  0  0
  -16.7264  -28.6504   23.0348 C   0  0  0  0  0  0
  -26.4472  -31.6593   25.0717 C   0  0  0  0  0  0
  -25.3734  -31.3685   26.1458 C   0  0  0  0  0  0
  -27.0314  -30.3041   24.6087 C   0  0  0  0  0  0
  -27.6044  -32.4311   25.7486 C   0  0  0  0  0  0
  -27.5579  -37.1813   24.8465 C   0  0  0  0  0  0
  -21.4144  -29.3035   22.3728 N   0  0  0  0  0  0
  -26.4292  -37.3794   23.9409 N   0  0  0  0  0  0
  -24.6693  -31.0762   22.1003 N   0  0  0  0  0  0
  -23.4180  -28.8206   23.3050 O   0  0  0  0  0  0
  -28.3875  -26.6704   20.0020 O   0  0  0  0  0  0
  -26.5599  -34.8928   22.4691 O   0  0  0  0  0  0
  -23.5343  -32.1435   23.7479 O   0  0  0  0  0  0
  -28.8254  -20.2855   21.7399 C   0  0  0  0  0  0
  -29.7458  -21.5605   19.4390 C   0  0  0  0  0  0
  -29.2582  -19.4707   20.6593 C   0  0  0  0  0  0
  -28.8237  -21.7006   21.6716 C   0  0  0  0  0  0
  -29.7099  -20.1432   19.4875 C   0  0  0  0  0  0
  -29.2906  -22.3564   20.5101 C   0  0  0  0  0  0
  -28.7971  -17.3529   22.1310 C   0  0  0  0  0  0
  -28.9741  -15.8414   21.9589 C   0  0  0  0  0  0
  -30.2362  -16.9767   20.3018 C   0  0  0  0  0  0
  -29.0901  -17.9236   20.7445 C   0  0  2  0  0  0
  -28.3214  -22.5133   22.8569 C   0  0  1  0  0  0
  -28.7561  -23.9937   22.7520 C   0  0  2  0  0  0
  -28.5533  -24.5245   21.3077 C   0  0  1  0  0  0
  -30.1268  -19.3885   18.2379 C   0  0  0  0  0  0
  -26.7963  -22.3707   23.0097 C   0  0  0  0  0  0
  -30.2015  -24.1770   23.2634 C   0  0  0  0  0  0
  -28.8806  -26.0482   21.1947 C   0  0  0  0  0  0
  -29.9210  -15.6388   20.8543 N   0  0  0  0  0  0
  -29.3397  -23.7390   20.3925 O   0  0  0  0  0  0
  -31.4735  -12.4751   19.1065 H   0  0  0  0  0  0
  -30.3757  -11.3311   19.8092 H   0  0  0  0  0  0
  -29.7404  -11.7922   17.4300 H   0  0  0  0  0  0
  -29.6528  -13.5035   17.7575 H   0  0  0  0  0  0
  -27.8233  -11.3174   18.7986 H   0  0  0  0  0  0
  -27.3629  -12.6617   17.7888 H   0  0  0  0  0  0
  -27.7147  -14.2502   19.6080 H   0  0  0  0  0  0
  -28.7228  -11.8628   21.2219 H   0  0  0  0  0  0
  -28.4744  -13.3868   21.9409 H   0  0  0  0  0  0
  -25.2746   -9.5681   22.4765 H   0  0  0  0  0  0
  -23.9989   -7.4629   22.7476 H   0  0  0  0  0  0
  -21.0833   -8.8764   19.8946 H   0  0  0  0  0  0
  -22.3689  -10.9666   19.6162 H   0  0  0  0  0  0
  -21.1997   -7.6145   23.9713 H   0  0  0  0  0  0
  -21.1480   -6.0524   25.9076 H   0  0  0  0  0  0
  -22.0599   -2.7609   23.2851 H   0  0  0  0  0  0
  -22.4096  -11.9873   22.4758 H   0  0  0  0  0  0
  -21.1119  -13.1268   22.2598 H   0  0  0  0  0  0
  -24.6642  -15.8401   20.5074 H   0  0  0  0  0  0
  -26.2859  -15.6214   20.0851 H   0  0  0  0  0  0
  -26.7119  -32.5538   23.1162 H   0  0  0  0  0  0
  -25.0061  -33.9778   25.0478 H   0  0  0  0  0  0
  -22.6941  -31.3051   21.4066 H   0  0  0  0  0  0
  -23.3748  -35.9643   23.3307 H   0  0  0  0  0  0
  -24.3582  -36.8919   22.2052 H   0  0  0  0  0  0
  -23.7238  -37.6517   23.6651 H   0  0  0  0  0  0
  -26.0433  -31.5850   20.5906 H   0  0  0  0  0  0
  -26.8230  -30.8883   21.9825 H   0  0  0  0  0  0
  -28.1083  -29.0936   21.1762 H   0  0  0  0  0  0
  -26.0852  -25.9698   19.0057 H   0  0  0  0  0  0
  -23.9876  -27.2856   19.0370 H   0  0  0  0  0  0
  -23.7271  -30.5875   19.4039 H   0  0  0  0  0  0
  -22.7412  -29.2351   19.8714 H   0  0  0  0  0  0
  -25.1284  -36.1976   25.0832 H   0  0  0  0  0  0
  -20.9951  -28.3232   24.1440 H   0  0  0  0  0  0
  -20.5670  -26.2275   23.3606 H   0  0  0  0  0  0
  -21.6638  -26.7444   22.1212 H   0  0  0  0  0  0
  -19.6906  -25.6302   21.1236 H   0  0  0  0  0  0
  -19.6686  -27.3209   20.6753 H   0  0  0  0  0  0
  -17.4194  -26.6687   21.4015 H   0  0  0  0  0  0
  -18.0309  -26.0059   22.9002 H   0  0  0  0  0  0
  -19.7927  -30.7259   24.2286 H   0  0  0  0  0  0
  -17.5008  -31.6264   24.5167 H   0  0  0  0  0  0
  -15.5347  -30.2993   23.7642 H   0  0  0  0  0  0
  -15.8664  -28.0832   22.7049 H   0  0  0  0  0  0
  -24.5921  -30.7019   25.7788 H   0  0  0  0  0  0
  -24.8906  -32.2832   26.4909 H   0  0  0  0  0  0
  -25.8084  -30.8855   27.0216 H   0  0  0  0  0  0
  -26.2864  -29.6797   24.1141 H   0  0  0  0  0  0
  -27.4097  -29.7277   25.4540 H   0  0  0  0  0  0
  -27.8688  -30.4373   23.9232 H   0  0  0  0  0  0
  -27.2665  -33.3607   26.2079 H   0  0  0  0  0  0
  -28.3850  -32.6875   25.0310 H   0  0  0  0  0  0
  -28.0715  -31.8421   26.5389 H   0  0  0  0  0  0
  -28.2601  -38.0107   24.7512 H   0  0  0  0  0  0
  -28.1072  -36.2639   24.6290 H   0  0  0  0  0  0
  -27.2299  -37.1465   25.8869 H   0  0  0  0  0  0
  -20.9313  -29.8749   21.6938 H   0  0  0  0  0  0
  -26.0181  -38.2874   24.1403 H   0  0  0  0  0  0
  -28.4465  -19.8338   22.6444 H   0  0  0  0  0  0
  -30.1009  -22.0561   18.5461 H   0  0  0  0  0  0
  -29.5292  -17.7203   22.8522 H   0  0  0  0  0  0
  -27.8026  -17.6114   22.4977 H   0  0  0  0  0  0
  -27.9998  -15.4368   21.6913 H   0  0  0  0  0  0
  -29.3090  -15.3675   22.8830 H   0  0  0  0  0  0
  -31.1919  -17.3156   20.7050 H   0  0  0  0  0  0
  -30.3318  -16.9115   19.2190 H   0  0  0  0  0  0
  -28.2266  -17.6958   20.1163 H   0  0  0  0  0  0
  -28.7663  -22.0859   23.7570 H   0  0  0  0  0  0
  -28.1246  -24.5779   23.4233 H   0  0  0  0  0  0
  -27.5047  -24.3966   21.0366 H   0  0  0  0  0  0
  -30.1918  -20.0529   17.3757 H   0  0  0  0  0  0
  -29.4006  -18.6150   17.9882 H   0  0  0  0  0  0
  -31.1071  -18.9321   18.3740 H   0  0  0  0  0  0
  -26.2659  -22.7301   22.1278 H   0  0  0  0  0  0
  -26.4312  -22.9317   23.8703 H   0  0  0  0  0  0
  -26.5102  -21.3296   23.1610 H   0  0  0  0  0  0
  -30.9197  -23.6538   22.6316 H   0  0  0  0  0  0
  -30.3128  -23.7894   24.2764 H   0  0  0  0  0  0
  -30.4909  -25.2269   23.2962 H   0  0  0  0  0  0
  -29.9606  -26.1938   21.2186 H   0  0  0  0  0  0
  -28.4905  -26.5705   22.0702 H   0  0  0  0  0  0
  1 25  1  0  0  0
  1 30  2  0  0  0
  1 88  1  0  0  0
  2  3  1  0  0  0
  2 25  1  0  0  0
  2 90  1  0  0  0
  2 91  1  0  0  0
  3  4  1  0  0  0
  3 92  1  0  0  0
  3 93  1  0  0  0
  4  5  1  0  0  0
  4 94  1  0  0  0
  4 95  1  0  0  0
  5  6  1  0  0  0
  5 26  1  0  0  0
  5 96  1  0  0  0
  6 25  1  0  0  0
  6 97  1  0  0  0
  6 98  1  0  0  0
  7  8  2  0  0  0
  7 26  1  0  0  0
  7 29  1  0  0  0
  8  9  1  0  0  0
  8 22  1  0  0  0
  9 10  1  0  0  0
  9 27  2  0  0  0
 10 11  2  0  0  0
 10 15  1  0  0  0
 11 12  1  0  0  0
 11 99  1  0  0  0
 12 13  2  0  0  0
 12100  1  0  0  0
 13 14  1  0  0  0
 13 31  1  0  0  0
 14 15  2  0  0  0
 14101  1  0  0  0
 15102  1  0  0  0
 16 17  2  0  0  0
 16 21  1  0  0  0
 16 31  1  0  0  0
 17 18  1  0  0  0
 17103  1  0  0  0
 18 19  2  0  0  0
 18104  1  0  0  0
 19 20  1  0  0  0
 19 24  1  0  0  0
 20 21  2  0  0  0
 20105  1  0  0  0
 21 23  1  0  0  0
 22 28  1  0  0  0
 22 32  2  0  0  0
 26 27  1  0  0  0
 28106  1  0  0  0
 28107  1  0  0  0
 29108  1  0  0  0
 29109  1  0  0  0
 33 34  1  0  0  0
 33 66  1  0  0  0
 33 70  2  0  0  0
 34 36  1  0  0  0
 34 59  1  0  0  0
 34110  1  0  0  0
 35 44  2  0  0  0
 35 45  1  0  0  0
 35 68  1  0  0  0
 36 56  1  0  0  0
 36111  1  0  0  0
 37 39  1  0  0  0
 37 47  1  0  0  0
 37 66  1  0  0  0
 37112  1  0  0  0
 38 43  2  0  0  0
 38 46  1  0  0  0
 38 47  1  0  0  0
 39 64  1  0  0  0
 39 67  2  0  0  0
 40 52  1  0  0  0
 40 53  2  0  0  0
 40 58  1  0  0  0
 41113  1  0  0  0
 41114  1  0  0  0
 41115  1  0  0  0
 41 48  1  0  0  0
 42 43  1  0  0  0
 42 66  1  0  0  0
 42116  1  0  0  0
 42117  1  0  0  0
 43 44  1  0  0  0
 44118  1  0  0  0
 45 46  2  0  0  0
 45119  1  0  0  0
 46120  1  0  0  0
 47121  1  0  0  0
 47122  1  0  0  0
 48 56  1  0  0  0
 48 65  1  0  0  0
 48123  1  0  0  0
 49 50  1  0  0  0
 49 53  1  0  0  0
 49 64  1  0  0  0
 49124  1  0  0  0
 50 51  1  0  0  0
 50125  1  0  0  0
 50126  1  0  0  0
 51 52  1  0  0  0
 51127  1  0  0  0
 51128  1  0  0  0
 52129  1  0  0  0
 52130  1  0  0  0
 53 54  1  0  0  0
 54 55  2  0  0  0
 54131  1  0  0  0
 55 57  1  0  0  0
 55132  1  0  0  0
 56 69  2  0  0  0
 57 58  2  0  0  0
 57133  1  0  0  0
 58134  1  0  0  0
 59 60  1  0  0  0
 59 61  1  0  0  0
 59 62  1  0  0  0
 60135  1  0  0  0
 60136  1  0  0  0
 60137  1  0  0  0
 61138  1  0  0  0
 61139  1  0  0  0
 61140  1  0  0  0
 62141  1  0  0  0
 62142  1  0  0  0
 62143  1  0  0  0
 63 65  1  0  0  0
 63144  1  0  0  0
 63145  1  0  0  0
 63146  1  0  0  0
 64147  1  0  0  0
 65148  1  0  0  0
 68 87  1  0  0  0
 71 73  2  0  0  0
 71 74  1  0  0  0
 71149  1  0  0  0
 72 75  2  0  0  0
 72 76  1  0  0  0
 72150  1  0  0  0
 73 75  1  0  0  0
 73 80  1  0  0  0
 74 76  2  0  0  0
 74 81  1  0  0  0
 75 84  1  0  0  0
 76 89  1  0  0  0
 77 78  1  0  0  0
 77 80  1  0  0  0
 77151  1  0  0  0
 77152  1  0  0  0
 78 88  1  0  0  0
 78153  1  0  0  0
 78154  1  0  0  0
 79 80  1  0  0  0
 79 88  1  0  0  0
 79155  1  0  0  0
 79156  1  0  0  0
 80157  1  0  0  0
 81 82  1  0  0  0
 81 85  1  0  0  0
 81158  1  0  0  0
 82 83  1  0  0  0
 82 86  1  0  0  0
 82159  1  0  0  0
 83 87  1  0  0  0
 83 89  1  0  0  0
 83160  1  0  0  0
 84161  1  0  0  0
 84162  1  0  0  0
 84163  1  0  0  0
 85164  1  0  0  0
 85165  1  0  0  0
 85166  1  0  0  0
 86167  1  0  0  0
 86168  1  0  0  0
 86169  1  0  0  0
 87170  1  0  0  0
 87171  1  0  0  0
M  ISO  4   1 100  68 101  87 101  88 100
M  END
> <chiral flag>
0

> <version>
0

> <s_m_source_file>
/data/baiqing/PycharmProjects/Reinvent-master-3.2/result/LINK_invent/BTK/process_docking_weight1_custom_sum_contain_oxygen_bond_distance_aromatic_linkinvent_7_9_3/rearranged_h_0161.sdf

> <i_m_source_file_index>
99

> <r_mmod_Potential_Energy-OPLS-2005>
210.654388427734

> <r_mmod_Stretch_Energy-OPLS-2005>
49.3848838806152

> <r_mmod_Bend_Energy-OPLS-2005>
152.147048950195

> <r_mmod_Torsional_Energy-OPLS-2005>
337.616058349609

> <r_mmod_Improper_Torsional_Energy-OPLS-2005>
11.8591318130493

> <r_mmod_Van_der_Waal_Energy-OPLS-2005>
156.066558837891

> <r_mmod_Electrostatic_Energy-OPLS-2005>
-312.303497314453

> <r_mmod_Solvation_Energy-OPLS-2005>
-199.629943847656

> <b_mmod_Minimization_Converged-OPLS-2005>
0

> <r_mmod_RMS_Derivative-OPLS-2005>
0.428676128387451

$$$$
99
                    3D
 Structure written by MMmdl.
179189  0  0  1  0            999 V2000
  -30.7581  -14.4656   20.5371 C   0  0  0  0  0  0
  -30.4134  -12.2998   19.4162 C   0  0  0  0  0  0
  -29.4827  -12.4800   18.2014 C   0  0  0  0  0  0
  -28.0088  -12.3212   18.6225 C   0  0  0  0  0  0
  -27.6433  -13.1776   19.8615 C   0  0  2  0  0  0
  -28.7040  -13.0417   20.9831 C   0  0  0  0  0  0
  -25.2560  -13.8048   20.5715 C   0  0  0  0  0  0
  -24.1799  -13.0365   20.9221 C   0  0  0  0  0  0
  -24.6337  -11.6829   20.8795 C   0  0  0  0  0  0
  -23.9010  -10.4239   21.0451 C   0  0  0  0  0  0
  -24.3577   -9.4163   21.9220 C   0  0  0  0  0  0
  -23.6266   -8.2196   22.0767 C   0  0  0  0  0  0
  -22.4256   -8.0252   21.3549 C   0  0  0  0  0  0
  -21.9879   -9.0225   20.4658 C   0  0  0  0  0  0
  -22.7196  -10.2101   20.3087 C   0  0  0  0  0  0
  -21.6840   -6.0730   22.5292 C   0  0  0  0  0  0
  -21.3994   -6.5640   23.8226 C   0  0  0  0  0  0
  -21.3647   -5.6798   24.9195 C   0  0  0  0  0  0
  -21.6042   -4.3062   24.7245 C   0  0  0  0  0  0
  -21.8815   -3.8148   23.4368 C   0  0  0  0  0  0
  -21.9181   -4.6959   22.3418 C   0  0  0  0  0  0
  -22.7833  -13.5198   21.1863 C   0  0  0  0  0  0
  -22.1654   -4.2145   21.0996 F   0  0  0  0  0  0
  -21.5635   -3.4544   25.7755 F   0  0  0  0  0  0
  -30.0346  -13.3155   20.4086 N   0  0  0  0  0  0
  -26.2940  -12.9131   20.3390 N   0  0  0  0  0  0
  -25.9252  -11.6329   20.5837 N   0  0  0  0  0  0
  -22.0467  -12.8213   22.0418 N   0  0  0  0  0  0
  -25.4270  -15.1774   20.4110 N   0  0  0  0  0  0
  -31.9257  -14.5719   20.1570 O   0  0  0  0  0  0
  -21.6619   -6.8861   21.4249 O   0  0  0  0  0  0
  -22.3529  -14.5497   20.6699 O   0  0  0  0  0  0
  -24.6127  -31.8717   23.2157 C   0  0  0  0  0  0
  -25.9030  -32.4845   23.8437 C   0  0  1  0  0  0
  -27.2372  -27.4683   20.0612 C   0  0  0  0  0  0
  -25.5905  -33.8649   24.2366 N   0  0  0  0  0  0
  -23.3990  -30.4986   21.5559 C   0  0  2  0  0  0
  -24.8449  -28.9771   20.1134 C   0  0  0  0  0  0
  -22.7394  -29.4679   22.4999 C   0  0  0  0  0  0
  -18.0278  -28.1388   22.8497 C   0  0  0  0  0  0
  -24.1490  -36.7316   23.2636 C   0  0  0  0  0  0
  -25.9268  -30.8411   21.3708 C   0  0  0  0  0  0
  -26.0037  -29.4773   20.7207 C   0  0  0  0  0  0
  -27.1974  -28.7194   20.7142 C   0  0  0  0  0  0
  -26.0590  -26.9880   19.4453 C   0  0  0  0  0  0
  -24.8649  -27.7250   19.4818 C   0  0  0  0  0  0
  -23.6055  -29.8384   20.1682 C   0  0  0  0  0  0
  -25.4114  -36.3127   24.0341 C   0  0  1  0  0  0
  -20.5861  -28.3678   23.1320 C   0  0  2  0  0  0
  -20.6779  -26.9419   22.5415 C   0  0  0  0  0  0
  -19.5758  -26.6391   21.5212 C   0  0  0  0  0  0
  -18.1929  -26.7933   22.1620 C   0  0  0  0  0  0
  -19.1524  -28.8850   23.2911 C   0  0  0  0  0  0
  -18.9450  -30.1451   23.8927 C   0  0  0  0  0  0
  -17.6453  -30.6592   24.0571 C   0  0  0  0  0  0
  -25.9043  -34.9487   23.5142 C   0  0  0  0  0  0
  -16.5351  -29.9095   23.6330 C   0  0  0  0  0  0
  -16.7270  -28.6512   23.0352 C   0  0  0  0  0  0
  -26.4479  -31.6607   25.0740 C   0  0  0  0  0  0
  -25.3742  -31.3678   26.1477 C   0  0  0  0  0  0
  -27.0322  -30.3065   24.6083 C   0  0  0  0  0  0
  -27.6077  -32.4312   25.7492 C   0  0  0  0  0  0
  -27.5584  -37.1815   24.8471 C   0  0  0  0  0  0
  -21.4126  -29.3047   22.3723 N   0  0  0  0  0  0
  -26.4305  -37.3809   23.9411 N   0  0  0  0  0  0
  -24.6641  -31.0837   22.1065 N   0  0  0  0  0  0
  -23.4157  -28.8222   23.3045 O   0  0  0  0  0  0
  -28.3920  -26.7162   20.0798 O   0  0  0  0  0  0
  -26.5586  -34.8929   22.4693 O   0  0  0  0  0  0
  -23.5318  -32.1492   23.7544 O   0  0  0  0  0  0
  -30.6622  -20.3319   19.2325 C   0  0  0  0  0  0
  -29.1384  -22.2362   20.5875 C   0  0  0  0  0  0
  -30.0070  -19.9649   20.4320 C   0  0  0  0  0  0
  -29.5933  -22.5313   19.2822 C   0  0  0  0  0  0
  -29.3311  -20.9691   21.1669 C   0  0  0  0  0  0
  -30.4711  -21.6073   18.6535 C   0  0  0  0  0  0
  -27.1439  -24.0478   17.3610 C   0  0  0  0  0  0
  -28.5486  -23.5281   17.0823 C   0  0  0  0  0  0
  -27.4439  -23.7659   18.8303 C   0  0  0  0  0  0
  -29.5285  -17.6061   19.6256 C   0  0  0  0  0  0
  -31.0659  -17.8486   21.5443 C   0  0  0  0  0  0
  -29.1241  -16.2031   20.0847 C   0  0  0  0  0  0
  -30.6776  -16.4284   22.0363 C   0  0  0  0  0  0
  -29.8757  -18.4874   20.8234 C   0  0  0  0  0  0
  -28.9751  -23.7540   18.5649 C   0  0  0  0  0  0
  -28.7163  -20.7029   22.5313 C   0  0  0  0  0  0
  -31.1660  -21.9065   17.3345 C   0  0  0  0  0  0
  -30.7644  -25.0523   20.0160 C   0  0  0  0  0  0
  -28.9904  -26.4151   18.8166 C   0  0  0  0  0  0
  -29.7934  -25.0762   18.8155 C   0  0  2  0  0  0
  -30.0984  -15.5580   20.9870 N   0  0  0  0  0  0
  -31.4565  -12.3817   19.1036 H   0  0  0  0  0  0
  -30.3041  -11.2998   19.8397 H   0  0  0  0  0  0
  -29.7267  -11.7518   17.4271 H   0  0  0  0  0  0
  -29.6365  -13.4649   17.7566 H   0  0  0  0  0  0
  -27.8395  -11.2667   18.8425 H   0  0  0  0  0  0
  -27.3518  -12.5666   17.7872 H   0  0  0  0  0  0
  -27.6166  -14.1931   19.4998 H   0  0  0  0  0  0
  -28.6871  -12.0331   21.3992 H   0  0  0  0  0  0
  -28.4728  -13.7114   21.8136 H   0  0  0  0  0  0
  -25.2727   -9.5648   22.4789 H   0  0  0  0  0  0
  -23.9996   -7.4574   22.7462 H   0  0  0  0  0  0
  -21.0823   -8.8733   19.8947 H   0  0  0  0  0  0
  -22.3672  -10.9647   19.6203 H   0  0  0  0  0  0
  -21.1971   -7.6147   23.9726 H   0  0  0  0  0  0
  -21.1478   -6.0539   25.9099 H   0  0  0  0  0  0
  -22.0600   -2.7610   23.2878 H   0  0  0  0  0  0
  -22.4082  -11.9887   22.4820 H   0  0  0  0  0  0
  -21.1086  -13.1251   22.2597 H   0  0  0  0  0  0
  -24.6589  -15.8322   20.5145 H   0  0  0  0  0  0
  -26.2819  -15.6152   20.0943 H   0  0  0  0  0  0
  -26.7093  -32.5587   23.1204 H   0  0  0  0  0  0
  -25.0086  -33.9827   25.0529 H   0  0  0  0  0  0
  -22.6886  -31.3166   21.4217 H   0  0  0  0  0  0
  -23.3751  -35.9645   23.3320 H   0  0  0  0  0  0
  -24.3584  -36.8910   22.2044 H   0  0  0  0  0  0
  -23.7233  -37.6527   23.6641 H   0  0  0  0  0  0
  -26.0336  -31.6049   20.5992 H   0  0  0  0  0  0
  -26.8168  -30.8978   21.9858 H   0  0  0  0  0  0
  -28.0877  -29.0939   21.2000 H   0  0  0  0  0  0
  -26.0290  -26.0507   18.9221 H   0  0  0  0  0  0
  -23.9751  -27.3344   19.0077 H   0  0  0  0  0  0
  -23.7067  -30.6197   19.4130 H   0  0  0  0  0  0
  -22.7305  -29.2557   19.8730 H   0  0  0  0  0  0
  -25.1282  -36.2004   25.0833 H   0  0  0  0  0  0
  -20.9964  -28.3246   24.1436 H   0  0  0  0  0  0
  -20.5706  -26.2279   23.3596 H   0  0  0  0  0  0
  -21.6644  -26.7480   22.1192 H   0  0  0  0  0  0
  -19.6934  -25.6301   21.1240 H   0  0  0  0  0  0
  -19.6707  -27.3205   20.6742 H   0  0  0  0  0  0
  -17.4204  -26.6689   21.4016 H   0  0  0  0  0  0
  -18.0344  -26.0066   22.9011 H   0  0  0  0  0  0
  -19.7927  -30.7259   24.2310 H   0  0  0  0  0  0
  -17.5016  -31.6279   24.5159 H   0  0  0  0  0  0
  -15.5355  -30.3011   23.7644 H   0  0  0  0  0  0
  -15.8668  -28.0844   22.7060 H   0  0  0  0  0  0
  -24.5954  -30.6988   25.7799 H   0  0  0  0  0  0
  -24.8871  -32.2804   26.4924 H   0  0  0  0  0  0
  -25.8087  -30.8857   27.0239 H   0  0  0  0  0  0
  -26.2860  -29.6808   24.1164 H   0  0  0  0  0  0
  -27.4162  -29.7321   25.4525 H   0  0  0  0  0  0
  -27.8668  -30.4432   23.9197 H   0  0  0  0  0  0
  -27.2741  -33.3630   26.2084 H   0  0  0  0  0  0
  -28.3876  -32.6827   25.0285 H   0  0  0  0  0  0
  -28.0758  -31.8405   26.5387 H   0  0  0  0  0  0
  -28.2608  -38.0104   24.7517 H   0  0  0  0  0  0
  -28.1066  -36.2634   24.6305 H   0  0  0  0  0  0
  -27.2296  -37.1475   25.8872 H   0  0  0  0  0  0
  -20.9289  -29.8753   21.6937 H   0  0  0  0  0  0
  -26.0193  -38.2887   24.1413 H   0  0  0  0  0  0
  -31.2409  -19.5967   18.6909 H   0  0  0  0  0  0
  -28.5296  -22.9605   21.1117 H   0  0  0  0  0  0
  -26.3533  -23.4237   16.9431 H   0  0  0  0  0  0
  -26.9919  -25.0914   17.0937 H   0  0  0  0  0  0
  -29.1006  -24.1098   16.3436 H   0  0  0  0  0  0
  -28.5067  -22.4775   16.7909 H   0  0  0  0  0  0
  -27.0396  -22.7848   19.0890 H   0  0  0  0  0  0
  -27.1288  -24.4778   19.5859 H   0  0  0  0  0  0
  -28.7059  -18.0489   19.0615 H   0  0  0  0  0  0
  -30.3714  -17.5367   18.9365 H   0  0  0  0  0  0
  -31.9317  -17.8015   20.8813 H   0  0  0  0  0  0
  -31.3580  -18.4633   22.3965 H   0  0  0  0  0  0
  -29.0089  -15.6374   19.1606 H   0  0  0  0  0  0
  -28.1565  -16.2326   20.5857 H   0  0  0  0  0  0
  -29.9330  -16.5181   22.8291 H   0  0  0  0  0  0
  -31.5450  -15.9562   22.5011 H   0  0  0  0  0  0
  -29.0187  -18.4115   21.4910 H   0  0  0  0  0  0
  -28.5661  -21.6325   23.0822 H   0  0  0  0  0  0
  -29.3651  -20.0699   23.1373 H   0  0  0  0  0  0
  -27.7470  -20.2148   22.4258 H   0  0  0  0  0  0
  -32.1521  -21.4420   17.3074 H   0  0  0  0  0  0
  -31.3109  -22.9763   17.1867 H   0  0  0  0  0  0
  -30.5947  -21.5116   16.4946 H   0  0  0  0  0  0
  -31.5200  -24.2722   19.9154 H   0  0  0  0  0  0
  -30.2352  -24.8992   20.9569 H   0  0  0  0  0  0
  -31.3006  -25.9987   20.0958 H   0  0  0  0  0  0
  -28.2873  -26.4720   17.9913 H   0  0  0  0  0  0
  -29.6917  -27.2281   18.6229 H   0  0  0  0  0  0
  -30.4599  -25.1684   17.9569 H   0  0  0  0  0  0
  1 25  1  0  0  0
  1 30  2  0  0  0
  1 91  1  0  0  0
  2  3  1  0  0  0
  2 25  1  0  0  0
  2 92  1  0  0  0
  2 93  1  0  0  0
  3  4  1  0  0  0
  3 94  1  0  0  0
  3 95  1  0  0  0
  4  5  1  0  0  0
  4 96  1  0  0  0
  4 97  1  0  0  0
  5  6  1  0  0  0
  5 26  1  0  0  0
  5 98  1  0  0  0
  6 25  1  0  0  0
  6 99  1  0  0  0
  6100  1  0  0  0
  7  8  2  0  0  0
  7 26  1  0  0  0
  7 29  1  0  0  0
  8  9  1  0  0  0
  8 22  1  0  0  0
  9 10  1  0  0  0
  9 27  2  0  0  0
 10 11  2  0  0  0
 10 15  1  0  0  0
 11 12  1  0  0  0
 11101  1  0  0  0
 12 13  2  0  0  0
 12102  1  0  0  0
 13 14  1  0  0  0
 13 31  1  0  0  0
 14 15  2  0  0  0
 14103  1  0  0  0
 15104  1  0  0  0
 16 17  2  0  0  0
 16 21  1  0  0  0
 16 31  1  0  0  0
 17 18  1  0  0  0
 17105  1  0  0  0
 18 19  2  0  0  0
 18106  1  0  0  0
 19 20  1  0  0  0
 19 24  1  0  0  0
 20 21  2  0  0  0
 20107  1  0  0  0
 21 23  1  0  0  0
 22 28  1  0  0  0
 22 32  2  0  0  0
 26 27  1  0  0  0
 28108  1  0  0  0
 28109  1  0  0  0
 29110  1  0  0  0
 29111  1  0  0  0
 33 34  1  0  0  0
 33 66  1  0  0  0
 33 70  2  0  0  0
 34 36  1  0  0  0
 34 59  1  0  0  0
 34112  1  0  0  0
 35 44  2  0  0  0
 35 45  1  0  0  0
 35 68  1  0  0  0
 36 56  1  0  0  0
 36113  1  0  0  0
 37 39  1  0  0  0
 37 47  1  0  0  0
 37 66  1  0  0  0
 37114  1  0  0  0
 38 43  2  0  0  0
 38 46  1  0  0  0
 38 47  1  0  0  0
 39 64  1  0  0  0
 39 67  2  0  0  0
 40 52  1  0  0  0
 40 53  2  0  0  0
 40 58  1  0  0  0
 41115  1  0  0  0
 41116  1  0  0  0
 41117  1  0  0  0
 41 48  1  0  0  0
 42 43  1  0  0  0
 42 66  1  0  0  0
 42118  1  0  0  0
 42119  1  0  0  0
 43 44  1  0  0  0
 44120  1  0  0  0
 45 46  2  0  0  0
 45121  1  0  0  0
 46122  1  0  0  0
 47123  1  0  0  0
 47124  1  0  0  0
 48 56  1  0  0  0
 48 65  1  0  0  0
 48125  1  0  0  0
 49 50  1  0  0  0
 49 53  1  0  0  0
 49 64  1  0  0  0
 49126  1  0  0  0
 50 51  1  0  0  0
 50127  1  0  0  0
 50128  1  0  0  0
 51 52  1  0  0  0
 51129  1  0  0  0
 51130  1  0  0  0
 52131  1  0  0  0
 52132  1  0  0  0
 53 54  1  0  0  0
 54 55  2  0  0  0
 54133  1  0  0  0
 55 57  1  0  0  0
 55134  1  0  0  0
 56 69  2  0  0  0
 57 58  2  0  0  0
 57135  1  0  0  0
 58136  1  0  0  0
 59 60  1  0  0  0
 59 61  1  0  0  0
 59 62  1  0  0  0
 60137  1  0  0  0
 60138  1  0  0  0
 60139  1  0  0  0
 61140  1  0  0  0
 61141  1  0  0  0
 61142  1  0  0  0
 62143  1  0  0  0
 62144  1  0  0  0
 62145  1  0  0  0
 63 65  1  0  0  0
 63146  1  0  0  0
 63147  1  0  0  0
 63148  1  0  0  0
 64149  1  0  0  0
 65150  1  0  0  0
 68 89  1  0  0  0
 71 73  2  0  0  0
 71 76  1  0  0  0
 71151  1  0  0  0
 72 74  1  0  0  0
 72 75  2  0  0  0
 72152  1  0  0  0
 73 75  1  0  0  0
 73 84  1  0  0  0
 74 76  2  0  0  0
 74 85  1  0  0  0
 75 86  1  0  0  0
 76 87  1  0  0  0
 77 78  1  0  0  0
 77 79  1  0  0  0
 77153  1  0  0  0
 77154  1  0  0  0
 78 85  1  0  0  0
 78155  1  0  0  0
 78156  1  0  0  0
 79 85  1  0  0  0
 79157  1  0  0  0
 79158  1  0  0  0
 80 82  1  0  0  0
 80 84  1  0  0  0
 80159  1  0  0  0
 80160  1  0  0  0
 81 83  1  0  0  0
 81 84  1  0  0  0
 81161  1  0  0  0
 81162  1  0  0  0
 82 91  1  0  0  0
 82163  1  0  0  0
 82164  1  0  0  0
 83 91  1  0  0  0
 83165  1  0  0  0
 83166  1  0  0  0
 84167  1  0  0  0
 85 90  1  0  0  0
 86168  1  0  0  0
 86169  1  0  0  0
 86170  1  0  0  0
 87171  1  0  0  0
 87172  1  0  0  0
 87173  1  0  0  0
 88174  1  0  0  0
 88175  1  0  0  0
 88176  1  0  0  0
 88 90  1  0  0  0
 89 90  1  0  0  0
 89177  1  0  0  0
 89178  1  0  0  0
 90179  1  0  0  0
M  ISO  4   1 100  68 101  89 101  91 100
M  END
> <chiral flag>
0

> <version>
0

> <s_m_source_file>
/data/baiqing/PycharmProjects/Reinvent-master-3.2/result/LINK_invent/BTK/process_docking_weight1_custom_sum_contain_oxygen_bond_distance_aromatic_linkinvent_7_9_3/rearranged_h_0161.sdf

> <i_m_source_file_index>
100

> <r_mmod_Potential_Energy-OPLS-2005>
320.542785644531

> <r_mmod_Stretch_Energy-OPLS-2005>
45.4091453552246

> <r_mmod_Bend_Energy-OPLS-2005>
143.805740356445

> <r_mmod_Torsional_Energy-OPLS-2005>
419.075958251953

> <r_mmod_Improper_Torsional_Energy-OPLS-2005>
6.08930730819702

> <r_mmod_Van_der_Waal_Energy-OPLS-2005>
176.261764526367

> <r_mmod_Electrostatic_Energy-OPLS-2005>
-304.173583984375

> <r_mmod_Solvation_Energy-OPLS-2005>
-184.253509521484

> <b_mmod_Minimization_Converged-OPLS-2005>
0

> <r_mmod_RMS_Derivative-OPLS-2005>
1.94547724723816

$$$$
