0
                    3D
 Structure written by MMmdl.
178188  0  0  1  0            999 V2000
  -30.7547  -14.6706   20.4923 C   0  0  0  0  0  0
  -30.4073  -12.4324   19.4565 C   0  0  0  0  0  0
  -29.4976  -12.5007   18.2151 C   0  0  0  0  0  0
  -28.0265  -12.3178   18.6319 C   0  0  0  0  0  0
  -27.6372  -13.2193   19.8340 C   0  0  2  0  0  0
  -28.6917  -13.1727   20.9655 C   0  0  0  0  0  0
  -25.2512  -13.8181   20.5662 C   0  0  0  0  0  0
  -24.1812  -13.0442   20.9187 C   0  0  0  0  0  0
  -24.6394  -11.6918   20.8738 C   0  0  0  0  0  0
  -23.9076  -10.4311   21.0406 C   0  0  0  0  0  0
  -24.3641   -9.4222   21.9176 C   0  0  0  0  0  0
  -23.6318   -8.2257   22.0739 C   0  0  0  0  0  0
  -22.4297   -8.0289   21.3535 C   0  0  0  0  0  0
  -21.9932   -9.0267   20.4634 C   0  0  0  0  0  0
  -22.7260  -10.2146   20.3044 C   0  0  0  0  0  0
  -21.6868   -6.0746   22.5290 C   0  0  0  0  0  0
  -21.4020   -6.5643   23.8225 C   0  0  0  0  0  0
  -21.3649   -5.6786   24.9176 C   0  0  0  0  0  0
  -21.6036   -4.3051   24.7226 C   0  0  0  0  0  0
  -21.8825   -3.8148   23.4346 C   0  0  0  0  0  0
  -21.9192   -4.6970   22.3406 C   0  0  0  0  0  0
  -22.7821  -13.5218   21.1838 C   0  0  0  0  0  0
  -22.1659   -4.2155   21.0984 F   0  0  0  0  0  0
  -21.5628   -3.4527   25.7735 F   0  0  0  0  0  0
  -29.9874  -13.5268   20.3709 N   0  0  0  0  0  0
  -26.2927  -12.9370   20.3225 N   0  0  0  0  0  0
  -25.9316  -11.6527   20.5725 N   0  0  0  0  0  0
  -22.0460  -12.8228   22.0399 N   0  0  0  0  0  0
  -25.4172  -15.1910   20.4059 N   0  0  0  0  0  0
  -31.9488  -14.5728   20.1994 O   0  0  0  0  0  0
  -21.6648   -6.8892   21.4245 O   0  0  0  0  0  0
  -22.3506  -14.5506   20.6652 O   0  0  0  0  0  0
  -24.6250  -31.8628   23.2091 C   0  0  0  0  0  0
  -25.9130  -32.4779   23.8363 C   0  0  1  0  0  0
  -27.2033  -27.3364   20.1092 C   0  0  0  0  0  0
  -25.5958  -33.8577   24.2272 N   0  0  0  0  0  0
  -23.4122  -30.4948   21.5516 C   0  0  2  0  0  0
  -24.8519  -28.9657   20.1113 C   0  0  0  0  0  0
  -22.7473  -29.4649   22.4966 C   0  0  0  0  0  0
  -18.0282  -28.1375   22.8485 C   0  0  0  0  0  0
  -24.1489  -36.7305   23.2637 C   0  0  0  0  0  0
  -25.9532  -30.8034   21.3776 C   0  0  0  0  0  0
  -26.0238  -29.4341   20.7191 C   0  0  0  0  0  0
  -27.2025  -28.6307   20.7149 C   0  0  0  0  0  0
  -25.9992  -26.9299   19.4779 C   0  0  0  0  0  0
  -24.8410  -27.7179   19.4834 C   0  0  0  0  0  0
  -23.6238  -29.8461   20.1606 C   0  0  0  0  0  0
  -25.4117  -36.3076   24.0313 C   0  0  1  0  0  0
  -20.5879  -28.3690   23.1296 C   0  0  2  0  0  0
  -20.6768  -26.9420   22.5420 C   0  0  0  0  0  0
  -19.5742  -26.6380   21.5222 C   0  0  0  0  0  0
  -18.1921  -26.7918   22.1625 C   0  0  0  0  0  0
  -19.1534  -28.8845   23.2879 C   0  0  0  0  0  0
  -18.9461  -30.1441   23.8905 C   0  0  0  0  0  0
  -17.6465  -30.6576   24.0560 C   0  0  0  0  0  0
  -25.9062  -34.9449   23.5084 C   0  0  0  0  0  0
  -16.5353  -29.9079   23.6322 C   0  0  0  0  0  0
  -16.7271  -28.6494   23.0341 C   0  0  0  0  0  0
  -26.4518  -31.6564   25.0716 C   0  0  0  0  0  0
  -25.3758  -31.3711   26.1447 C   0  0  0  0  0  0
  -27.0359  -30.2982   24.6159 C   0  0  0  0  0  0
  -27.6044  -32.4309   25.7517 C   0  0  0  0  0  0
  -27.5576  -37.1817   24.8453 C   0  0  0  0  0  0
  -21.4195  -29.3049   22.3708 N   0  0  0  0  0  0
  -26.4280  -37.3787   23.9408 N   0  0  0  0  0  0
  -24.6815  -31.0691   22.1020 N   0  0  0  0  0  0
  -23.4231  -28.8200   23.3023 O   0  0  0  0  0  0
  -28.3122  -26.4709   20.1512 O   0  0  0  0  0  0
  -26.5621  -34.8922   22.4645 O   0  0  0  0  0  0
  -23.5429  -32.1392   23.7472 O   0  0  0  0  0  0
  -28.6919  -22.5133   19.2791 C   0  0  0  0  0  0
  -29.0840  -21.4166   20.0836 C   0  0  0  0  0  0
  -27.9948  -22.2495   18.0709 C   0  0  0  0  0  0
  -27.5823  -20.9176   17.7885 C   0  0  0  0  0  0
  -28.0294  -19.8178   18.5813 C   0  0  0  0  0  0
  -28.8352  -20.0377   19.7418 C   0  0  0  0  0  0
  -29.8025  -21.9422   21.3029 C   0  0  0  0  0  0
  -29.5104  -23.4735   21.3109 C   0  0  0  0  0  0
  -28.5488  -17.9600   21.1594 C   0  0  0  0  0  0
  -28.8564  -16.4108   20.9712 C   0  0  0  0  0  0
  -30.5883  -18.3533   19.8269 C   0  0  0  0  0  0
  -31.1765  -17.1402   20.6014 C   0  0  1  0  0  0
  -29.1427  -23.8984   19.8630 C   0  0  1  0  0  0
  -27.6970  -23.3434   17.0496 C   0  0  0  0  0  0
  -26.6455  -20.6684   16.6047 C   0  0  0  0  0  0
  -27.6377  -18.4054   18.1353 C   0  0  0  0  0  0
  -31.7626  -17.5324   21.9739 C   0  0  0  0  0  0
  -30.4296  -24.3846   19.1755 C   0  0  0  0  0  0
  -28.0485  -25.0573   19.8095 C   0  0  0  0  0  0
  -29.4118  -18.9375   20.4655 N   0  0  0  0  0  0
  -30.2506  -15.9618   20.6932 N   0  0  0  0  0  0
  -31.4521  -12.4924   19.1478 H   0  0  0  0  0  0
  -30.3136  -11.4629   19.9492 H   0  0  0  0  0  0
  -29.7848  -11.7383   17.4884 H   0  0  0  0  0  0
  -29.6240  -13.4627   17.7162 H   0  0  0  0  0  0
  -27.8812  -11.2678   18.8907 H   0  0  0  0  0  0
  -27.3744  -12.5160   17.7803 H   0  0  0  0  0  0
  -27.6165  -14.2216   19.4176 H   0  0  0  0  0  0
  -28.7392  -12.1730   21.4013 H   0  0  0  0  0  0
  -28.4251  -13.8236   21.7924 H   0  0  0  0  0  0
  -25.2800   -9.5712   22.4717 H   0  0  0  0  0  0
  -24.0043   -7.4653   22.7465 H   0  0  0  0  0  0
  -21.0861   -8.8795   19.8950 H   0  0  0  0  0  0
  -22.3738  -10.9675   19.6133 H   0  0  0  0  0  0
  -21.2028   -7.6151   23.9736 H   0  0  0  0  0  0
  -21.1449   -6.0507   25.9082 H   0  0  0  0  0  0
  -22.0615   -2.7610   23.2843 H   0  0  0  0  0  0
  -22.4074  -11.9931   22.4860 H   0  0  0  0  0  0
  -21.1032  -13.1219   22.2503 H   0  0  0  0  0  0
  -24.6485  -15.8411   20.5289 H   0  0  0  0  0  0
  -26.2645  -15.6359   20.0817 H   0  0  0  0  0  0
  -26.7212  -32.5472   23.1126 H   0  0  0  0  0  0
  -25.0092  -33.9705   25.0406 H   0  0  0  0  0  0
  -22.7022  -31.3147   21.4227 H   0  0  0  0  0  0
  -23.3735  -35.9652   23.3278 H   0  0  0  0  0  0
  -24.3581  -36.8963   22.2056 H   0  0  0  0  0  0
  -23.7258  -37.6505   23.6682 H   0  0  0  0  0  0
  -26.0828  -31.5733   20.6149 H   0  0  0  0  0  0
  -26.8323  -30.8464   22.0084 H   0  0  0  0  0  0
  -28.0951  -28.9884   21.2098 H   0  0  0  0  0  0
  -25.8882  -25.9851   18.9731 H   0  0  0  0  0  0
  -23.9465  -27.3525   18.9979 H   0  0  0  0  0  0
  -23.7538  -30.6301   19.4137 H   0  0  0  0  0  0
  -22.7422  -29.2835   19.8465 H   0  0  0  0  0  0
  -25.1297  -36.1911   25.0804 H   0  0  0  0  0  0
  -20.9957  -28.3266   24.1421 H   0  0  0  0  0  0
  -20.5678  -26.2317   23.3630 H   0  0  0  0  0  0
  -21.6632  -26.7457   22.1207 H   0  0  0  0  0  0
  -19.6911  -25.6297   21.1234 H   0  0  0  0  0  0
  -19.6654  -27.3203   20.6761 H   0  0  0  0  0  0
  -17.4200  -26.6677   21.4011 H   0  0  0  0  0  0
  -18.0309  -26.0042   22.9001 H   0  0  0  0  0  0
  -19.7944  -30.7230   24.2294 H   0  0  0  0  0  0
  -17.5028  -31.6257   24.5158 H   0  0  0  0  0  0
  -15.5352  -30.2983   23.7630 H   0  0  0  0  0  0
  -15.8677  -28.0813   22.7049 H   0  0  0  0  0  0
  -24.5911  -30.7081   25.7786 H   0  0  0  0  0  0
  -24.8975  -32.2890   26.4866 H   0  0  0  0  0  0
  -25.8085  -30.8880   27.0216 H   0  0  0  0  0  0
  -26.2928  -29.6744   24.1174 H   0  0  0  0  0  0
  -27.4057  -29.7220   25.4652 H   0  0  0  0  0  0
  -27.8795  -30.4248   23.9370 H   0  0  0  0  0  0
  -27.2585  -33.3577   26.2107 H   0  0  0  0  0  0
  -28.3860  -32.6933   25.0373 H   0  0  0  0  0  0
  -28.0703  -31.8433   26.5442 H   0  0  0  0  0  0
  -28.2580  -38.0129   24.7504 H   0  0  0  0  0  0
  -28.1080  -36.2658   24.6248 H   0  0  0  0  0  0
  -27.2299  -37.1431   25.8858 H   0  0  0  0  0  0
  -20.9398  -29.8833   21.6962 H   0  0  0  0  0  0
  -26.0144  -38.2852   24.1424 H   0  0  0  0  0  0
  -30.8692  -21.7392   21.1883 H   0  0  0  0  0  0
  -29.4575  -21.4611   22.2177 H   0  0  0  0  0  0
  -30.3156  -24.0622   21.7537 H   0  0  0  0  0  0
  -28.6368  -23.6468   21.9409 H   0  0  0  0  0  0
  -28.6494  -18.1897   22.2212 H   0  0  0  0  0  0
  -27.4989  -18.1514   20.9326 H   0  0  0  0  0  0
  -28.2484  -16.0693   20.1426 H   0  0  0  0  0  0
  -28.4897  -15.9137   21.8674 H   0  0  0  0  0  0
  -30.3601  -18.0552   18.8038 H   0  0  0  0  0  0
  -31.3478  -19.1328   19.7439 H   0  0  0  0  0  0
  -32.0445  -16.8843   19.9905 H   0  0  0  0  0  0
  -26.7163  -23.7858   17.2254 H   0  0  0  0  0  0
  -27.7134  -22.9647   16.0281 H   0  0  0  0  0  0
  -28.4500  -24.1244   17.0619 H   0  0  0  0  0  0
  -27.2163  -20.4803   15.6941 H   0  0  0  0  0  0
  -25.9778  -21.5116   16.4274 H   0  0  0  0  0  0
  -25.9781  -19.8264   16.7802 H   0  0  0  0  0  0
  -27.6897  -18.3023   17.0516 H   0  0  0  0  0  0
  -26.6210  -18.1777   18.4570 H   0  0  0  0  0  0
  -28.2838  -17.6246   18.5158 H   0  0  0  0  0  0
  -30.9927  -17.8118   22.6938 H   0  0  0  0  0  0
  -32.4337  -18.3868   21.8707 H   0  0  0  0  0  0
  -32.3467  -16.7172   22.4019 H   0  0  0  0  0  0
  -31.2388  -23.6597   19.2794 H   0  0  0  0  0  0
  -30.7684  -25.3183   19.6274 H   0  0  0  0  0  0
  -30.2918  -24.5708   18.1135 H   0  0  0  0  0  0
  -27.1847  -24.7108   20.3793 H   0  0  0  0  0  0
  -27.7320  -25.1183   18.7796 H   0  0  0  0  0  0
  1 25  1  0  0  0
  1 30  2  0  0  0
  1 91  1  0  0  0
  2  3  1  0  0  0
  2 25  1  0  0  0
  2 92  1  0  0  0
  2 93  1  0  0  0
  3  4  1  0  0  0
  3 94  1  0  0  0
  3 95  1  0  0  0
  4  5  1  0  0  0
  4 96  1  0  0  0
  4 97  1  0  0  0
  5  6  1  0  0  0
  5 26  1  0  0  0
  5 98  1  0  0  0
  6 25  1  0  0  0
  6 99  1  0  0  0
  6100  1  0  0  0
  7  8  2  0  0  0
  7 26  1  0  0  0
  7 29  1  0  0  0
  8  9  1  0  0  0
  8 22  1  0  0  0
  9 10  1  0  0  0
  9 27  2  0  0  0
 10 11  2  0  0  0
 10 15  1  0  0  0
 11 12  1  0  0  0
 11101  1  0  0  0
 12 13  2  0  0  0
 12102  1  0  0  0
 13 14  1  0  0  0
 13 31  1  0  0  0
 14 15  2  0  0  0
 14103  1  0  0  0
 15104  1  0  0  0
 16 17  2  0  0  0
 16 21  1  0  0  0
 16 31  1  0  0  0
 17 18  1  0  0  0
 17105  1  0  0  0
 18 19  2  0  0  0
 18106  1  0  0  0
 19 20  1  0  0  0
 19 24  1  0  0  0
 20 21  2  0  0  0
 20107  1  0  0  0
 21 23  1  0  0  0
 22 28  1  0  0  0
 22 32  2  0  0  0
 26 27  1  0  0  0
 28108  1  0  0  0
 28109  1  0  0  0
 29110  1  0  0  0
 29111  1  0  0  0
 33 34  1  0  0  0
 33 66  1  0  0  0
 33 70  2  0  0  0
 34 36  1  0  0  0
 34 59  1  0  0  0
 34112  1  0  0  0
 35 44  2  0  0  0
 35 45  1  0  0  0
 35 68  1  0  0  0
 36 56  1  0  0  0
 36113  1  0  0  0
 37 39  1  0  0  0
 37 47  1  0  0  0
 37 66  1  0  0  0
 37114  1  0  0  0
 38 43  2  0  0  0
 38 46  1  0  0  0
 38 47  1  0  0  0
 39 64  1  0  0  0
 39 67  2  0  0  0
 40 52  1  0  0  0
 40 53  2  0  0  0
 40 58  1  0  0  0
 41115  1  0  0  0
 41116  1  0  0  0
 41117  1  0  0  0
 41 48  1  0  0  0
 42 43  1  0  0  0
 42 66  1  0  0  0
 42118  1  0  0  0
 42119  1  0  0  0
 43 44  1  0  0  0
 44120  1  0  0  0
 45 46  2  0  0  0
 45121  1  0  0  0
 46122  1  0  0  0
 47123  1  0  0  0
 47124  1  0  0  0
 48 56  1  0  0  0
 48 65  1  0  0  0
 48125  1  0  0  0
 49 50  1  0  0  0
 49 53  1  0  0  0
 49 64  1  0  0  0
 49126  1  0  0  0
 50 51  1  0  0  0
 50127  1  0  0  0
 50128  1  0  0  0
 51 52  1  0  0  0
 51129  1  0  0  0
 51130  1  0  0  0
 52131  1  0  0  0
 52132  1  0  0  0
 53 54  1  0  0  0
 54 55  2  0  0  0
 54133  1  0  0  0
 55 57  1  0  0  0
 55134  1  0  0  0
 56 69  2  0  0  0
 57 58  2  0  0  0
 57135  1  0  0  0
 58136  1  0  0  0
 59 60  1  0  0  0
 59 61  1  0  0  0
 59 62  1  0  0  0
 60137  1  0  0  0
 60138  1  0  0  0
 60139  1  0  0  0
 61140  1  0  0  0
 61141  1  0  0  0
 61142  1  0  0  0
 62143  1  0  0  0
 62144  1  0  0  0
 62145  1  0  0  0
 63 65  1  0  0  0
 63146  1  0  0  0
 63147  1  0  0  0
 63148  1  0  0  0
 64149  1  0  0  0
 65150  1  0  0  0
 68 89  1  0  0  0
 71 72  1  0  0  0
 71 73  2  0  0  0
 71 83  1  0  0  0
 72 76  2  0  0  0
 72 77  1  0  0  0
 73 74  1  0  0  0
 73 84  1  0  0  0
 74 75  2  0  0  0
 74 85  1  0  0  0
 75 76  1  0  0  0
 75 86  1  0  0  0
 76 90  1  0  0  0
 77 78  1  0  0  0
 77151  1  0  0  0
 77152  1  0  0  0
 78 83  1  0  0  0
 78153  1  0  0  0
 78154  1  0  0  0
 79 80  1  0  0  0
 79 90  1  0  0  0
 79155  1  0  0  0
 79156  1  0  0  0
 80 91  1  0  0  0
 80157  1  0  0  0
 80158  1  0  0  0
 81 82  1  0  0  0
 81 90  1  0  0  0
 81159  1  0  0  0
 81160  1  0  0  0
 82 87  1  0  0  0
 82 91  1  0  0  0
 82161  1  0  0  0
 83 88  1  0  0  0
 83 89  1  0  0  0
 84162  1  0  0  0
 84163  1  0  0  0
 84164  1  0  0  0
 85165  1  0  0  0
 85166  1  0  0  0
 85167  1  0  0  0
 86168  1  0  0  0
 86169  1  0  0  0
 86170  1  0  0  0
 87171  1  0  0  0
 87172  1  0  0  0
 87173  1  0  0  0
 88174  1  0  0  0
 88175  1  0  0  0
 88176  1  0  0  0
 89177  1  0  0  0
 89178  1  0  0  0
M  ISO  4   1 100  68 101  89 101  91 100
M  END
> <chiral flag>
0

> <version>
0

> <s_m_source_file>
/data/baiqing/PycharmProjects/Reinvent-master-3.2/result/LINK_invent/BTK/process_docking_weight1_custom_sum_contain_oxygen_bond_distance_aromatic_linkinvent_7_9_3/rearranged_h_0166.sdf

> <i_m_source_file_index>
1

> <r_mmod_Potential_Energy-OPLS-2005>
392.830749511719

> <r_mmod_Stretch_Energy-OPLS-2005>
94.1690521240234

> <r_mmod_Bend_Energy-OPLS-2005>
236.994491577148

> <r_mmod_Torsional_Energy-OPLS-2005>
386.633636474609

> <r_mmod_Improper_Torsional_Energy-OPLS-2005>
8.2136869430542

> <r_mmod_Van_der_Waal_Energy-OPLS-2005>
186.689392089844

> <r_mmod_Electrostatic_Energy-OPLS-2005>
-387.219635009766

> <r_mmod_Solvation_Energy-OPLS-2005>
-196.255142211914

> <b_mmod_Minimization_Converged-OPLS-2005>
0

> <r_mmod_RMS_Derivative-OPLS-2005>
3.46705770492554

$$$$
1
                    3D
 Structure written by MMmdl.
167177  0  0  1  0            999 V2000
  -30.5955  -14.8321   20.4550 C   0  0  0  0  0  0
  -30.4306  -12.5097   19.5001 C   0  0  0  0  0  0
  -29.5166  -12.5211   18.2538 C   0  0  0  0  0  0
  -28.0446  -12.3309   18.6630 C   0  0  0  0  0  0
  -27.6367  -13.2433   19.8500 C   0  0  2  0  0  0
  -28.6774  -13.2226   20.9922 C   0  0  0  0  0  0
  -25.2475  -13.8213   20.5700 C   0  0  0  0  0  0
  -24.1781  -13.0440   20.9204 C   0  0  0  0  0  0
  -24.6390  -11.6924   20.8740 C   0  0  0  0  0  0
  -23.9072  -10.4294   21.0400 C   0  0  0  0  0  0
  -24.3619   -9.4210   21.9179 C   0  0  0  0  0  0
  -23.6295   -8.2246   22.0753 C   0  0  0  0  0  0
  -22.4279   -8.0279   21.3545 C   0  0  0  0  0  0
  -21.9914   -9.0248   20.4643 C   0  0  0  0  0  0
  -22.7244  -10.2129   20.3051 C   0  0  0  0  0  0
  -21.6855   -6.0732   22.5276 C   0  0  0  0  0  0
  -21.4013   -6.5636   23.8209 C   0  0  0  0  0  0
  -21.3659   -5.6790   24.9171 C   0  0  0  0  0  0
  -21.6045   -4.3053   24.7225 C   0  0  0  0  0  0
  -21.8821   -3.8144   23.4348 C   0  0  0  0  0  0
  -21.9195   -4.6960   22.3401 C   0  0  0  0  0  0
  -22.7801  -13.5211   21.1869 C   0  0  0  0  0  0
  -22.1664   -4.2142   21.0980 F   0  0  0  0  0  0
  -21.5630   -3.4541   25.7740 F   0  0  0  0  0  0
  -29.9732  -13.5939   20.4105 N   0  0  0  0  0  0
  -26.2909  -12.9441   20.3281 N   0  0  0  0  0  0
  -25.9327  -11.6572   20.5753 N   0  0  0  0  0  0
  -22.0461  -12.8193   22.0429 N   0  0  0  0  0  0
  -25.4145  -15.1943   20.4129 N   0  0  0  0  0  0
  -31.7769  -14.9018   20.1039 O   0  0  0  0  0  0
  -21.6646   -6.8874   21.4238 O   0  0  0  0  0  0
  -22.3478  -14.5518   20.6724 O   0  0  0  0  0  0
  -24.6402  -31.8490   23.1947 C   0  0  0  0  0  0
  -25.9194  -32.4717   23.8312 C   0  0  1  0  0  0
  -27.2094  -27.1785   20.1390 C   0  0  0  0  0  0
  -25.5959  -33.8523   24.2223 N   0  0  0  0  0  0
  -23.4414  -30.4738   21.5388 C   0  0  2  0  0  0
  -24.8902  -28.9174   20.1059 C   0  0  0  0  0  0
  -22.7553  -29.4578   22.4860 C   0  0  0  0  0  0
  -18.0307  -28.1407   22.8478 C   0  0  0  0  0  0
  -24.1483  -36.7250   23.2646 C   0  0  0  0  0  0
  -25.9975  -30.7317   21.3946 C   0  0  0  0  0  0
  -26.0654  -29.3508   20.7320 C   0  0  0  0  0  0
  -27.2258  -28.4940   20.7418 C   0  0  0  0  0  0
  -26.0147  -26.8570   19.4495 C   0  0  0  0  0  0
  -24.8751  -27.6810   19.4512 C   0  0  0  0  0  0
  -23.6661  -29.8141   20.1542 C   0  0  0  0  0  0
  -25.4119  -36.3042   24.0325 C   0  0  1  0  0  0
  -20.5920  -28.3728   23.1230 C   0  0  2  0  0  0
  -20.6798  -26.9434   22.5397 C   0  0  0  0  0  0
  -19.5766  -26.6385   21.5213 C   0  0  0  0  0  0
  -18.1944  -26.7944   22.1620 C   0  0  0  0  0  0
  -19.1566  -28.8885   23.2845 C   0  0  0  0  0  0
  -18.9487  -30.1480   23.8873 C   0  0  0  0  0  0
  -17.6487  -30.6601   24.0567 C   0  0  0  0  0  0
  -25.9077  -34.9418   23.5077 C   0  0  0  0  0  0
  -16.5374  -29.9096   23.6349 C   0  0  0  0  0  0
  -16.7294  -28.6518   23.0361 C   0  0  0  0  0  0
  -26.4523  -31.6583   25.0746 C   0  0  0  0  0  0
  -25.3705  -31.3763   26.1437 C   0  0  0  0  0  0
  -27.0411  -30.2990   24.6327 C   0  0  0  0  0  0
  -27.6054  -32.4358   25.7522 C   0  0  0  0  0  0
  -27.5569  -37.1782   24.8472 C   0  0  0  0  0  0
  -21.4252  -29.3056   22.3598 N   0  0  0  0  0  0
  -26.4283  -37.3754   23.9416 N   0  0  0  0  0  0
  -24.7121  -31.0387   22.0968 N   0  0  0  0  0  0
  -23.4211  -28.8114   23.2993 O   0  0  0  0  0  0
  -28.2428  -26.1850   20.2445 O   0  0  0  0  0  0
  -26.5648  -34.8902   22.4646 O   0  0  0  0  0  0
  -23.5529  -32.1360   23.7187 O   0  0  0  0  0  0
  -29.4013  -21.0165   19.5865 C   0  0  0  0  0  0
  -29.1063  -22.4110   19.3446 C   0  0  0  0  0  0
  -29.1842  -20.3671   20.8375 C   0  0  0  0  0  0
  -28.4448  -22.7093   21.6125 C   0  0  0  0  0  0
  -28.5958  -23.3238   20.3258 C   0  0  0  0  0  0
  -28.6944  -21.2874   21.8440 C   0  0  0  0  0  0
  -30.4358  -18.4975   22.2430 C   0  0  0  0  0  0
  -31.4030  -17.9448   21.1921 C   0  0  0  0  0  0
  -28.5438  -24.9271   23.0631 C   0  0  0  0  0  0
  -29.4079  -18.7638   21.1243 C   0  0  2  0  0  0
  -27.9290  -23.5823   22.7316 C   0  0  2  0  0  0
  -28.7201  -23.7715   24.0128 C   0  0  2  0  0  0
  -30.1813  -17.5011   20.3781 C   0  0  2  0  0  0
  -28.3671  -20.7326   23.2310 C   0  0  0  0  0  0
  -28.0244  -23.7491   25.3575 C   0  0  0  0  0  0
  -27.8904  -24.7321   19.8927 C   0  0  0  0  0  0
  -29.8505  -16.0024   20.6865 N   0  0  0  0  0  0
  -31.4721  -12.6326   19.1997 H   0  0  0  0  0  0
  -30.3820  -11.5436   20.0048 H   0  0  0  0  0  0
  -29.8161  -11.7376   17.5565 H   0  0  0  0  0  0
  -29.6314  -13.4665   17.7217 H   0  0  0  0  0  0
  -27.9141  -11.2842   18.9403 H   0  0  0  0  0  0
  -27.3878  -12.5026   17.8090 H   0  0  0  0  0  0
  -27.6173  -14.2570   19.4491 H   0  0  0  0  0  0
  -28.7285  -12.2377   21.4583 H   0  0  0  0  0  0
  -28.3941  -13.9214   21.7805 H   0  0  0  0  0  0
  -25.2760   -9.5693   22.4754 H   0  0  0  0  0  0
  -24.0003   -7.4644   22.7480 H   0  0  0  0  0  0
  -21.0842   -8.8763   19.8951 H   0  0  0  0  0  0
  -22.3694  -10.9663   19.6158 H   0  0  0  0  0  0
  -21.2002   -7.6144   23.9706 H   0  0  0  0  0  0
  -21.1480   -6.0523   25.9071 H   0  0  0  0  0  0
  -22.0601   -2.7606   23.2851 H   0  0  0  0  0  0
  -22.4092  -11.9851   22.4796 H   0  0  0  0  0  0
  -21.1082  -13.1209   22.2660 H   0  0  0  0  0  0
  -24.6412  -15.8434   20.5118 H   0  0  0  0  0  0
  -26.2601  -15.6368   20.0770 H   0  0  0  0  0  0
  -26.7258  -32.5325   23.1039 H   0  0  0  0  0  0
  -25.0107  -33.9654   25.0367 H   0  0  0  0  0  0
  -22.7429  -31.2998   21.3898 H   0  0  0  0  0  0
  -23.3757  -35.9570   23.3315 H   0  0  0  0  0  0
  -24.3564  -36.8877   22.2059 H   0  0  0  0  0  0
  -23.7226  -37.6445   23.6675 H   0  0  0  0  0  0
  -26.1591  -31.4899   20.6269 H   0  0  0  0  0  0
  -26.8656  -30.7716   22.0404 H   0  0  0  0  0  0
  -28.1134  -28.8120   21.2696 H   0  0  0  0  0  0
  -25.9054  -25.9270   18.9137 H   0  0  0  0  0  0
  -23.9818  -27.3481   18.9406 H   0  0  0  0  0  0
  -23.8012  -30.5935   19.4034 H   0  0  0  0  0  0
  -22.7810  -29.2576   19.8398 H   0  0  0  0  0  0
  -25.1302  -36.1879   25.0820 H   0  0  0  0  0  0
  -21.0018  -28.3325   24.1348 H   0  0  0  0  0  0
  -20.5712  -26.2341   23.3616 H   0  0  0  0  0  0
  -21.6660  -26.7452   22.1180 H   0  0  0  0  0  0
  -19.6932  -25.6289   21.1257 H   0  0  0  0  0  0
  -19.6710  -27.3182   20.6732 H   0  0  0  0  0  0
  -17.4216  -26.6700   21.4017 H   0  0  0  0  0  0
  -18.0339  -26.0093   22.9023 H   0  0  0  0  0  0
  -19.7966  -30.7300   24.2228 H   0  0  0  0  0  0
  -17.5045  -31.6278   24.5171 H   0  0  0  0  0  0
  -15.5377  -30.2988   23.7699 H   0  0  0  0  0  0
  -15.8692  -28.0831   22.7093 H   0  0  0  0  0  0
  -24.5899  -30.7100   25.7752 H   0  0  0  0  0  0
  -24.8873  -32.2939   26.4807 H   0  0  0  0  0  0
  -25.7981  -30.8975   27.0255 H   0  0  0  0  0  0
  -26.3050  -29.6697   24.1316 H   0  0  0  0  0  0
  -27.4021  -29.7307   25.4909 H   0  0  0  0  0  0
  -27.8944  -30.4252   23.9663 H   0  0  0  0  0  0
  -27.2659  -33.3692   26.2026 H   0  0  0  0  0  0
  -28.3892  -32.6873   25.0364 H   0  0  0  0  0  0
  -28.0684  -31.8535   26.5500 H   0  0  0  0  0  0
  -28.2584  -38.0079   24.7523 H   0  0  0  0  0  0
  -28.1068  -36.2612   24.6297 H   0  0  0  0  0  0
  -27.2284  -37.1432   25.8873 H   0  0  0  0  0  0
  -20.9464  -29.8771   21.6778 H   0  0  0  0  0  0
  -26.0153  -38.2820   24.1433 H   0  0  0  0  0  0
  -29.7565  -20.4185   18.7590 H   0  0  0  0  0  0
  -29.2178  -22.7702   18.3309 H   0  0  0  0  0  0
  -30.8109  -19.3802   22.7608 H   0  0  0  0  0  0
  -30.1070  -17.7361   22.9523 H   0  0  0  0  0  0
  -32.0617  -17.1564   21.5569 H   0  0  0  0  0  0
  -31.9734  -18.7326   20.6958 H   0  0  0  0  0  0
  -27.8735  -25.7281   23.3677 H   0  0  0  0  0  0
  -29.4226  -25.2437   22.5049 H   0  0  0  0  0  0
  -28.4242  -18.3920   21.4145 H   0  0  0  0  0  0
  -26.8453  -23.5040   22.8072 H   0  0  0  0  0  0
  -29.7208  -23.3421   24.0338 H   0  0  0  0  0  0
  -30.3019  -17.6812   19.3092 H   0  0  0  0  0  0
  -28.1385  -19.6696   23.2263 H   0  0  0  0  0  0
  -27.4866  -21.2095   23.6605 H   0  0  0  0  0  0
  -29.2039  -20.8912   23.9110 H   0  0  0  0  0  0
  -27.0115  -24.1464   25.2800 H   0  0  0  0  0  0
  -28.5807  -24.3512   26.0763 H   0  0  0  0  0  0
  -27.9674  -22.7270   25.7326 H   0  0  0  0  0  0
  -26.8757  -24.5637   20.2536 H   0  0  0  0  0  0
  -27.8218  -24.7007   18.8046 H   0  0  0  0  0  0
  -28.8964  -15.8311   20.9671 H   0  0  0  0  0  0
  1 25  1  0  0  0
  1 30  2  0  0  0
  1 87  1  0  0  0
  2  3  1  0  0  0
  2 25  1  0  0  0
  2 88  1  0  0  0
  2 89  1  0  0  0
  3  4  1  0  0  0
  3 90  1  0  0  0
  3 91  1  0  0  0
  4  5  1  0  0  0
  4 92  1  0  0  0
  4 93  1  0  0  0
  5  6  1  0  0  0
  5 26  1  0  0  0
  5 94  1  0  0  0
  6 25  1  0  0  0
  6 95  1  0  0  0
  6 96  1  0  0  0
  7  8  2  0  0  0
  7 26  1  0  0  0
  7 29  1  0  0  0
  8  9  1  0  0  0
  8 22  1  0  0  0
  9 10  1  0  0  0
  9 27  2  0  0  0
 10 11  2  0  0  0
 10 15  1  0  0  0
 11 12  1  0  0  0
 11 97  1  0  0  0
 12 13  2  0  0  0
 12 98  1  0  0  0
 13 14  1  0  0  0
 13 31  1  0  0  0
 14 15  2  0  0  0
 14 99  1  0  0  0
 15100  1  0  0  0
 16 17  2  0  0  0
 16 21  1  0  0  0
 16 31  1  0  0  0
 17 18  1  0  0  0
 17101  1  0  0  0
 18 19  2  0  0  0
 18102  1  0  0  0
 19 20  1  0  0  0
 19 24  1  0  0  0
 20 21  2  0  0  0
 20103  1  0  0  0
 21 23  1  0  0  0
 22 28  1  0  0  0
 22 32  2  0  0  0
 26 27  1  0  0  0
 28104  1  0  0  0
 28105  1  0  0  0
 29106  1  0  0  0
 29107  1  0  0  0
 33 34  1  0  0  0
 33 66  1  0  0  0
 33 70  2  0  0  0
 34 36  1  0  0  0
 34 59  1  0  0  0
 34108  1  0  0  0
 35 44  2  0  0  0
 35 45  1  0  0  0
 35 68  1  0  0  0
 36 56  1  0  0  0
 36109  1  0  0  0
 37 39  1  0  0  0
 37 47  1  0  0  0
 37 66  1  0  0  0
 37110  1  0  0  0
 38 43  2  0  0  0
 38 46  1  0  0  0
 38 47  1  0  0  0
 39 64  1  0  0  0
 39 67  2  0  0  0
 40 52  1  0  0  0
 40 53  2  0  0  0
 40 58  1  0  0  0
 41111  1  0  0  0
 41112  1  0  0  0
 41113  1  0  0  0
 41 48  1  0  0  0
 42 43  1  0  0  0
 42 66  1  0  0  0
 42114  1  0  0  0
 42115  1  0  0  0
 43 44  1  0  0  0
 44116  1  0  0  0
 45 46  2  0  0  0
 45117  1  0  0  0
 46118  1  0  0  0
 47119  1  0  0  0
 47120  1  0  0  0
 48 56  1  0  0  0
 48 65  1  0  0  0
 48121  1  0  0  0
 49 50  1  0  0  0
 49 53  1  0  0  0
 49 64  1  0  0  0
 49122  1  0  0  0
 50 51  1  0  0  0
 50123  1  0  0  0
 50124  1  0  0  0
 51 52  1  0  0  0
 51125  1  0  0  0
 51126  1  0  0  0
 52127  1  0  0  0
 52128  1  0  0  0
 53 54  1  0  0  0
 54 55  2  0  0  0
 54129  1  0  0  0
 55 57  1  0  0  0
 55130  1  0  0  0
 56 69  2  0  0  0
 57 58  2  0  0  0
 57131  1  0  0  0
 58132  1  0  0  0
 59 60  1  0  0  0
 59 61  1  0  0  0
 59 62  1  0  0  0
 60133  1  0  0  0
 60134  1  0  0  0
 60135  1  0  0  0
 61136  1  0  0  0
 61137  1  0  0  0
 61138  1  0  0  0
 62139  1  0  0  0
 62140  1  0  0  0
 62141  1  0  0  0
 63 65  1  0  0  0
 63142  1  0  0  0
 63143  1  0  0  0
 63144  1  0  0  0
 64145  1  0  0  0
 65146  1  0  0  0
 68 86  1  0  0  0
 71 72  2  0  0  0
 71 73  1  0  0  0
 71147  1  0  0  0
 72 75  1  0  0  0
 72148  1  0  0  0
 73 76  2  0  0  0
 73 80  1  0  0  0
 74 75  2  0  0  0
 74 76  1  0  0  0
 74 81  1  0  0  0
 75 86  1  0  0  0
 76 84  1  0  0  0
 77 78  1  0  0  0
 77 80  1  0  0  0
 77149  1  0  0  0
 77150  1  0  0  0
 78 83  1  0  0  0
 78151  1  0  0  0
 78152  1  0  0  0
 79 81  1  0  0  0
 79 82  1  0  0  0
 79153  1  0  0  0
 79154  1  0  0  0
 80 83  1  0  0  0
 80155  1  0  0  0
 81 82  1  0  0  0
 81156  1  0  0  0
 82 85  1  0  0  0
 82157  1  0  0  0
 83 87  1  0  0  0
 83158  1  0  0  0
 84159  1  0  0  0
 84160  1  0  0  0
 84161  1  0  0  0
 85162  1  0  0  0
 85163  1  0  0  0
 85164  1  0  0  0
 86165  1  0  0  0
 86166  1  0  0  0
 87167  1  0  0  0
M  ISO  4   1 100  68 101  86 101  87 100
M  END
> <chiral flag>
0

> <version>
0

> <s_m_source_file>
/data/baiqing/PycharmProjects/Reinvent-master-3.2/result/LINK_invent/BTK/process_docking_weight1_custom_sum_contain_oxygen_bond_distance_aromatic_linkinvent_7_9_3/rearranged_h_0166.sdf

> <i_m_source_file_index>
2

> <r_mmod_Potential_Energy-OPLS-2005>
451.652526855469

> <r_mmod_Stretch_Energy-OPLS-2005>
191.998764038086

> <r_mmod_Bend_Energy-OPLS-2005>
241.775131225586

> <r_mmod_Torsional_Energy-OPLS-2005>
296.505859375

> <r_mmod_Improper_Torsional_Energy-OPLS-2005>
8.34488487243652

> <r_mmod_Van_der_Waal_Energy-OPLS-2005>
143.527435302734

> <r_mmod_Electrostatic_Energy-OPLS-2005>
-369.1669921875

> <r_mmod_Solvation_Energy-OPLS-2005>
-203.05989074707

> <b_mmod_Minimization_Converged-OPLS-2005>
0

> <r_mmod_RMS_Derivative-OPLS-2005>
1.03344988822937

$$$$
2
                    3D
 Structure written by MMmdl.
192202  0  0  1  0            999 V2000
  -29.9176  -15.1680   20.8616 C   0  0  0  0  0  0
  -30.3791  -12.8568   19.6453 C   0  0  0  0  0  0
  -29.5339  -12.6517   18.3499 C   0  0  0  0  0  0
  -28.0583  -12.3392   18.6774 C   0  0  0  0  0  0
  -27.5557  -13.2107   19.8554 C   0  0  2  0  0  0
  -28.5018  -13.0998   21.0545 C   0  0  0  0  0  0
  -25.1566  -13.7756   20.4471 C   0  0  0  0  0  0
  -24.1285  -13.0144   20.9025 C   0  0  0  0  0  0
  -24.6067  -11.6702   20.8862 C   0  0  0  0  0  0
  -23.8868  -10.4119   21.0565 C   0  0  0  0  0  0
  -24.3507   -9.4052   21.9288 C   0  0  0  0  0  0
  -23.6218   -8.2073   22.0783 C   0  0  0  0  0  0
  -22.4208   -8.0133   21.3544 C   0  0  0  0  0  0
  -21.9827   -9.0089   20.4648 C   0  0  0  0  0  0
  -22.7117  -10.1974   20.3120 C   0  0  0  0  0  0
  -21.6802   -6.0646   22.5279 C   0  0  0  0  0  0
  -21.3974   -6.5585   23.8199 C   0  0  0  0  0  0
  -21.3656   -5.6765   24.9183 C   0  0  0  0  0  0
  -21.6050   -4.3024   24.7256 C   0  0  0  0  0  0
  -21.8822   -3.8089   23.4387 C   0  0  0  0  0  0
  -21.9170   -4.6884   22.3425 C   0  0  0  0  0  0
  -22.7404  -13.4983   21.1899 C   0  0  0  0  0  0
  -22.1652   -4.2075   21.1004 F   0  0  0  0  0  0
  -21.5656   -3.4523   25.7782 F   0  0  0  0  0  0
  -29.6663  -13.8015   20.6018 N   0  0  0  0  0  0
  -26.2162  -12.9084   20.2740 N   0  0  0  0  0  0
  -25.8946  -11.6325   20.5805 N   0  0  0  0  0  0
  -22.0233  -12.8022   22.0633 N   0  0  0  0  0  0
  -25.2358  -15.1154   20.1089 N   0  0  0  0  0  0
  -31.1018  -15.4276   20.5139 O   0  0  0  0  0  0
  -21.6581   -6.8741   21.4220 O   0  0  0  0  0  0
  -22.3058  -14.5321   20.6827 O   0  0  0  0  0  0
  -24.6633  -31.9368   23.2534 C   0  0  0  0  0  0
  -25.9546  -32.5051   23.8829 C   0  0  1  0  0  0
  -25.8681  -27.2148   20.4309 C   0  0  0  0  0  0
  -25.6422  -33.8825   24.2694 N   0  0  0  0  0  0
  -23.4681  -30.6672   21.5601 C   0  0  2  0  0  0
  -24.8693  -29.4305   19.7748 C   0  0  0  0  0  0
  -23.0024  -29.5426   22.5382 C   0  0  0  0  0  0
  -18.7442  -27.7346   22.5478 C   0  0  0  0  0  0
  -24.1533  -36.7317   23.2605 C   0  0  0  0  0  0
  -26.0082  -30.8126   21.4791 C   0  0  0  0  0  0
  -25.9031  -29.5275   20.6997 C   0  0  0  0  0  0
  -26.6033  -28.3370   20.9505 C   0  0  0  0  0  0
  -25.7894  -27.2789   19.0727 C   0  0  0  0  0  0
  -24.9430  -28.3740   18.8187 C   0  0  0  0  0  0
  -23.7025  -30.3672   20.0256 C   0  0  0  0  0  0
  -25.4151  -36.3200   24.0357 C   0  0  1  0  0  0
  -21.1974  -28.1441   23.4424 C   0  0  2  0  0  0
  -21.9491  -26.5827   22.8703 C   0  0  0  0  0  0
  -21.2415  -25.3577   21.5589 C   0  0  0  0  0  0
  -19.5478  -25.6084   21.1864 C   0  0  0  0  0  0
  -19.6393  -28.5460   23.3654 C   0  0  0  0  0  0
  -19.2379  -29.7996   23.9824 C   0  0  0  0  0  0
  -17.9317  -30.3319   23.9960 C   0  0  0  0  0  0
  -25.9167  -34.9586   23.5226 C   0  0  0  0  0  0
  -16.9564  -29.5751   23.3622 C   0  0  0  0  0  0
  -17.3692  -28.3983   22.6686 C   0  0  0  0  0  0
  -26.4637  -31.6706   25.1169 C   0  0  0  0  0  0
  -25.3746  -31.3851   26.1776 C   0  0  0  0  0  0
  -27.0377  -30.3058   24.6754 C   0  0  0  0  0  0
  -27.6213  -32.4336   25.7974 C   0  0  0  0  0  0
  -27.5605  -37.1912   24.8491 C   0  0  0  0  0  0
  -21.7193  -29.3098   22.7002 N   0  0  0  0  0  0
  -26.4314  -37.3901   23.9440 N   0  0  0  0  0  0
  -24.7305  -31.1974   22.1235 N   0  0  0  0  0  0
  -23.7897  -28.9231   23.2487 O   0  0  0  0  0  0
  -24.4610  -27.0346   20.9048 O   0  0  0  0  0  0
  -26.5480  -34.8960   22.4640 O   0  0  0  0  0  0
  -23.5802  -32.2064   23.7932 O   0  0  0  0  0  0
  -24.6451  -22.1194   20.8206 C   0  0  0  0  0  0
  -25.1248  -20.2017   22.2775 C   0  0  0  0  0  0
  -25.1210  -20.8015   20.9906 C   0  0  0  0  0  0
  -23.9247  -22.8633   21.7866 C   0  0  0  0  0  0
  -24.0592  -20.9743   23.1675 C   0  0  0  0  0  0
  -23.2436  -22.3100   22.9049 C   0  0  0  0  0  0
  -26.2665  -17.3719   21.8041 C   0  0  0  0  0  0
  -27.9400  -18.9238   22.0549 C   0  0  0  0  0  0
  -27.4532  -16.1669   21.9794 C   0  0  0  0  0  0
  -29.0915  -17.6528   21.9090 C   0  0  0  0  0  0
  -18.7641  -27.5672   20.2208 C   0  0  0  0  0  0
  -26.3225  -18.8616   22.4799 C   0  0  0  0  0  0
  -20.6179  -27.5387   21.1358 C   0  0  2  0  0  0
  -19.7551  -25.8155   23.3504 C   0  0  1  0  0  0
  -17.8231  -25.5681   22.7620 C   0  0  0  0  0  0
  -25.6278  -20.0966   19.7333 C   0  0  0  0  0  0
  -24.2010  -24.3299   21.7042 C   0  0  0  0  0  0
  -23.8461  -20.3864   24.5432 C   0  0  0  0  0  0
  -17.2974  -24.1046   22.5663 C   0  0  0  0  0  0
  -16.9431  -25.9553   24.0001 C   0  0  0  0  0  0
  -22.5617  -26.6917   19.0069 C   0  0  0  0  0  0
  -22.0549  -23.3891   23.8171 C   0  0  0  0  0  0
  -22.6426  -27.3512   20.4388 C   0  0  2  0  0  0
  -28.8873  -16.1965   21.3727 N   0  0  0  0  0  0
  -20.4970  -24.1988   23.6694 N   0  3  0  0  0  0
  -17.5216  -26.4523   21.1212 O   0  0  0  0  0  0
  -31.3685  -13.2309   19.3810 H   0  0  0  0  0  0
  -30.5616  -11.8983   20.1355 H   0  0  0  0  0  0
  -29.9677  -11.8661   17.7301 H   0  0  0  0  0  0
  -29.5762  -13.5649   17.7543 H   0  0  0  0  0  0
  -27.9828  -11.2861   18.9477 H   0  0  0  0  0  0
  -27.4324  -12.4762   17.7949 H   0  0  0  0  0  0
  -27.5424  -14.2403   19.4953 H   0  0  0  0  0  0
  -28.7078  -12.0567   21.2998 H   0  0  0  0  0  0
  -28.1155  -13.5187   21.9809 H   0  0  0  0  0  0
  -25.2639   -9.5548   22.4887 H   0  0  0  0  0  0
  -23.9908   -7.4448   22.7506 H   0  0  0  0  0  0
  -21.0760   -8.8598   19.8950 H   0  0  0  0  0  0
  -22.3581  -10.9525   19.6237 H   0  0  0  0  0  0
  -21.1951   -7.6094   23.9672 H   0  0  0  0  0  0
  -21.1489   -6.0514   25.9079 H   0  0  0  0  0  0
  -22.0610   -2.7547   23.2925 H   0  0  0  0  0  0
  -22.3935  -11.9684   22.4958 H   0  0  0  0  0  0
  -21.0898  -13.1043   22.3034 H   0  0  0  0  0  0
  -24.3807  -15.6590   20.0708 H   0  0  0  0  0  0
  -25.9715  -15.4981   19.5300 H   0  0  0  0  0  0
  -26.7613  -32.5495   23.1533 H   0  0  0  0  0  0
  -25.0828  -34.0064   25.1013 H   0  0  0  0  0  0
  -22.7055  -31.4486   21.5922 H   0  0  0  0  0  0
  -23.3834  -35.9610   23.3270 H   0  0  0  0  0  0
  -24.3675  -36.8887   22.2022 H   0  0  0  0  0  0
  -23.7212  -37.6524   23.6546 H   0  0  0  0  0  0
  -26.3056  -31.6069   20.7955 H   0  0  0  0  0  0
  -26.8393  -30.6773   22.1565 H   0  0  0  0  0  0
  -27.2366  -28.2555   21.8242 H   0  0  0  0  0  0
  -25.6685  -26.3947   18.4585 H   0  0  0  0  0  0
  -24.3175  -28.3920   17.9381 H   0  0  0  0  0  0
  -24.0153  -31.3109   19.5784 H   0  0  0  0  0  0
  -22.7939  -30.1708   19.4550 H   0  0  0  0  0  0
  -25.1293  -36.2114   25.0844 H   0  0  0  0  0  0
  -21.4936  -28.2801   24.4851 H   0  0  0  0  0  0
  -22.1065  -26.0623   23.8105 H   0  0  0  0  0  0
  -23.0041  -26.7445   22.7228 H   0  0  0  0  0  0
  -21.7892  -25.2335   20.6578 H   0  0  0  0  0  0
  -21.4800  -24.3088   21.6534 H   0  0  0  0  0  0
  -19.4818  -25.4729   20.0952 H   0  0  0  0  0  0
  -19.2417  -24.5773   21.3194 H   0  0  0  0  0  0
  -19.9972  -30.3663   24.5029 H   0  0  0  0  0  0
  -17.6978  -31.2601   24.4981 H   0  0  0  0  0  0
  -15.9265  -29.9004   23.3398 H   0  0  0  0  0  0
  -16.4953  -27.9938   22.1837 H   0  0  0  0  0  0
  -24.5982  -30.7158   25.8048 H   0  0  0  0  0  0
  -24.8883  -32.2999   26.5184 H   0  0  0  0  0  0
  -25.8033  -30.9041   27.0586 H   0  0  0  0  0  0
  -26.2987  -29.6938   24.1592 H   0  0  0  0  0  0
  -27.3647  -29.7253   25.5394 H   0  0  0  0  0  0
  -27.9123  -30.4179   24.0339 H   0  0  0  0  0  0
  -27.2898  -33.3677   26.2523 H   0  0  0  0  0  0
  -28.4122  -32.6814   25.0871 H   0  0  0  0  0  0
  -28.0738  -31.8426   26.5953 H   0  0  0  0  0  0
  -28.2637  -38.0200   24.7556 H   0  0  0  0  0  0
  -28.1090  -36.2749   24.6290 H   0  0  0  0  0  0
  -27.2339  -37.1530   25.8897 H   0  0  0  0  0  0
  -21.0437  -29.8665   22.1994 H   0  0  0  0  0  0
  -26.0193  -38.2976   24.1449 H   0  0  0  0  0  0
  -24.9547  -22.6372   19.9223 H   0  0  0  0  0  0
  -25.3382  -16.9315   22.1695 H   0  0  0  0  0  0
  -26.1108  -17.5053   20.7351 H   0  0  0  0  0  0
  -28.0491  -19.4654   21.1254 H   0  0  0  0  0  0
  -28.3761  -19.6335   22.7584 H   0  0  0  0  0  0
  -27.0007  -15.2302   21.7172 H   0  0  0  0  0  0
  -27.5975  -16.0302   23.0542 H   0  0  0  0  0  0
  -29.4383  -17.4865   22.9325 H   0  0  0  0  0  0
  -29.9763  -18.0578   21.4151 H   0  0  0  0  0  0
  -18.7982  -27.2797   19.1652 H   0  0  0  0  0  0
  -18.3905  -28.5920   20.1685 H   0  0  0  0  0  0
  -26.3124  -18.6891   23.5570 H   0  0  0  0  0  0
  -20.6207  -27.3254   20.0721 H   0  0  0  0  0  0
  -19.7593  -26.2663   24.3509 H   0  0  0  0  0  0
  -25.6776  -20.7754   18.8833 H   0  0  0  0  0  0
  -24.9262  -19.3076   19.4636 H   0  0  0  0  0  0
  -26.6031  -19.6407   19.7932 H   0  0  0  0  0  0
  -25.2774  -24.4956   21.7832 H   0  0  0  0  0  0
  -23.7803  -24.8595   22.5393 H   0  0  0  0  0  0
  -23.8793  -24.7287   20.7488 H   0  0  0  0  0  0
  -24.2079  -19.3608   24.6011 H   0  0  0  0  0  0
  -22.7864  -20.3861   24.7972 H   0  0  0  0  0  0
  -24.3815  -20.9811   25.2853 H   0  0  0  0  0  0
  -17.6767  -23.4318   23.3356 H   0  0  0  0  0  0
  -17.4957  -23.6535   21.5969 H   0  0  0  0  0  0
  -16.2099  -24.0786   22.6375 H   0  0  0  0  0  0
  -16.8752  -25.1455   24.7294 H   0  0  0  0  0  0
  -15.9259  -26.2182   23.7113 H   0  0  0  0  0  0
  -17.3600  -26.7822   24.5754 H   0  0  0  0  0  0
  -21.7047  -26.0433   18.8281 H   0  0  0  0  0  0
  -23.4261  -26.0725   18.7811 H   0  0  0  0  0  0
  -22.4562  -27.4392   18.2239 H   0  0  0  0  0  0
  -22.6875  -24.0614   24.3942 H   0  0  0  0  0  0
  -21.7706  -22.6634   24.5771 H   0  0  0  0  0  0
  -22.6418  -28.3518   20.1482 H   0  0  0  0  0  0
  -20.0523  -23.5948   22.9971 H   0  0  0  0  0  0
  -20.0595  -23.9470   24.5424 H   0  0  0  0  0  0
  1 25  1  0  0  0
  1 30  2  0  0  0
  1 94  1  0  0  0
  2  3  1  0  0  0
  2 25  1  0  0  0
  2 97  1  0  0  0
  2 98  1  0  0  0
  3  4  1  0  0  0
  3 99  1  0  0  0
  3100  1  0  0  0
  4  5  1  0  0  0
  4101  1  0  0  0
  4102  1  0  0  0
  5  6  1  0  0  0
  5 26  1  0  0  0
  5103  1  0  0  0
  6 25  1  0  0  0
  6104  1  0  0  0
  6105  1  0  0  0
  7  8  2  0  0  0
  7 26  1  0  0  0
  7 29  1  0  0  0
  8  9  1  0  0  0
  8 22  1  0  0  0
  9 10  1  0  0  0
  9 27  2  0  0  0
 10 11  2  0  0  0
 10 15  1  0  0  0
 11 12  1  0  0  0
 11106  1  0  0  0
 12 13  2  0  0  0
 12107  1  0  0  0
 13 14  1  0  0  0
 13 31  1  0  0  0
 14 15  2  0  0  0
 14108  1  0  0  0
 15109  1  0  0  0
 16 17  2  0  0  0
 16 21  1  0  0  0
 16 31  1  0  0  0
 17 18  1  0  0  0
 17110  1  0  0  0
 18 19  2  0  0  0
 18111  1  0  0  0
 19 20  1  0  0  0
 19 24  1  0  0  0
 20 21  2  0  0  0
 20112  1  0  0  0
 21 23  1  0  0  0
 22 28  1  0  0  0
 22 32  2  0  0  0
 26 27  1  0  0  0
 28113  1  0  0  0
 28114  1  0  0  0
 29115  1  0  0  0
 29116  1  0  0  0
 33 34  1  0  0  0
 33 66  1  0  0  0
 33 70  2  0  0  0
 34 36  1  0  0  0
 34 59  1  0  0  0
 34117  1  0  0  0
 35 44  2  0  0  0
 35 45  1  0  0  0
 35 68  1  0  0  0
 36 56  1  0  0  0
 36118  1  0  0  0
 37 39  1  0  0  0
 37 47  1  0  0  0
 37 66  1  0  0  0
 37119  1  0  0  0
 38 43  2  0  0  0
 38 46  1  0  0  0
 38 47  1  0  0  0
 39 64  1  0  0  0
 39 67  2  0  0  0
 40 52  1  0  0  0
 40 53  2  0  0  0
 40 58  1  0  0  0
 41120  1  0  0  0
 41121  1  0  0  0
 41122  1  0  0  0
 41 48  1  0  0  0
 42 43  1  0  0  0
 42 66  1  0  0  0
 42123  1  0  0  0
 42124  1  0  0  0
 43 44  1  0  0  0
 44125  1  0  0  0
 45 46  2  0  0  0
 45126  1  0  0  0
 46127  1  0  0  0
 47128  1  0  0  0
 47129  1  0  0  0
 48 56  1  0  0  0
 48 65  1  0  0  0
 48130  1  0  0  0
 49 50  1  0  0  0
 49 53  1  0  0  0
 49 64  1  0  0  0
 49131  1  0  0  0
 50 51  1  0  0  0
 50132  1  0  0  0
 50133  1  0  0  0
 51 52  1  0  0  0
 51134  1  0  0  0
 51135  1  0  0  0
 52136  1  0  0  0
 52137  1  0  0  0
 53 54  1  0  0  0
 54 55  2  0  0  0
 54138  1  0  0  0
 55 57  1  0  0  0
 55139  1  0  0  0
 56 69  2  0  0  0
 57 58  2  0  0  0
 57140  1  0  0  0
 58141  1  0  0  0
 59 60  1  0  0  0
 59 61  1  0  0  0
 59 62  1  0  0  0
 60142  1  0  0  0
 60143  1  0  0  0
 60144  1  0  0  0
 61145  1  0  0  0
 61146  1  0  0  0
 61147  1  0  0  0
 62148  1  0  0  0
 62149  1  0  0  0
 62150  1  0  0  0
 63 65  1  0  0  0
 63151  1  0  0  0
 63152  1  0  0  0
 63153  1  0  0  0
 64154  1  0  0  0
 65155  1  0  0  0
 68 93  1  0  0  0
 71 73  2  0  0  0
 71 74  1  0  0  0
 71156  1  0  0  0
 72 73  1  0  0  0
 72 75  2  0  0  0
 72 82  1  0  0  0
 73 86  1  0  0  0
 74 76  2  0  0  0
 74 87  1  0  0  0
 75 76  1  0  0  0
 75 88  1  0  0  0
 76 92  1  0  0  0
 77 79  1  0  0  0
 77 82  1  0  0  0
 77157  1  0  0  0
 77158  1  0  0  0
 78 80  1  0  0  0
 78 82  1  0  0  0
 78159  1  0  0  0
 78160  1  0  0  0
 79 94  1  0  0  0
 79161  1  0  0  0
 79162  1  0  0  0
 80 94  1  0  0  0
 80163  1  0  0  0
 80164  1  0  0  0
 81 96  1  0  0  0
 81165  1  0  0  0
 81166  1  0  0  0
 81 83  1  0  0  0
 82167  1  0  0  0
 83 84  1  0  0  0
 83 93  1  0  0  0
 83168  1  0  0  0
 84 85  1  0  0  0
 84 95  1  0  0  0
 84169  1  0  0  0
 85 89  1  0  0  0
 85 90  1  0  0  0
 85 96  1  0  0  0
 86170  1  0  0  0
 86171  1  0  0  0
 86172  1  0  0  0
 87173  1  0  0  0
 87174  1  0  0  0
 87175  1  0  0  0
 88176  1  0  0  0
 88177  1  0  0  0
 88178  1  0  0  0
 89179  1  0  0  0
 89180  1  0  0  0
 89181  1  0  0  0
 90182  1  0  0  0
 90183  1  0  0  0
 90184  1  0  0  0
 91185  1  0  0  0
 91186  1  0  0  0
 91187  1  0  0  0
 91 93  1  0  0  0
 92 95  1  0  0  0
 92188  1  0  0  0
 92189  1  0  0  0
 93190  1  0  0  0
 95191  1  0  0  0
 95192  1  0  0  0
M  CHG  1  95   1
M  ISO  4   1 100  68 101  93 101  94 100
M  END
> <chiral flag>
0

> <version>
0

> <s_m_source_file>
/data/baiqing/PycharmProjects/Reinvent-master-3.2/result/LINK_invent/BTK/process_docking_weight1_custom_sum_contain_oxygen_bond_distance_aromatic_linkinvent_7_9_3/rearranged_h_0166.sdf

> <i_m_source_file_index>
3

> <r_mmod_Potential_Energy-OPLS-2005>
15875.72265625

> <r_mmod_Stretch_Energy-OPLS-2005>
7375.626953125

> <r_mmod_Bend_Energy-OPLS-2005>
1599.48803710938

> <r_mmod_Torsional_Energy-OPLS-2005>
784.4306640625

> <r_mmod_Improper_Torsional_Energy-OPLS-2005>
46.338134765625

> <r_mmod_Van_der_Waal_Energy-OPLS-2005>
2870.88598632812

> <r_mmod_Electrostatic_Energy-OPLS-2005>
-309.773620605469

> <r_mmod_Solvation_Energy-OPLS-2005>
-421.647094726562

> <b_mmod_Minimization_Converged-OPLS-2005>
0

> <r_mmod_RMS_Derivative-OPLS-2005>
7.04177618026733

$$$$
3
                    3D
 Structure written by MMmdl.
164174  0  0  1  0            999 V2000
  -30.6631  -14.5871   20.4697 C   0  0  0  0  0  0
  -30.4160  -12.3542   19.4552 C   0  0  0  0  0  0
  -29.5001  -12.4914   18.2208 C   0  0  0  0  0  0
  -28.0193  -12.3584   18.6243 C   0  0  0  0  0  0
  -27.6472  -13.2241   19.8592 C   0  0  2  0  0  0
  -28.6890  -13.0922   20.9918 C   0  0  0  0  0  0
  -25.2520  -13.8185   20.5677 C   0  0  0  0  0  0
  -24.1810  -13.0442   20.9197 C   0  0  0  0  0  0
  -24.6392  -11.6914   20.8744 C   0  0  0  0  0  0
  -23.9075  -10.4294   21.0410 C   0  0  0  0  0  0
  -24.3624   -9.4206   21.9188 C   0  0  0  0  0  0
  -23.6293   -8.2243   22.0755 C   0  0  0  0  0  0
  -22.4276   -8.0283   21.3546 C   0  0  0  0  0  0
  -21.9920   -9.0256   20.4646 C   0  0  0  0  0  0
  -22.7250  -10.2136   20.3054 C   0  0  0  0  0  0
  -21.6853   -6.0737   22.5278 C   0  0  0  0  0  0
  -21.4020   -6.5643   23.8210 C   0  0  0  0  0  0
  -21.3658   -5.6796   24.9173 C   0  0  0  0  0  0
  -21.6038   -4.3055   24.7226 C   0  0  0  0  0  0
  -21.8820   -3.8153   23.4345 C   0  0  0  0  0  0
  -21.9196   -4.6968   22.3402 C   0  0  0  0  0  0
  -22.7831  -13.5222   21.1861 C   0  0  0  0  0  0
  -22.1660   -4.2151   21.0979 F   0  0  0  0  0  0
  -21.5627   -3.4543   25.7740 F   0  0  0  0  0  0
  -30.0052  -13.3922   20.4196 N   0  0  0  0  0  0
  -26.2952  -12.9387   20.3297 N   0  0  0  0  0  0
  -25.9318  -11.6534   20.5746 N   0  0  0  0  0  0
  -22.0479  -12.8205   22.0410 N   0  0  0  0  0  0
  -25.4227  -15.1903   20.4070 N   0  0  0  0  0  0
  -31.8622  -14.6640   20.1896 O   0  0  0  0  0  0
  -21.6640   -6.8882   21.4237 O   0  0  0  0  0  0
  -22.3515  -14.5536   20.6717 O   0  0  0  0  0  0
  -24.6210  -31.8611   23.2027 C   0  0  0  0  0  0
  -25.9075  -32.4788   23.8358 C   0  0  1  0  0  0
  -27.2401  -27.3596   20.1259 C   0  0  0  0  0  0
  -25.5900  -33.8589   24.2288 N   0  0  0  0  0  0
  -23.4155  -30.4795   21.5436 C   0  0  2  0  0  0
  -24.8677  -28.9319   20.1175 C   0  0  0  0  0  0
  -22.7452  -29.4600   22.4943 C   0  0  0  0  0  0
  -18.0268  -28.1351   22.8478 C   0  0  0  0  0  0
  -24.1499  -36.7304   23.2644 C   0  0  0  0  0  0
  -25.9484  -30.8097   21.3624 C   0  0  0  0  0  0
  -26.0314  -29.4350   20.7152 C   0  0  0  0  0  0
  -27.2226  -28.6595   20.7070 C   0  0  0  0  0  0
  -26.0585  -26.8878   19.5195 C   0  0  0  0  0  0
  -24.8806  -27.6621   19.5124 C   0  0  0  0  0  0
  -23.6320  -29.8080   20.1603 C   0  0  0  0  0  0
  -25.4109  -36.3090   24.0346 C   0  0  1  0  0  0
  -20.5870  -28.3650   23.1287 C   0  0  2  0  0  0
  -20.6753  -26.9377   22.5395 C   0  0  0  0  0  0
  -19.5733  -26.6363   21.5183 C   0  0  0  0  0  0
  -18.1909  -26.7891   22.1601 C   0  0  0  0  0  0
  -19.1525  -28.8814   23.2873 C   0  0  0  0  0  0
  -18.9456  -30.1414   23.8887 C   0  0  0  0  0  0
  -17.6464  -30.6559   24.0551 C   0  0  0  0  0  0
  -25.9051  -34.9461   23.5124 C   0  0  0  0  0  0
  -16.5351  -29.9061   23.6323 C   0  0  0  0  0  0
  -16.7259  -28.6481   23.0341 C   0  0  0  0  0  0
  -26.4473  -31.6576   25.0698 C   0  0  0  0  0  0
  -25.3735  -31.3689   26.1451 C   0  0  0  0  0  0
  -27.0321  -30.3033   24.6087 C   0  0  0  0  0  0
  -27.6050  -32.4293   25.7459 C   0  0  0  0  0  0
  -27.5583  -37.1792   24.8462 C   0  0  0  0  0  0
  -21.4162  -29.3017   22.3705 N   0  0  0  0  0  0
  -26.4292  -37.3780   23.9416 N   0  0  0  0  0  0
  -24.6809  -31.0665   22.0950 N   0  0  0  0  0  0
  -23.4187  -28.8132   23.3003 O   0  0  0  0  0  0
  -28.3775  -26.5592   20.1123 O   0  0  0  0  0  0
  -26.5626  -34.8922   22.4692 O   0  0  0  0  0  0
  -23.5391  -32.1369   23.7396 O   0  0  0  0  0  0
  -28.6067  -20.4897   19.2893 C   0  0  0  0  0  0
  -29.0301  -19.1546   19.0709 C   0  0  0  0  0  0
  -29.7331  -18.9867   21.3549 C   0  0  0  0  0  0
  -28.7245  -21.1301   20.5476 C   0  0  0  0  0  0
  -29.3081  -20.3348   21.5873 C   0  0  0  0  0  0
  -29.6248  -18.3613   20.0886 C   0  0  0  0  0  0
  -30.4870  -22.0052   23.2162 C   0  0  0  0  0  0
  -30.7164  -20.6338   23.8043 C   0  0  0  0  0  0
  -27.1520  -23.1743   19.8270 C   0  0  0  0  0  0
  -28.1328  -22.5565   20.8025 C   0  0  2  0  0  0
  -29.4840  -20.9045   22.9682 C   0  0  0  0  0  0
  -28.4275  -23.9312   20.1105 C   0  0  2  0  0  0
  -30.3061  -16.6849   18.2454 C   0  0  0  0  0  0
  -28.3246  -25.3005   20.8602 C   0  0  0  0  0  0
  -30.3018  -16.9770   19.7672 C   0  0  2  0  0  0
  -29.8965  -15.7218   20.4834 N   0  0  0  0  0  0
  -31.4612  -12.4488   19.1570 H   0  0  0  0  0  0
  -30.3212  -11.3621   19.8996 H   0  0  0  0  0  0
  -29.7531  -11.7318   17.4793 H   0  0  0  0  0  0
  -29.6684  -13.4555   17.7384 H   0  0  0  0  0  0
  -27.8286  -11.3071   18.8372 H   0  0  0  0  0  0
  -27.3778  -12.6187   17.7818 H   0  0  0  0  0  0
  -27.6619  -14.2589   19.5190 H   0  0  0  0  0  0
  -28.6802  -12.0836   21.4078 H   0  0  0  0  0  0
  -28.4550  -13.7658   21.8173 H   0  0  0  0  0  0
  -25.2768   -9.5682   22.4765 H   0  0  0  0  0  0
  -24.0003   -7.4638   22.7474 H   0  0  0  0  0  0
  -21.0857   -8.8779   19.8948 H   0  0  0  0  0  0
  -22.3711  -10.9677   19.6164 H   0  0  0  0  0  0
  -21.2014   -7.6155   23.9714 H   0  0  0  0  0  0
  -21.1475   -6.0529   25.9074 H   0  0  0  0  0  0
  -22.0601   -2.7616   23.2847 H   0  0  0  0  0  0
  -22.4101  -11.9861   22.4791 H   0  0  0  0  0  0
  -21.1086  -13.1216   22.2604 H   0  0  0  0  0  0
  -24.6586  -15.8469   20.5216 H   0  0  0  0  0  0
  -26.2675  -15.6275   20.0612 H   0  0  0  0  0  0
  -26.7159  -32.5491   23.1131 H   0  0  0  0  0  0
  -25.0003  -33.9738   25.0400 H   0  0  0  0  0  0
  -22.7047  -31.2945   21.3981 H   0  0  0  0  0  0
  -23.3760  -35.9635   23.3293 H   0  0  0  0  0  0
  -24.3588  -36.8930   22.2065 H   0  0  0  0  0  0
  -23.7259  -37.6509   23.6669 H   0  0  0  0  0  0
  -26.0632  -31.5733   20.5918 H   0  0  0  0  0  0
  -26.8351  -30.8689   21.9814 H   0  0  0  0  0  0
  -28.1232  -29.0455   21.1649 H   0  0  0  0  0  0
  -26.0529  -25.9146   19.0489 H   0  0  0  0  0  0
  -23.9880  -27.2701   19.0432 H   0  0  0  0  0  0
  -23.7517  -30.5825   19.4012 H   0  0  0  0  0  0
  -22.7547  -29.2326   19.8581 H   0  0  0  0  0  0
  -25.1280  -36.1952   25.0836 H   0  0  0  0  0  0
  -20.9944  -28.3233   24.1414 H   0  0  0  0  0  0
  -20.5627  -26.2250   23.3585 H   0  0  0  0  0  0
  -21.6623  -26.7378   22.1201 H   0  0  0  0  0  0
  -19.6911  -25.6281   21.1197 H   0  0  0  0  0  0
  -19.6704  -27.3184   20.6727 H   0  0  0  0  0  0
  -17.4175  -26.6623   21.4010 H   0  0  0  0  0  0
  -18.0332  -26.0012   22.8986 H   0  0  0  0  0  0
  -19.7952  -30.7195   24.2264 H   0  0  0  0  0  0
  -17.5044  -31.6251   24.5134 H   0  0  0  0  0  0
  -15.5360  -30.2974   23.7657 H   0  0  0  0  0  0
  -15.8644  -28.0811   22.7068 H   0  0  0  0  0  0
  -24.5905  -30.7029   25.7793 H   0  0  0  0  0  0
  -24.8920  -32.2855   26.4899 H   0  0  0  0  0  0
  -25.8088  -30.8877   27.0215 H   0  0  0  0  0  0
  -26.2874  -29.6764   24.1190 H   0  0  0  0  0  0
  -27.4136  -29.7293   25.4525 H   0  0  0  0  0  0
  -27.8667  -30.4340   23.9195 H   0  0  0  0  0  0
  -27.2685  -33.3595   26.2031 H   0  0  0  0  0  0
  -28.3863  -32.6826   25.0286 H   0  0  0  0  0  0
  -28.0706  -31.8418   26.5377 H   0  0  0  0  0  0
  -28.2572  -38.0121   24.7513 H   0  0  0  0  0  0
  -28.1108  -36.2642   24.6267 H   0  0  0  0  0  0
  -27.2298  -37.1397   25.8866 H   0  0  0  0  0  0
  -20.9323  -29.8810   21.6981 H   0  0  0  0  0  0
  -26.0185  -38.2851   24.1447 H   0  0  0  0  0  0
  -28.1795  -21.0138   18.4489 H   0  0  0  0  0  0
  -28.9110  -18.7705   18.0683 H   0  0  0  0  0  0
  -30.1922  -18.4291   22.1593 H   0  0  0  0  0  0
  -31.1296  -22.3059   22.3904 H   0  0  0  0  0  0
  -30.2068  -22.8013   23.9032 H   0  0  0  0  0  0
  -30.5888  -20.5353   24.8816 H   0  0  0  0  0  0
  -31.5177  -20.0356   23.3751 H   0  0  0  0  0  0
  -26.2281  -23.5674   20.2450 H   0  0  0  0  0  0
  -27.0572  -22.7951   18.8135 H   0  0  0  0  0  0
  -27.8289  -22.6230   21.8445 H   0  0  0  0  0  0
  -28.5315  -20.9461   23.4951 H   0  0  0  0  0  0
  -29.2023  -23.9033   19.3479 H   0  0  0  0  0  0
  -30.7829  -17.4908   17.6888 H   0  0  0  0  0  0
  -29.2937  -16.5566   17.8632 H   0  0  0  0  0  0
  -30.8557  -15.7806   17.9885 H   0  0  0  0  0  0
  -29.1712  -25.3379   21.5464 H   0  0  0  0  0  0
  -27.4444  -25.2800   21.5054 H   0  0  0  0  0  0
  -31.3433  -17.1494   20.0474 H   0  0  0  0  0  0
  -28.9190  -15.6157   20.7063 H   0  0  0  0  0  0
  1 25  1  0  0  0
  1 30  2  0  0  0
  1 86  1  0  0  0
  2  3  1  0  0  0
  2 25  1  0  0  0
  2 87  1  0  0  0
  2 88  1  0  0  0
  3  4  1  0  0  0
  3 89  1  0  0  0
  3 90  1  0  0  0
  4  5  1  0  0  0
  4 91  1  0  0  0
  4 92  1  0  0  0
  5  6  1  0  0  0
  5 26  1  0  0  0
  5 93  1  0  0  0
  6 25  1  0  0  0
  6 94  1  0  0  0
  6 95  1  0  0  0
  7  8  2  0  0  0
  7 26  1  0  0  0
  7 29  1  0  0  0
  8  9  1  0  0  0
  8 22  1  0  0  0
  9 10  1  0  0  0
  9 27  2  0  0  0
 10 11  2  0  0  0
 10 15  1  0  0  0
 11 12  1  0  0  0
 11 96  1  0  0  0
 12 13  2  0  0  0
 12 97  1  0  0  0
 13 14  1  0  0  0
 13 31  1  0  0  0
 14 15  2  0  0  0
 14 98  1  0  0  0
 15 99  1  0  0  0
 16 17  2  0  0  0
 16 21  1  0  0  0
 16 31  1  0  0  0
 17 18  1  0  0  0
 17100  1  0  0  0
 18 19  2  0  0  0
 18101  1  0  0  0
 19 20  1  0  0  0
 19 24  1  0  0  0
 20 21  2  0  0  0
 20102  1  0  0  0
 21 23  1  0  0  0
 22 28  1  0  0  0
 22 32  2  0  0  0
 26 27  1  0  0  0
 28103  1  0  0  0
 28104  1  0  0  0
 29105  1  0  0  0
 29106  1  0  0  0
 33 34  1  0  0  0
 33 66  1  0  0  0
 33 70  2  0  0  0
 34 36  1  0  0  0
 34 59  1  0  0  0
 34107  1  0  0  0
 35 44  2  0  0  0
 35 45  1  0  0  0
 35 68  1  0  0  0
 36 56  1  0  0  0
 36108  1  0  0  0
 37 39  1  0  0  0
 37 47  1  0  0  0
 37 66  1  0  0  0
 37109  1  0  0  0
 38 43  2  0  0  0
 38 46  1  0  0  0
 38 47  1  0  0  0
 39 64  1  0  0  0
 39 67  2  0  0  0
 40 52  1  0  0  0
 40 53  2  0  0  0
 40 58  1  0  0  0
 41110  1  0  0  0
 41111  1  0  0  0
 41112  1  0  0  0
 41 48  1  0  0  0
 42 43  1  0  0  0
 42 66  1  0  0  0
 42113  1  0  0  0
 42114  1  0  0  0
 43 44  1  0  0  0
 44115  1  0  0  0
 45 46  2  0  0  0
 45116  1  0  0  0
 46117  1  0  0  0
 47118  1  0  0  0
 47119  1  0  0  0
 48 56  1  0  0  0
 48 65  1  0  0  0
 48120  1  0  0  0
 49 50  1  0  0  0
 49 53  1  0  0  0
 49 64  1  0  0  0
 49121  1  0  0  0
 50 51  1  0  0  0
 50122  1  0  0  0
 50123  1  0  0  0
 51 52  1  0  0  0
 51124  1  0  0  0
 51125  1  0  0  0
 52126  1  0  0  0
 52127  1  0  0  0
 53 54  1  0  0  0
 54 55  2  0  0  0
 54128  1  0  0  0
 55 57  1  0  0  0
 55129  1  0  0  0
 56 69  2  0  0  0
 57 58  2  0  0  0
 57130  1  0  0  0
 58131  1  0  0  0
 59 60  1  0  0  0
 59 61  1  0  0  0
 59 62  1  0  0  0
 60132  1  0  0  0
 60133  1  0  0  0
 60134  1  0  0  0
 61135  1  0  0  0
 61136  1  0  0  0
 61137  1  0  0  0
 62138  1  0  0  0
 62139  1  0  0  0
 62140  1  0  0  0
 63 65  1  0  0  0
 63141  1  0  0  0
 63142  1  0  0  0
 63143  1  0  0  0
 64144  1  0  0  0
 65145  1  0  0  0
 68 84  1  0  0  0
 71 72  2  0  0  0
 71 74  1  0  0  0
 71146  1  0  0  0
 72 76  1  0  0  0
 72147  1  0  0  0
 73 75  1  0  0  0
 73 76  2  0  0  0
 73148  1  0  0  0
 74 75  2  0  0  0
 74 80  1  0  0  0
 75 81  1  0  0  0
 76 85  1  0  0  0
 77 78  1  0  0  0
 77 81  1  0  0  0
 77149  1  0  0  0
 77150  1  0  0  0
 78 81  1  0  0  0
 78151  1  0  0  0
 78152  1  0  0  0
 79 80  1  0  0  0
 79 82  1  0  0  0
 79153  1  0  0  0
 79154  1  0  0  0
 80 82  1  0  0  0
 80155  1  0  0  0
 81156  1  0  0  0
 82 84  1  0  0  0
 82157  1  0  0  0
 83158  1  0  0  0
 83159  1  0  0  0
 83160  1  0  0  0
 83 85  1  0  0  0
 84161  1  0  0  0
 84162  1  0  0  0
 85 86  1  0  0  0
 85163  1  0  0  0
 86164  1  0  0  0
M  ISO  4   1 100  68 101  84 101  86 100
M  END
> <chiral flag>
0

> <version>
0

> <s_m_source_file>
/data/baiqing/PycharmProjects/Reinvent-master-3.2/result/LINK_invent/BTK/process_docking_weight1_custom_sum_contain_oxygen_bond_distance_aromatic_linkinvent_7_9_3/rearranged_h_0166.sdf

> <i_m_source_file_index>
4

> <r_mmod_Potential_Energy-OPLS-2005>
81.3596420288086

> <r_mmod_Stretch_Energy-OPLS-2005>
69.9404067993164

> <r_mmod_Bend_Energy-OPLS-2005>
131.186477661133

> <r_mmod_Torsional_Energy-OPLS-2005>
305.567687988281

> <r_mmod_Improper_Torsional_Energy-OPLS-2005>
11.6663227081299

> <r_mmod_Van_der_Waal_Energy-OPLS-2005>
143.577270507812

> <r_mmod_Electrostatic_Energy-OPLS-2005>
-418.296020507812

> <r_mmod_Solvation_Energy-OPLS-2005>
-197.9384765625

> <b_mmod_Minimization_Converged-OPLS-2005>
0

> <r_mmod_RMS_Derivative-OPLS-2005>
2.27922415733337

$$$$
4
                    3D
 Structure written by MMmdl.
176187  0  0  1  0            999 V2000
  -30.7794  -14.5299   20.5551 C   0  0  0  0  0  0
  -30.3903  -12.3396   19.4705 C   0  0  0  0  0  0
  -29.4945  -12.4912   18.2283 C   0  0  0  0  0  0
  -28.0148  -12.3608   18.6294 C   0  0  0  0  0  0
  -27.6473  -13.2335   19.8609 C   0  0  2  0  0  0
  -28.6872  -13.1215   20.9965 C   0  0  0  0  0  0
  -25.2564  -13.8245   20.5718 C   0  0  0  0  0  0
  -24.1828  -13.0485   20.9197 C   0  0  0  0  0  0
  -24.6392  -11.6962   20.8740 C   0  0  0  0  0  0
  -23.9060  -10.4331   21.0410 C   0  0  0  0  0  0
  -24.3611   -9.4251   21.9185 C   0  0  0  0  0  0
  -23.6289   -8.2285   22.0755 C   0  0  0  0  0  0
  -22.4273   -8.0301   21.3553 C   0  0  0  0  0  0
  -21.9921   -9.0272   20.4646 C   0  0  0  0  0  0
  -22.7237  -10.2159   20.3055 C   0  0  0  0  0  0
  -21.6865   -6.0750   22.5285 C   0  0  0  0  0  0
  -21.4007   -6.5651   23.8215 C   0  0  0  0  0  0
  -21.3655   -5.6800   24.9176 C   0  0  0  0  0  0
  -21.6050   -4.3062   24.7222 C   0  0  0  0  0  0
  -21.8828   -3.8154   23.4339 C   0  0  0  0  0  0
  -21.9208   -4.6980   22.3402 C   0  0  0  0  0  0
  -22.7860  -13.5269   21.1843 C   0  0  0  0  0  0
  -22.1694   -4.2172   21.0984 F   0  0  0  0  0  0
  -21.5620   -3.4541   25.7726 F   0  0  0  0  0  0
  -30.0054  -13.4072   20.4200 N   0  0  0  0  0  0
  -26.2966  -12.9435   20.3312 N   0  0  0  0  0  0
  -25.9327  -11.6579   20.5759 N   0  0  0  0  0  0
  -22.0525  -12.8241   22.0386 N   0  0  0  0  0  0
  -25.4364  -15.1944   20.4178 N   0  0  0  0  0  0
  -31.9450  -14.4971   20.1489 O   0  0  0  0  0  0
  -21.6646   -6.8883   21.4245 O   0  0  0  0  0  0
  -22.3556  -14.5585   20.6702 O   0  0  0  0  0  0
  -24.6250  -31.8682   23.2188 C   0  0  0  0  0  0
  -25.9140  -32.4806   23.8460 C   0  0  1  0  0  0
  -27.1609  -27.3333   20.0951 C   0  0  0  0  0  0
  -25.5988  -33.8609   24.2360 N   0  0  0  0  0  0
  -23.4133  -30.5092   21.5618 C   0  0  2  0  0  0
  -24.8494  -29.0050   20.0953 C   0  0  0  0  0  0
  -22.7469  -29.4692   22.4942 C   0  0  0  0  0  0
  -18.0299  -28.1377   22.8510 C   0  0  0  0  0  0
  -24.1504  -36.7295   23.2635 C   0  0  0  0  0  0
  -25.9640  -30.7966   21.4041 C   0  0  0  0  0  0
  -26.0250  -29.4400   20.7235 C   0  0  0  0  0  0
  -27.1870  -28.6086   20.7361 C   0  0  0  0  0  0
  -25.9906  -27.0266   19.3470 C   0  0  0  0  0  0
  -24.8339  -27.7996   19.3993 C   0  0  0  0  0  0
  -23.6213  -29.8804   20.1654 C   0  0  0  0  0  0
  -25.4128  -36.3094   24.0338 C   0  0  1  0  0  0
  -20.5902  -28.3694   23.1273 C   0  0  2  0  0  0
  -20.6785  -26.9413   22.5402 C   0  0  0  0  0  0
  -19.5754  -26.6376   21.5218 C   0  0  0  0  0  0
  -18.1937  -26.7926   22.1625 C   0  0  0  0  0  0
  -19.1551  -28.8854   23.2886 C   0  0  0  0  0  0
  -18.9462  -30.1456   23.8899 C   0  0  0  0  0  0
  -17.6460  -30.6581   24.0562 C   0  0  0  0  0  0
  -25.9066  -34.9454   23.5133 C   0  0  0  0  0  0
  -16.5355  -29.9074   23.6333 C   0  0  0  0  0  0
  -16.7282  -28.6483   23.0376 C   0  0  0  0  0  0
  -26.4515  -31.6598   25.0815 C   0  0  0  0  0  0
  -25.3739  -31.3743   26.1528 C   0  0  0  0  0  0
  -27.0368  -30.3009   24.6312 C   0  0  0  0  0  0
  -27.6079  -32.4334   25.7563 C   0  0  0  0  0  0
  -27.5596  -37.1799   24.8457 C   0  0  0  0  0  0
  -21.4183  -29.3067   22.3670 N   0  0  0  0  0  0
  -26.4307  -37.3783   23.9408 N   0  0  0  0  0  0
  -24.6863  -31.0711   22.1160 N   0  0  0  0  0  0
  -23.4220  -28.8189   23.2963 O   0  0  0  0  0  0
  -28.1419  -26.3340   20.2676 O   0  0  0  0  0  0
  -26.5590  -34.8899   22.4667 O   0  0  0  0  0  0
  -23.5420  -32.1496   23.7515 O   0  0  0  0  0  0
  -29.6357  -21.8291   21.1659 C   0  0  0  0  0  0
  -29.3309  -23.1563   20.7358 C   0  0  0  0  0  0
  -27.9875  -23.6089   20.7046 C   0  0  0  0  0  0
  -26.9646  -22.6511   21.0335 C   0  0  0  0  0  0
  -27.2848  -21.3497   21.5220 C   0  0  0  0  0  0
  -28.6274  -20.9040   21.5563 C   0  0  0  0  0  0
  -31.9132  -24.5806   18.7581 C   0  0  0  0  0  0
  -31.8433  -23.5434   19.8811 C   0  0  0  0  0  0
  -30.3861  -24.5663   18.7596 C   0  0  0  0  0  0
  -31.7659  -17.2496   21.7505 C   0  0  0  0  0  0
  -30.1669  -18.2288   20.2065 C   0  0  0  0  0  0
  -29.6808  -16.2314   22.1122 C   0  0  0  0  0  0
  -30.4363  -24.0686   20.2177 C   0  0  0  0  0  0
  -30.4574  -17.5576   22.4585 C   0  0  2  0  0  0
  -31.0377  -16.9579   20.4331 C   0  0  2  0  0  0
  -30.0919  -18.8187   21.6219 C   0  0  2  0  0  0
  -25.4814  -22.9697   20.7851 C   0  0  0  0  0  0
  -26.1716  -20.3975   21.9763 C   0  0  0  0  0  0
  -27.5427  -24.9822   20.1044 C   0  0  0  0  0  0
  -30.2222  -15.7690   20.8073 N   0  0  0  0  0  0
  -28.8723  -19.5579   21.9522 N   0  0  0  0  0  0
  -31.4387  -12.3697   19.1739 H   0  0  0  0  0  0
  -30.2539  -11.3586   19.9285 H   0  0  0  0  0  0
  -29.7478  -11.7354   17.4832 H   0  0  0  0  0  0
  -29.6725  -13.4601   17.7601 H   0  0  0  0  0  0
  -27.8268  -11.3077   18.8466 H   0  0  0  0  0  0
  -27.3722  -12.6175   17.7868 H   0  0  0  0  0  0
  -27.6623  -14.2675   19.5139 H   0  0  0  0  0  0
  -28.6791  -12.1219   21.4339 H   0  0  0  0  0  0
  -28.4458  -13.8062   21.8086 H   0  0  0  0  0  0
  -25.2770   -9.5725   22.4733 H   0  0  0  0  0  0
  -24.0032   -7.4665   22.7450 H   0  0  0  0  0  0
  -21.0877   -8.8764   19.8919 H   0  0  0  0  0  0
  -22.3700  -10.9688   19.6142 H   0  0  0  0  0  0
  -21.1988   -7.6156   23.9715 H   0  0  0  0  0  0
  -21.1467   -6.0532   25.9077 H   0  0  0  0  0  0
  -22.0606   -2.7616   23.2826 H   0  0  0  0  0  0
  -22.4178  -11.9898   22.4727 H   0  0  0  0  0  0
  -21.1136  -13.1219   22.2594 H   0  0  0  0  0  0
  -24.6815  -15.8612   20.5308 H   0  0  0  0  0  0
  -26.3046  -15.6228   20.1190 H   0  0  0  0  0  0
  -26.7204  -32.5463   23.1199 H   0  0  0  0  0  0
  -25.0176  -33.9781   25.0527 H   0  0  0  0  0  0
  -22.7078  -31.3342   21.4391 H   0  0  0  0  0  0
  -23.3768  -35.9625   23.3289 H   0  0  0  0  0  0
  -24.3601  -36.8910   22.2051 H   0  0  0  0  0  0
  -23.7247  -37.6498   23.6644 H   0  0  0  0  0  0
  -26.1235  -31.5768   20.6589 H   0  0  0  0  0  0
  -26.8354  -30.8141   22.0467 H   0  0  0  0  0  0
  -28.0625  -28.9053   21.2968 H   0  0  0  0  0  0
  -25.8800  -26.1349   18.7508 H   0  0  0  0  0  0
  -23.9450  -27.4745   18.8758 H   0  0  0  0  0  0
  -23.7360  -30.6754   19.4270 H   0  0  0  0  0  0
  -22.7385  -29.3189   19.8535 H   0  0  0  0  0  0
  -25.1294  -36.1972   25.0832 H   0  0  0  0  0  0
  -21.0019  -28.3265   24.1384 H   0  0  0  0  0  0
  -20.5710  -26.2299   23.3604 H   0  0  0  0  0  0
  -21.6647  -26.7453   22.1177 H   0  0  0  0  0  0
  -19.6908  -25.6291   21.1242 H   0  0  0  0  0  0
  -19.6677  -27.3185   20.6751 H   0  0  0  0  0  0
  -17.4210  -26.6722   21.4015 H   0  0  0  0  0  0
  -18.0303  -26.0054   22.8999 H   0  0  0  0  0  0
  -19.7936  -30.7281   24.2261 H   0  0  0  0  0  0
  -17.5010  -31.6263   24.5158 H   0  0  0  0  0  0
  -15.5355  -30.2972   23.7645 H   0  0  0  0  0  0
  -15.8687  -28.0790   22.7097 H   0  0  0  0  0  0
  -24.5925  -30.7083   25.7853 H   0  0  0  0  0  0
  -24.8923  -32.2916   26.4929 H   0  0  0  0  0  0
  -25.8059  -30.8936   27.0315 H   0  0  0  0  0  0
  -26.2976  -29.6745   24.1312 H   0  0  0  0  0  0
  -27.4003  -29.7281   25.4854 H   0  0  0  0  0  0
  -27.8880  -30.4257   23.9618 H   0  0  0  0  0  0
  -27.2698  -33.3634   26.2139 H   0  0  0  0  0  0
  -28.3880  -32.6891   25.0383 H   0  0  0  0  0  0
  -28.0761  -31.8469   26.5473 H   0  0  0  0  0  0
  -28.2583  -38.0122   24.7536 H   0  0  0  0  0  0
  -28.1119  -36.2652   24.6246 H   0  0  0  0  0  0
  -27.2309  -37.1408   25.8854 H   0  0  0  0  0  0
  -20.9342  -29.8838   21.6936 H   0  0  0  0  0  0
  -26.0192  -38.2859   24.1407 H   0  0  0  0  0  0
  -30.6688  -21.5220   21.1740 H   0  0  0  0  0  0
  -32.3713  -24.2311   17.8326 H   0  0  0  0  0  0
  -32.3258  -25.5385   19.0806 H   0  0  0  0  0  0
  -32.5833  -23.6615   20.6724 H   0  0  0  0  0  0
  -31.8397  -22.5291   19.4818 H   0  0  0  0  0  0
  -29.9784  -23.8209   18.0758 H   0  0  0  0  0  0
  -29.9184  -25.5390   18.6069 H   0  0  0  0  0  0
  -32.3008  -16.3941   22.1680 H   0  0  0  0  0  0
  -32.4670  -18.0844   21.6902 H   0  0  0  0  0  0
  -29.1879  -17.9708   19.7976 H   0  0  0  0  0  0
  -30.6432  -18.9360   19.5258 H   0  0  0  0  0  0
  -28.6041  -16.4029   22.0527 H   0  0  0  0  0  0
  -29.8585  -15.4793   22.8833 H   0  0  0  0  0  0
  -30.5172  -24.9228   20.8964 H   0  0  0  0  0  0
  -30.5585  -17.7569   23.5273 H   0  0  0  0  0  0
  -31.7066  -16.8082   19.5830 H   0  0  0  0  0  0
  -30.9057  -19.5289   21.7650 H   0  0  0  0  0  0
  -25.3306  -23.5324   19.8638 H   0  0  0  0  0  0
  -25.0650  -23.5350   21.6190 H   0  0  0  0  0  0
  -24.8648  -22.0855   20.6351 H   0  0  0  0  0  0
  -25.3365  -20.9315   22.4280 H   0  0  0  0  0  0
  -26.4967  -19.7000   22.7469 H   0  0  0  0  0  0
  -25.7979  -19.8188   21.1311 H   0  0  0  0  0  0
  -26.5879  -25.0918   20.6087 H   0  0  0  0  0  0
  -27.4008  -24.7786   19.0425 H   0  0  0  0  0  0
  -28.0568  -18.9942   22.1707 H   0  0  0  0  0  0
  1 25  1  0  0  0
  1 30  2  0  0  0
  1 90  1  0  0  0
  2  3  1  0  0  0
  2 25  1  0  0  0
  2 92  1  0  0  0
  2 93  1  0  0  0
  3  4  1  0  0  0
  3 94  1  0  0  0
  3 95  1  0  0  0
  4  5  1  0  0  0
  4 96  1  0  0  0
  4 97  1  0  0  0
  5  6  1  0  0  0
  5 26  1  0  0  0
  5 98  1  0  0  0
  6 25  1  0  0  0
  6 99  1  0  0  0
  6100  1  0  0  0
  7  8  2  0  0  0
  7 26  1  0  0  0
  7 29  1  0  0  0
  8  9  1  0  0  0
  8 22  1  0  0  0
  9 10  1  0  0  0
  9 27  2  0  0  0
 10 11  2  0  0  0
 10 15  1  0  0  0
 11 12  1  0  0  0
 11101  1  0  0  0
 12 13  2  0  0  0
 12102  1  0  0  0
 13 14  1  0  0  0
 13 31  1  0  0  0
 14 15  2  0  0  0
 14103  1  0  0  0
 15104  1  0  0  0
 16 17  2  0  0  0
 16 21  1  0  0  0
 16 31  1  0  0  0
 17 18  1  0  0  0
 17105  1  0  0  0
 18 19  2  0  0  0
 18106  1  0  0  0
 19 20  1  0  0  0
 19 24  1  0  0  0
 20 21  2  0  0  0
 20107  1  0  0  0
 21 23  1  0  0  0
 22 28  1  0  0  0
 22 32  2  0  0  0
 26 27  1  0  0  0
 28108  1  0  0  0
 28109  1  0  0  0
 29110  1  0  0  0
 29111  1  0  0  0
 33 34  1  0  0  0
 33 66  1  0  0  0
 33 70  2  0  0  0
 34 36  1  0  0  0
 34 59  1  0  0  0
 34112  1  0  0  0
 35 44  2  0  0  0
 35 45  1  0  0  0
 35 68  1  0  0  0
 36 56  1  0  0  0
 36113  1  0  0  0
 37 39  1  0  0  0
 37 47  1  0  0  0
 37 66  1  0  0  0
 37114  1  0  0  0
 38 43  2  0  0  0
 38 46  1  0  0  0
 38 47  1  0  0  0
 39 64  1  0  0  0
 39 67  2  0  0  0
 40 52  1  0  0  0
 40 53  2  0  0  0
 40 58  1  0  0  0
 41115  1  0  0  0
 41116  1  0  0  0
 41117  1  0  0  0
 41 48  1  0  0  0
 42 43  1  0  0  0
 42 66  1  0  0  0
 42118  1  0  0  0
 42119  1  0  0  0
 43 44  1  0  0  0
 44120  1  0  0  0
 45 46  2  0  0  0
 45121  1  0  0  0
 46122  1  0  0  0
 47123  1  0  0  0
 47124  1  0  0  0
 48 56  1  0  0  0
 48 65  1  0  0  0
 48125  1  0  0  0
 49 50  1  0  0  0
 49 53  1  0  0  0
 49 64  1  0  0  0
 49126  1  0  0  0
 50 51  1  0  0  0
 50127  1  0  0  0
 50128  1  0  0  0
 51 52  1  0  0  0
 51129  1  0  0  0
 51130  1  0  0  0
 52131  1  0  0  0
 52132  1  0  0  0
 53 54  1  0  0  0
 54 55  2  0  0  0
 54133  1  0  0  0
 55 57  1  0  0  0
 55134  1  0  0  0
 56 69  2  0  0  0
 57 58  2  0  0  0
 57135  1  0  0  0
 58136  1  0  0  0
 59 60  1  0  0  0
 59 61  1  0  0  0
 59 62  1  0  0  0
 60137  1  0  0  0
 60138  1  0  0  0
 60139  1  0  0  0
 61140  1  0  0  0
 61141  1  0  0  0
 61142  1  0  0  0
 62143  1  0  0  0
 62144  1  0  0  0
 62145  1  0  0  0
 63 65  1  0  0  0
 63146  1  0  0  0
 63147  1  0  0  0
 63148  1  0  0  0
 64149  1  0  0  0
 65150  1  0  0  0
 68 89  1  0  0  0
 71 72  2  0  0  0
 71 76  1  0  0  0
 71151  1  0  0  0
 72 73  1  0  0  0
 72 83  1  0  0  0
 73 74  2  0  0  0
 73 89  1  0  0  0
 74 75  1  0  0  0
 74 87  1  0  0  0
 75 76  2  0  0  0
 75 88  1  0  0  0
 76 91  1  0  0  0
 77 78  1  0  0  0
 77 79  1  0  0  0
 77152  1  0  0  0
 77153  1  0  0  0
 78 83  1  0  0  0
 78154  1  0  0  0
 78155  1  0  0  0
 79 83  1  0  0  0
 79156  1  0  0  0
 79157  1  0  0  0
 80 84  1  0  0  0
 80 85  1  0  0  0
 80158  1  0  0  0
 80159  1  0  0  0
 81 86  1  0  0  0
 81160  1  0  0  0
 81161  1  0  0  0
 81 85  1  0  0  0
 82 90  1  0  0  0
 82162  1  0  0  0
 82163  1  0  0  0
 82 84  1  0  0  0
 83164  1  0  0  0
 84 86  1  0  0  0
 84165  1  0  0  0
 85 90  1  0  0  0
 85166  1  0  0  0
 86 91  1  0  0  0
 86167  1  0  0  0
 87168  1  0  0  0
 87169  1  0  0  0
 87170  1  0  0  0
 88171  1  0  0  0
 88172  1  0  0  0
 88173  1  0  0  0
 89174  1  0  0  0
 89175  1  0  0  0
 91176  1  0  0  0
M  ISO  4   1 100  68 101  89 101  90 100
M  END
> <chiral flag>
0

> <version>
0

> <s_m_source_file>
/data/baiqing/PycharmProjects/Reinvent-master-3.2/result/LINK_invent/BTK/process_docking_weight1_custom_sum_contain_oxygen_bond_distance_aromatic_linkinvent_7_9_3/rearranged_h_0166.sdf

> <i_m_source_file_index>
5

> <r_mmod_Potential_Energy-OPLS-2005>
589.729553222656

> <r_mmod_Stretch_Energy-OPLS-2005>
75.5360717773438

> <r_mmod_Bend_Energy-OPLS-2005>
328.082397460938

> <r_mmod_Torsional_Energy-OPLS-2005>
403.314727783203

> <r_mmod_Improper_Torsional_Energy-OPLS-2005>
17.1796073913574

> <r_mmod_Van_der_Waal_Energy-OPLS-2005>
213.936508178711

> <r_mmod_Electrostatic_Energy-OPLS-2005>
-327.358032226562

> <r_mmod_Solvation_Energy-OPLS-2005>
-192.289779663086

> <b_mmod_Minimization_Converged-OPLS-2005>
0

> <r_mmod_RMS_Derivative-OPLS-2005>
2.95369338989258

$$$$
5
                    3D
 Structure written by MMmdl.
162172  0  0  1  0            999 V2000
  -30.6952  -14.5076   20.5696 C   0  0  0  0  0  0
  -30.4265  -12.3310   19.4270 C   0  0  0  0  0  0
  -29.4959  -12.5057   18.2089 C   0  0  0  0  0  0
  -28.0187  -12.3588   18.6240 C   0  0  0  0  0  0
  -27.6598  -13.2090   19.8719 C   0  0  2  0  0  0
  -28.7023  -13.0138   20.9949 C   0  0  0  0  0  0
  -25.2588  -13.8158   20.5694 C   0  0  0  0  0  0
  -24.1833  -13.0439   20.9175 C   0  0  0  0  0  0
  -24.6387  -11.6908   20.8728 C   0  0  0  0  0  0
  -23.9050  -10.4294   21.0400 C   0  0  0  0  0  0
  -24.3605   -9.4213   21.9179 C   0  0  0  0  0  0
  -23.6287   -8.2242   22.0746 C   0  0  0  0  0  0
  -22.4267   -8.0279   21.3537 C   0  0  0  0  0  0
  -21.9897   -9.0250   20.4642 C   0  0  0  0  0  0
  -22.7219  -10.2136   20.3052 C   0  0  0  0  0  0
  -21.6849   -6.0733   22.5279 C   0  0  0  0  0  0
  -21.4012   -6.5639   23.8214 C   0  0  0  0  0  0
  -21.3657   -5.6788   24.9175 C   0  0  0  0  0  0
  -21.6044   -4.3051   24.7223 C   0  0  0  0  0  0
  -21.8820   -3.8144   23.4344 C   0  0  0  0  0  0
  -21.9192   -4.6961   22.3399 C   0  0  0  0  0  0
  -22.7857  -13.5243   21.1839 C   0  0  0  0  0  0
  -22.1663   -4.2149   21.0976 F   0  0  0  0  0  0
  -21.5630   -3.4534   25.7735 F   0  0  0  0  0  0
  -30.0293  -13.3245   20.4382 N   0  0  0  0  0  0
  -26.3021  -12.9332   20.3359 N   0  0  0  0  0  0
  -25.9315  -11.6492   20.5752 N   0  0  0  0  0  0
  -22.0490  -12.8244   22.0405 N   0  0  0  0  0  0
  -25.4316  -15.1873   20.4115 N   0  0  0  0  0  0
  -31.8255  -14.6881   20.1071 O   0  0  0  0  0  0
  -21.6634   -6.8874   21.4239 O   0  0  0  0  0  0
  -22.3545  -14.5548   20.6688 O   0  0  0  0  0  0
  -24.6185  -31.8660   23.2092 C   0  0  0  0  0  0
  -25.9068  -32.4810   23.8397 C   0  0  1  0  0  0
  -27.2281  -27.3979   20.1006 C   0  0  0  0  0  0
  -25.5917  -33.8609   24.2330 N   0  0  0  0  0  0
  -23.4079  -30.4906   21.5506 C   0  0  2  0  0  0
  -24.8532  -28.9563   20.1121 C   0  0  0  0  0  0
  -22.7433  -29.4655   22.4984 C   0  0  0  0  0  0
  -18.0276  -28.1374   22.8499 C   0  0  0  0  0  0
  -24.1487  -36.7306   23.2638 C   0  0  0  0  0  0
  -25.9420  -30.8202   21.3685 C   0  0  0  0  0  0
  -26.0177  -29.4545   20.7102 C   0  0  0  0  0  0
  -27.2087  -28.6851   20.6971 C   0  0  0  0  0  0
  -26.0433  -26.9329   19.4821 C   0  0  0  0  0  0
  -24.8634  -27.6973   19.4924 C   0  0  0  0  0  0
  -23.6174  -29.8261   20.1649 C   0  0  0  0  0  0
  -25.4111  -36.3104   24.0340 C   0  0  1  0  0  0
  -20.5871  -28.3668   23.1311 C   0  0  2  0  0  0
  -20.6768  -26.9402   22.5415 C   0  0  0  0  0  0
  -19.5745  -26.6383   21.5216 C   0  0  0  0  0  0
  -18.1924  -26.7921   22.1627 C   0  0  0  0  0  0
  -19.1526  -28.8840   23.2899 C   0  0  0  0  0  0
  -18.9448  -30.1445   23.8911 C   0  0  0  0  0  0
  -17.6448  -30.6582   24.0561 C   0  0  0  0  0  0
  -25.9040  -34.9468   23.5133 C   0  0  0  0  0  0
  -16.5341  -29.9082   23.6326 C   0  0  0  0  0  0
  -16.7261  -28.6495   23.0358 C   0  0  0  0  0  0
  -26.4483  -31.6596   25.0733 C   0  0  0  0  0  0
  -25.3753  -31.3720   26.1493 C   0  0  0  0  0  0
  -27.0300  -30.3029   24.6132 C   0  0  0  0  0  0
  -27.6074  -32.4310   25.7480 C   0  0  0  0  0  0
  -27.5580  -37.1808   24.8464 C   0  0  0  0  0  0
  -21.4158  -29.3034   22.3720 N   0  0  0  0  0  0
  -26.4292  -37.3790   23.9410 N   0  0  0  0  0  0
  -24.6745  -31.0736   22.1007 N   0  0  0  0  0  0
  -23.4189  -28.8191   23.3034 O   0  0  0  0  0  0
  -28.3723  -26.6125   20.1462 O   0  0  0  0  0  0
  -26.5591  -34.8921   22.4689 O   0  0  0  0  0  0
  -23.5369  -32.1430   23.7468 O   0  0  0  0  0  0
  -29.7708  -21.7590   19.5791 C   0  0  0  0  0  0
  -29.8255  -20.3972   19.9595 C   0  0  0  0  0  0
  -29.3774  -22.7770   20.4810 C   0  0  0  0  0  0
  -29.0372  -22.3836   21.8035 C   0  0  0  0  0  0
  -29.0573  -21.0059   22.1796 C   0  0  0  0  0  0
  -29.4739  -19.9972   21.2691 C   0  0  0  0  0  0
  -28.5809  -24.6106   18.7647 C   0  0  0  0  0  0
  -30.6657  -16.5528   21.9989 C   0  0  0  0  0  0
  -29.2994  -16.5617   20.4039 C   0  0  0  0  0  0
  -29.3686  -24.2355   20.0068 C   0  0  1  0  0  0
  -28.1618  -25.1780   20.0963 C   0  0  1  0  0  0
  -30.1990  -17.6345   21.0212 C   0  0  0  0  0  0
  -28.6541  -23.4494   22.8268 C   0  0  0  0  0  0
  -28.6438  -20.5970   23.5904 C   0  0  0  0  0  0
  -30.0175  -15.5187   21.1695 N   0  0  0  0  0  0
  -29.5003  -18.6812   21.7218 O   0  0  0  0  0  0
  -31.4696  -12.4386   19.1238 H   0  0  0  0  0  0
  -30.3398  -11.3235   19.8369 H   0  0  0  0  0  0
  -29.7419  -11.7718   17.4402 H   0  0  0  0  0  0
  -29.6560  -13.4863   17.7581 H   0  0  0  0  0  0
  -27.8401  -11.3032   18.8323 H   0  0  0  0  0  0
  -27.3646  -12.6168   17.7900 H   0  0  0  0  0  0
  -27.6953  -14.2529   19.5611 H   0  0  0  0  0  0
  -28.6859  -11.9852   21.3570 H   0  0  0  0  0  0
  -28.4591  -13.6337   21.8590 H   0  0  0  0  0  0
  -25.2750   -9.5695   22.4753 H   0  0  0  0  0  0
  -23.9997   -7.4632   22.7464 H   0  0  0  0  0  0
  -21.0825   -8.8764   19.8954 H   0  0  0  0  0  0
  -22.3667  -10.9670   19.6164 H   0  0  0  0  0  0
  -21.2005   -7.6149   23.9719 H   0  0  0  0  0  0
  -21.1479   -6.0518   25.9079 H   0  0  0  0  0  0
  -22.0603   -2.7607   23.2838 H   0  0  0  0  0  0
  -22.4090  -11.9913   22.4811 H   0  0  0  0  0  0
  -21.1109  -13.1287   22.2595 H   0  0  0  0  0  0
  -24.6722  -15.8482   20.5339 H   0  0  0  0  0  0
  -26.2946  -15.6240   20.1151 H   0  0  0  0  0  0
  -26.7137  -32.5500   23.1153 H   0  0  0  0  0  0
  -25.0091  -33.9769   25.0492 H   0  0  0  0  0  0
  -22.6982  -31.3087   21.4116 H   0  0  0  0  0  0
  -23.3752  -35.9634   23.3298 H   0  0  0  0  0  0
  -24.3586  -36.8925   22.2054 H   0  0  0  0  0  0
  -23.7227  -37.6508   23.6652 H   0  0  0  0  0  0
  -26.0630  -31.5876   20.6026 H   0  0  0  0  0  0
  -26.8267  -30.8690   21.9917 H   0  0  0  0  0  0
  -28.1041  -29.0637   21.1705 H   0  0  0  0  0  0
  -26.0094  -25.9731   18.9874 H   0  0  0  0  0  0
  -23.9700  -27.3108   19.0215 H   0  0  0  0  0  0
  -23.7284  -30.6020   19.4067 H   0  0  0  0  0  0
  -22.7404  -29.2483   19.8674 H   0  0  0  0  0  0
  -25.1288  -36.1973   25.0833 H   0  0  0  0  0  0
  -20.9958  -28.3227   24.1432 H   0  0  0  0  0  0
  -20.5678  -26.2274   23.3604 H   0  0  0  0  0  0
  -21.6635  -26.7450   22.1195 H   0  0  0  0  0  0
  -19.6903  -25.6296   21.1240 H   0  0  0  0  0  0
  -19.6683  -27.3198   20.6750 H   0  0  0  0  0  0
  -17.4196  -26.6676   21.4024 H   0  0  0  0  0  0
  -18.0320  -26.0059   22.9017 H   0  0  0  0  0  0
  -19.7923  -30.7258   24.2287 H   0  0  0  0  0  0
  -17.5002  -31.6266   24.5154 H   0  0  0  0  0  0
  -15.5341  -30.2984   23.7645 H   0  0  0  0  0  0
  -15.8660  -28.0810   22.7078 H   0  0  0  0  0  0
  -24.5860  -30.7158   25.7814 H   0  0  0  0  0  0
  -24.9034  -32.2893   26.5027 H   0  0  0  0  0  0
  -25.8100  -30.8790   27.0200 H   0  0  0  0  0  0
  -26.2840  -29.6793   24.1193 H   0  0  0  0  0  0
  -27.4057  -29.7272   25.4601 H   0  0  0  0  0  0
  -27.8691  -30.4328   23.9294 H   0  0  0  0  0  0
  -27.2708  -33.3599   26.2097 H   0  0  0  0  0  0
  -28.3851  -32.6893   25.0278 H   0  0  0  0  0  0
  -28.0777  -31.8411   26.5356 H   0  0  0  0  0  0
  -28.2610  -38.0092   24.7505 H   0  0  0  0  0  0
  -28.1067  -36.2629   24.6300 H   0  0  0  0  0  0
  -27.2302  -37.1465   25.8868 H   0  0  0  0  0  0
  -20.9324  -29.8759   21.6942 H   0  0  0  0  0  0
  -26.0187  -38.2875   24.1404 H   0  0  0  0  0  0
  -30.0465  -22.0264   18.5684 H   0  0  0  0  0  0
  -30.1302  -19.6698   19.2213 H   0  0  0  0  0  0
  -27.9243  -23.8627   18.3261 H   0  0  0  0  0  0
  -29.0488  -25.2918   18.0570 H   0  0  0  0  0  0
  -30.2217  -16.6433   22.9913 H   0  0  0  0  0  0
  -31.7528  -16.4827   22.0723 H   0  0  0  0  0  0
  -29.4020  -16.4921   19.3193 H   0  0  0  0  0  0
  -28.2513  -16.6618   20.6879 H   0  0  0  0  0  0
  -30.3544  -24.6804   20.1313 H   0  0  0  0  0  0
  -27.2687  -24.8108   20.6004 H   0  0  0  0  0  0
  -31.0170  -17.9559   20.3738 H   0  0  0  0  0  0
  -29.1335  -24.4053   22.6186 H   0  0  0  0  0  0
  -28.9620  -23.1804   23.8367 H   0  0  0  0  0  0
  -27.5746  -23.6026   22.8288 H   0  0  0  0  0  0
  -27.7511  -21.1353   23.9083 H   0  0  0  0  0  0
  -29.4461  -20.8113   24.2967 H   0  0  0  0  0  0
  -28.4055  -19.5367   23.6692 H   0  0  0  0  0  0
  1 25  1  0  0  0
  1 30  2  0  0  0
  1 85  1  0  0  0
  2  3  1  0  0  0
  2 25  1  0  0  0
  2 87  1  0  0  0
  2 88  1  0  0  0
  3  4  1  0  0  0
  3 89  1  0  0  0
  3 90  1  0  0  0
  4  5  1  0  0  0
  4 91  1  0  0  0
  4 92  1  0  0  0
  5  6  1  0  0  0
  5 26  1  0  0  0
  5 93  1  0  0  0
  6 25  1  0  0  0
  6 94  1  0  0  0
  6 95  1  0  0  0
  7  8  2  0  0  0
  7 26  1  0  0  0
  7 29  1  0  0  0
  8  9  1  0  0  0
  8 22  1  0  0  0
  9 10  1  0  0  0
  9 27  2  0  0  0
 10 11  2  0  0  0
 10 15  1  0  0  0
 11 12  1  0  0  0
 11 96  1  0  0  0
 12 13  2  0  0  0
 12 97  1  0  0  0
 13 14  1  0  0  0
 13 31  1  0  0  0
 14 15  2  0  0  0
 14 98  1  0  0  0
 15 99  1  0  0  0
 16 17  2  0  0  0
 16 21  1  0  0  0
 16 31  1  0  0  0
 17 18  1  0  0  0
 17100  1  0  0  0
 18 19  2  0  0  0
 18101  1  0  0  0
 19 20  1  0  0  0
 19 24  1  0  0  0
 20 21  2  0  0  0
 20102  1  0  0  0
 21 23  1  0  0  0
 22 28  1  0  0  0
 22 32  2  0  0  0
 26 27  1  0  0  0
 28103  1  0  0  0
 28104  1  0  0  0
 29105  1  0  0  0
 29106  1  0  0  0
 33 34  1  0  0  0
 33 66  1  0  0  0
 33 70  2  0  0  0
 34 36  1  0  0  0
 34 59  1  0  0  0
 34107  1  0  0  0
 35 44  2  0  0  0
 35 45  1  0  0  0
 35 68  1  0  0  0
 36 56  1  0  0  0
 36108  1  0  0  0
 37 39  1  0  0  0
 37 47  1  0  0  0
 37 66  1  0  0  0
 37109  1  0  0  0
 38 43  2  0  0  0
 38 46  1  0  0  0
 38 47  1  0  0  0
 39 64  1  0  0  0
 39 67  2  0  0  0
 40 52  1  0  0  0
 40 53  2  0  0  0
 40 58  1  0  0  0
 41110  1  0  0  0
 41111  1  0  0  0
 41112  1  0  0  0
 41 48  1  0  0  0
 42 43  1  0  0  0
 42 66  1  0  0  0
 42113  1  0  0  0
 42114  1  0  0  0
 43 44  1  0  0  0
 44115  1  0  0  0
 45 46  2  0  0  0
 45116  1  0  0  0
 46117  1  0  0  0
 47118  1  0  0  0
 47119  1  0  0  0
 48 56  1  0  0  0
 48 65  1  0  0  0
 48120  1  0  0  0
 49 50  1  0  0  0
 49 53  1  0  0  0
 49 64  1  0  0  0
 49121  1  0  0  0
 50 51  1  0  0  0
 50122  1  0  0  0
 50123  1  0  0  0
 51 52  1  0  0  0
 51124  1  0  0  0
 51125  1  0  0  0
 52126  1  0  0  0
 52127  1  0  0  0
 53 54  1  0  0  0
 54 55  2  0  0  0
 54128  1  0  0  0
 55 57  1  0  0  0
 55129  1  0  0  0
 56 69  2  0  0  0
 57 58  2  0  0  0
 57130  1  0  0  0
 58131  1  0  0  0
 59 60  1  0  0  0
 59 61  1  0  0  0
 59 62  1  0  0  0
 60132  1  0  0  0
 60133  1  0  0  0
 60134  1  0  0  0
 61135  1  0  0  0
 61136  1  0  0  0
 61137  1  0  0  0
 62138  1  0  0  0
 62139  1  0  0  0
 62140  1  0  0  0
 63 65  1  0  0  0
 63141  1  0  0  0
 63142  1  0  0  0
 63143  1  0  0  0
 64144  1  0  0  0
 65145  1  0  0  0
 68 81  1  0  0  0
 71 72  2  0  0  0
 71 73  1  0  0  0
 71146  1  0  0  0
 72 76  1  0  0  0
 72147  1  0  0  0
 73 74  2  0  0  0
 73 80  1  0  0  0
 74 75  1  0  0  0
 74 83  1  0  0  0
 75 76  2  0  0  0
 75 84  1  0  0  0
 76 86  1  0  0  0
 77 80  1  0  0  0
 77 81  1  0  0  0
 77148  1  0  0  0
 77149  1  0  0  0
 78 82  1  0  0  0
 78 85  1  0  0  0
 78150  1  0  0  0
 78151  1  0  0  0
 79 82  1  0  0  0
 79 85  1  0  0  0
 79152  1  0  0  0
 79153  1  0  0  0
 80 81  1  0  0  0
 80154  1  0  0  0
 81155  1  0  0  0
 82 86  1  0  0  0
 82156  1  0  0  0
 83157  1  0  0  0
 83158  1  0  0  0
 83159  1  0  0  0
 84160  1  0  0  0
 84161  1  0  0  0
 84162  1  0  0  0
M  ISO  4   1 100  68 101  81 101  85 100
M  END
> <chiral flag>
0

> <version>
0

> <s_m_source_file>
/data/baiqing/PycharmProjects/Reinvent-master-3.2/result/LINK_invent/BTK/process_docking_weight1_custom_sum_contain_oxygen_bond_distance_aromatic_linkinvent_7_9_3/rearranged_h_0166.sdf

> <i_m_source_file_index>
6

> <r_mmod_Potential_Energy-OPLS-2005>
51.5287895202637

> <r_mmod_Stretch_Energy-OPLS-2005>
48.1331748962402

> <r_mmod_Bend_Energy-OPLS-2005>
122.537483215332

> <r_mmod_Torsional_Energy-OPLS-2005>
292.869812011719

> <r_mmod_Improper_Torsional_Energy-OPLS-2005>
8.94732570648193

> <r_mmod_Van_der_Waal_Energy-OPLS-2005>
153.974349975586

> <r_mmod_Electrostatic_Energy-OPLS-2005>
-390.106872558594

> <r_mmod_Solvation_Energy-OPLS-2005>
-204.181991577148

> <b_mmod_Minimization_Converged-OPLS-2005>
0

> <r_mmod_RMS_Derivative-OPLS-2005>
0.831592679023743

$$$$
6
                    3D
 Structure written by MMmdl.
188198  0  0  1  0            999 V2000
  -30.7744  -14.3694   20.6966 C   0  0  0  0  0  0
  -30.4182  -12.2955   19.4026 C   0  0  0  0  0  0
  -29.4838  -12.5375   18.2007 C   0  0  0  0  0  0
  -28.0099  -12.3859   18.6177 C   0  0  0  0  0  0
  -27.6674  -13.2072   19.8882 C   0  0  2  0  0  0
  -28.7063  -12.9488   21.0041 C   0  0  0  0  0  0
  -25.2547  -13.8138   20.5589 C   0  0  0  0  0  0
  -24.1813  -13.0419   20.9130 C   0  0  0  0  0  0
  -24.6376  -11.6897   20.8703 C   0  0  0  0  0  0
  -23.9038  -10.4283   21.0372 C   0  0  0  0  0  0
  -24.3600   -9.4212   21.9152 C   0  0  0  0  0  0
  -23.6286   -8.2246   22.0749 C   0  0  0  0  0  0
  -22.4266   -8.0266   21.3548 C   0  0  0  0  0  0
  -21.9885   -9.0227   20.4645 C   0  0  0  0  0  0
  -22.7209  -10.2106   20.3023 C   0  0  0  0  0  0
  -21.6862   -6.0698   22.5271 C   0  0  0  0  0  0
  -21.4029   -6.5610   23.8199 C   0  0  0  0  0  0
  -21.3659   -5.6768   24.9167 C   0  0  0  0  0  0
  -21.6046   -4.3028   24.7229 C   0  0  0  0  0  0
  -21.8828   -3.8111   23.4354 C   0  0  0  0  0  0
  -21.9210   -4.6925   22.3406 C   0  0  0  0  0  0
  -22.7844  -13.5236   21.1782 C   0  0  0  0  0  0
  -22.1679   -4.2107   21.0985 F   0  0  0  0  0  0
  -21.5621   -3.4519   25.7747 F   0  0  0  0  0  0
  -30.0523  -13.2384   20.4710 N   0  0  0  0  0  0
  -26.3043  -12.9331   20.3412 N   0  0  0  0  0  0
  -25.9316  -11.6489   20.5784 N   0  0  0  0  0  0
  -22.0510  -12.8232   22.0363 N   0  0  0  0  0  0
  -25.4120  -15.1836   20.3871 N   0  0  0  0  0  0
  -31.8034  -14.6444   20.0708 O   0  0  0  0  0  0
  -21.6656   -6.8846   21.4238 O   0  0  0  0  0  0
  -22.3518  -14.5537   20.6630 O   0  0  0  0  0  0
  -24.6128  -31.8720   23.2148 C   0  0  0  0  0  0
  -25.9038  -32.4842   23.8428 C   0  0  1  0  0  0
  -27.2383  -27.4645   20.0709 C   0  0  0  0  0  0
  -25.5908  -33.8641   24.2360 N   0  0  0  0  0  0
  -23.3994  -30.4990   21.5536 C   0  0  2  0  0  0
  -24.8444  -28.9721   20.1158 C   0  0  0  0  0  0
  -22.7395  -29.4691   22.4996 C   0  0  0  0  0  0
  -18.0279  -28.1379   22.8487 C   0  0  0  0  0  0
  -24.1488  -36.7322   23.2636 C   0  0  0  0  0  0
  -25.9284  -30.8404   21.3697 C   0  0  0  0  0  0
  -26.0031  -29.4776   20.7169 C   0  0  0  0  0  0
  -27.1968  -28.7234   20.7090 C   0  0  0  0  0  0
  -26.0554  -26.9704   19.4720 C   0  0  0  0  0  0
  -24.8631  -27.7124   19.4986 C   0  0  0  0  0  0
  -23.6074  -29.8369   20.1659 C   0  0  0  0  0  0
  -25.4106  -36.3123   24.0345 C   0  0  1  0  0  0
  -20.5866  -28.3674   23.1308 C   0  0  2  0  0  0
  -20.6771  -26.9415   22.5409 C   0  0  0  0  0  0
  -19.5745  -26.6390   21.5207 C   0  0  0  0  0  0
  -18.1924  -26.7928   22.1618 C   0  0  0  0  0  0
  -19.1529  -28.8841   23.2893 C   0  0  0  0  0  0
  -18.9460  -30.1445   23.8910 C   0  0  0  0  0  0
  -17.6465  -30.6590   24.0566 C   0  0  0  0  0  0
  -25.9029  -34.9483   23.5142 C   0  0  0  0  0  0
  -16.5353  -29.9093   23.6330 C   0  0  0  0  0  0
  -16.7266  -28.6511   23.0338 C   0  0  0  0  0  0
  -26.4472  -31.6614   25.0744 C   0  0  0  0  0  0
  -25.3746  -31.3724   26.1501 C   0  0  0  0  0  0
  -27.0303  -30.3056   24.6124 C   0  0  0  0  0  0
  -27.6059  -32.4328   25.7497 C   0  0  0  0  0  0
  -27.5584  -37.1812   24.8460 C   0  0  0  0  0  0
  -21.4131  -29.3046   22.3713 N   0  0  0  0  0  0
  -26.4294  -37.3805   23.9410 N   0  0  0  0  0  0
  -24.6649  -31.0847   22.1042 N   0  0  0  0  0  0
  -23.4186  -28.8226   23.3021 O   0  0  0  0  0  0
  -28.4145  -26.7454   20.0944 O   0  0  0  0  0  0
  -26.5585  -34.8932   22.4698 O   0  0  0  0  0  0
  -23.5325  -32.1472   23.7551 O   0  0  0  0  0  0
  -28.3389  -20.2900   19.1689 C   0  0  0  0  0  0
  -28.8455  -21.5008   19.6343 C   0  0  0  0  0  0
  -29.9805  -21.5364   20.4110 C   0  0  0  0  0  0
  -30.0261  -19.0543   20.5116 C   0  0  0  0  0  0
  -28.9603  -19.0816   19.5342 C   0  0  0  0  0  0
  -30.6296  -20.3356   20.8124 C   0  0  0  0  0  0
  -30.9961  -17.8122   22.6585 C   0  0  0  0  0  0
  -30.7385  -15.2830   22.9730 C   0  0  0  0  0  0
  -30.5630  -17.7134   21.1547 C   0  0  1  0  0  0
  -30.3948  -22.9879   20.6107 C   0  0  2  0  0  0
  -31.6285  -16.5171   23.2211 C   0  0  1  0  0  0
  -29.5969  -16.4733   21.1346 C   0  0  2  0  0  0
  -28.3741  -22.8686   19.2164 C   0  0  0  0  0  0
  -28.4840  -17.9047   18.6894 C   0  0  0  0  0  0
  -32.0195  -20.4781   21.4220 C   0  0  0  0  0  0
  -30.5201  -23.4053   22.0861 C   0  0  0  0  0  0
  -33.0721  -16.3182   22.7244 C   0  0  0  0  0  0
  -28.2466  -16.6832   21.8625 C   0  0  0  0  0  0
  -26.9332  -23.0769   19.7150 C   0  0  0  0  0  0
  -28.4455  -22.9396   17.6700 C   0  0  0  0  0  0
  -29.8564  -24.9880   19.2108 C   0  0  0  0  0  0
  -28.8118  -26.0809   18.8959 C   0  0  0  0  0  0
  -30.2444  -15.2326   21.5954 N   0  0  0  0  0  0
  -29.3230  -23.7923   19.9374 N   0  3  2  0  0  0
  -31.4621  -12.3973   19.0992 H   0  0  0  0  0  0
  -30.3149  -11.2738   19.7684 H   0  0  0  0  0  0
  -29.7169  -11.8432   17.3932 H   0  0  0  0  0  0
  -29.6480  -13.5390   17.7999 H   0  0  0  0  0  0
  -27.8219  -11.3266   18.7978 H   0  0  0  0  0  0
  -27.3527  -12.6761   17.7973 H   0  0  0  0  0  0
  -27.7252  -14.2612   19.6158 H   0  0  0  0  0  0
  -28.6658  -11.9061   21.3211 H   0  0  0  0  0  0
  -28.4586  -13.5275   21.8954 H   0  0  0  0  0  0
  -25.2748   -9.5688   22.4712 H   0  0  0  0  0  0
  -23.9992   -7.4640   22.7470 H   0  0  0  0  0  0
  -21.0806   -8.8714   19.8974 H   0  0  0  0  0  0
  -22.3646  -10.9611   19.6105 H   0  0  0  0  0  0
  -21.2024   -7.6115   23.9687 H   0  0  0  0  0  0
  -21.1473   -6.0502   25.9066 H   0  0  0  0  0  0
  -22.0609   -2.7568   23.2869 H   0  0  0  0  0  0
  -22.4191  -11.9935   22.4773 H   0  0  0  0  0  0
  -21.1119  -13.1215   22.2577 H   0  0  0  0  0  0
  -24.6373  -15.8279   20.5015 H   0  0  0  0  0  0
  -26.2660  -15.6347   20.0874 H   0  0  0  0  0  0
  -26.7115  -32.5561   23.1199 H   0  0  0  0  0  0
  -25.0082  -33.9818   25.0520 H   0  0  0  0  0  0
  -22.6872  -31.3161   21.4175 H   0  0  0  0  0  0
  -23.3749  -35.9653   23.3306 H   0  0  0  0  0  0
  -24.3586  -36.8922   22.2046 H   0  0  0  0  0  0
  -23.7238  -37.6533   23.6640 H   0  0  0  0  0  0
  -26.0446  -31.6087   20.6044 H   0  0  0  0  0  0
  -26.8146  -30.8896   21.9901 H   0  0  0  0  0  0
  -28.0902  -29.1110   21.1792 H   0  0  0  0  0  0
  -26.0128  -26.0145   18.9807 H   0  0  0  0  0  0
  -23.9700  -27.3139   19.0369 H   0  0  0  0  0  0
  -23.7183  -30.6150   19.4097 H   0  0  0  0  0  0
  -22.7313  -29.2591   19.8663 H   0  0  0  0  0  0
  -25.1276  -36.1994   25.0839 H   0  0  0  0  0  0
  -20.9961  -28.3244   24.1424 H   0  0  0  0  0  0
  -20.5678  -26.2285   23.3598 H   0  0  0  0  0  0
  -21.6643  -26.7461   22.1196 H   0  0  0  0  0  0
  -19.6911  -25.6301   21.1232 H   0  0  0  0  0  0
  -19.6685  -27.3203   20.6737 H   0  0  0  0  0  0
  -17.4197  -26.6677   21.4021 H   0  0  0  0  0  0
  -18.0329  -26.0070   22.9012 H   0  0  0  0  0  0
  -19.7935  -30.7257   24.2283 H   0  0  0  0  0  0
  -17.5020  -31.6270   24.5169 H   0  0  0  0  0  0
  -15.5348  -30.3003   23.7644 H   0  0  0  0  0  0
  -15.8661  -28.0834   22.7046 H   0  0  0  0  0  0
  -24.5888  -30.7107   25.7834 H   0  0  0  0  0  0
  -24.8976  -32.2890   26.4988 H   0  0  0  0  0  0
  -25.8096  -30.8853   27.0238 H   0  0  0  0  0  0
  -26.2854  -29.6816   24.1177 H   0  0  0  0  0  0
  -27.4068  -29.7293   25.4585 H   0  0  0  0  0  0
  -27.8691  -30.4372   23.9286 H   0  0  0  0  0  0
  -27.2688  -33.3614   26.2118 H   0  0  0  0  0  0
  -28.3842  -32.6914   25.0304 H   0  0  0  0  0  0
  -28.0763  -31.8431   26.5376 H   0  0  0  0  0  0
  -28.2597  -38.0113   24.7527 H   0  0  0  0  0  0
  -28.1086  -36.2652   24.6259 H   0  0  0  0  0  0
  -27.2312  -37.1429   25.8864 H   0  0  0  0  0  0
  -20.9289  -29.8771   21.6938 H   0  0  0  0  0  0
  -26.0187  -38.2885   24.1415 H   0  0  0  0  0  0
  -27.5171  -20.2964   18.4675 H   0  0  0  0  0  0
  -30.1350  -18.0901   23.2640 H   0  0  0  0  0  0
  -31.7215  -18.5791   22.8756 H   0  0  0  0  0  0
  -29.8777  -15.3073   23.6428 H   0  0  0  0  0  0
  -31.2709  -14.3670   23.2375 H   0  0  0  0  0  0
  -31.4433  -17.4578   20.5634 H   0  0  0  0  0  0
  -31.3453  -23.1368   20.0959 H   0  0  0  0  0  0
  -31.7000  -16.6383   24.3040 H   0  0  0  0  0  0
  -29.3563  -16.2189   20.1159 H   0  0  0  0  0  0
  -27.9938  -18.2503   17.7780 H   0  0  0  0  0  0
  -27.7463  -17.2887   19.2013 H   0  0  0  0  0  0
  -29.3265  -17.3073   18.3407 H   0  0  0  0  0  0
  -32.5571  -21.3151   20.9776 H   0  0  0  0  0  0
  -32.6408  -19.6040   21.2264 H   0  0  0  0  0  0
  -31.9667  -20.6644   22.4944 H   0  0  0  0  0  0
  -29.5934  -23.2307   22.6349 H   0  0  0  0  0  0
  -30.7576  -24.4663   22.1676 H   0  0  0  0  0  0
  -31.3146  -22.8658   22.5984 H   0  0  0  0  0  0
  -33.5055  -15.3990   23.1210 H   0  0  0  0  0  0
  -33.7108  -17.1427   23.0445 H   0  0  0  0  0  0
  -33.1328  -16.2663   21.6389 H   0  0  0  0  0  0
  -28.3584  -16.8273   22.9354 H   0  0  0  0  0  0
  -27.5976  -15.8194   21.7370 H   0  0  0  0  0  0
  -27.7100  -17.5554   21.4910 H   0  0  0  0  0  0
  -26.2511  -22.3486   19.2748 H   0  0  0  0  0  0
  -26.5553  -24.0583   19.4547 H   0  0  0  0  0  0
  -26.8580  -22.9699   20.7978 H   0  0  0  0  0  0
  -27.7910  -22.1952   17.2172 H   0  0  0  0  0  0
  -29.4545  -22.7330   17.3126 H   0  0  0  0  0  0
  -28.1293  -23.8904   17.2519 H   0  0  0  0  0  0
  -30.6324  -25.4513   19.8197 H   0  0  0  0  0  0
  -30.3577  -24.6750   18.2958 H   0  0  0  0  0  0
  -27.9815  -25.6844   18.3243 H   0  0  0  0  0  0
  -29.2742  -26.8300   18.2527 H   0  0  0  0  0  0
  -28.7865  -24.1557   20.7108 H   0  0  0  0  0  0
  1 25  1  0  0  0
  1 30  2  0  0  0
  1 93  1  0  0  0
  2  3  1  0  0  0
  2 25  1  0  0  0
  2 95  1  0  0  0
  2 96  1  0  0  0
  3  4  1  0  0  0
  3 97  1  0  0  0
  3 98  1  0  0  0
  4  5  1  0  0  0
  4 99  1  0  0  0
  4100  1  0  0  0
  5  6  1  0  0  0
  5 26  1  0  0  0
  5101  1  0  0  0
  6 25  1  0  0  0
  6102  1  0  0  0
  6103  1  0  0  0
  7  8  2  0  0  0
  7 26  1  0  0  0
  7 29  1  0  0  0
  8  9  1  0  0  0
  8 22  1  0  0  0
  9 10  1  0  0  0
  9 27  2  0  0  0
 10 11  2  0  0  0
 10 15  1  0  0  0
 11 12  1  0  0  0
 11104  1  0  0  0
 12 13  2  0  0  0
 12105  1  0  0  0
 13 14  1  0  0  0
 13 31  1  0  0  0
 14 15  2  0  0  0
 14106  1  0  0  0
 15107  1  0  0  0
 16 17  2  0  0  0
 16 21  1  0  0  0
 16 31  1  0  0  0
 17 18  1  0  0  0
 17108  1  0  0  0
 18 19  2  0  0  0
 18109  1  0  0  0
 19 20  1  0  0  0
 19 24  1  0  0  0
 20 21  2  0  0  0
 20110  1  0  0  0
 21 23  1  0  0  0
 22 28  1  0  0  0
 22 32  2  0  0  0
 26 27  1  0  0  0
 28111  1  0  0  0
 28112  1  0  0  0
 29113  1  0  0  0
 29114  1  0  0  0
 33 34  1  0  0  0
 33 66  1  0  0  0
 33 70  2  0  0  0
 34 36  1  0  0  0
 34 59  1  0  0  0
 34115  1  0  0  0
 35 44  2  0  0  0
 35 45  1  0  0  0
 35 68  1  0  0  0
 36 56  1  0  0  0
 36116  1  0  0  0
 37 39  1  0  0  0
 37 47  1  0  0  0
 37 66  1  0  0  0
 37117  1  0  0  0
 38 43  2  0  0  0
 38 46  1  0  0  0
 38 47  1  0  0  0
 39 64  1  0  0  0
 39 67  2  0  0  0
 40 52  1  0  0  0
 40 53  2  0  0  0
 40 58  1  0  0  0
 41118  1  0  0  0
 41119  1  0  0  0
 41120  1  0  0  0
 41 48  1  0  0  0
 42 43  1  0  0  0
 42 66  1  0  0  0
 42121  1  0  0  0
 42122  1  0  0  0
 43 44  1  0  0  0
 44123  1  0  0  0
 45 46  2  0  0  0
 45124  1  0  0  0
 46125  1  0  0  0
 47126  1  0  0  0
 47127  1  0  0  0
 48 56  1  0  0  0
 48 65  1  0  0  0
 48128  1  0  0  0
 49 50  1  0  0  0
 49 53  1  0  0  0
 49 64  1  0  0  0
 49129  1  0  0  0
 50 51  1  0  0  0
 50130  1  0  0  0
 50131  1  0  0  0
 51 52  1  0  0  0
 51132  1  0  0  0
 51133  1  0  0  0
 52134  1  0  0  0
 52135  1  0  0  0
 53 54  1  0  0  0
 54 55  2  0  0  0
 54136  1  0  0  0
 55 57  1  0  0  0
 55137  1  0  0  0
 56 69  2  0  0  0
 57 58  2  0  0  0
 57138  1  0  0  0
 58139  1  0  0  0
 59 60  1  0  0  0
 59 61  1  0  0  0
 59 62  1  0  0  0
 60140  1  0  0  0
 60141  1  0  0  0
 60142  1  0  0  0
 61143  1  0  0  0
 61144  1  0  0  0
 61145  1  0  0  0
 62146  1  0  0  0
 62147  1  0  0  0
 62148  1  0  0  0
 63 65  1  0  0  0
 63149  1  0  0  0
 63150  1  0  0  0
 63151  1  0  0  0
 64152  1  0  0  0
 65153  1  0  0  0
 68 92  1  0  0  0
 71 72  2  0  0  0
 71 75  1  0  0  0
 71154  1  0  0  0
 72 73  1  0  0  0
 72 83  1  0  0  0
 73 76  2  0  0  0
 73 80  1  0  0  0
 74 75  2  0  0  0
 74 76  1  0  0  0
 74 79  1  0  0  0
 75 84  1  0  0  0
 76 85  1  0  0  0
 77 79  1  0  0  0
 77 81  1  0  0  0
 77155  1  0  0  0
 77156  1  0  0  0
 78 81  1  0  0  0
 78 93  1  0  0  0
 78157  1  0  0  0
 78158  1  0  0  0
 79 82  1  0  0  0
 79159  1  0  0  0
 80 86  1  0  0  0
 80 94  1  0  0  0
 80160  1  0  0  0
 81 87  1  0  0  0
 81161  1  0  0  0
 82 88  1  0  0  0
 82 93  1  0  0  0
 82162  1  0  0  0
 83 89  1  0  0  0
 83 90  1  0  0  0
 83 94  1  0  0  0
 84163  1  0  0  0
 84164  1  0  0  0
 84165  1  0  0  0
 85166  1  0  0  0
 85167  1  0  0  0
 85168  1  0  0  0
 86169  1  0  0  0
 86170  1  0  0  0
 86171  1  0  0  0
 87172  1  0  0  0
 87173  1  0  0  0
 87174  1  0  0  0
 88175  1  0  0  0
 88176  1  0  0  0
 88177  1  0  0  0
 89178  1  0  0  0
 89179  1  0  0  0
 89180  1  0  0  0
 90181  1  0  0  0
 90182  1  0  0  0
 90183  1  0  0  0
 91 92  1  0  0  0
 91184  1  0  0  0
 91185  1  0  0  0
 91 94  1  0  0  0
 92186  1  0  0  0
 92187  1  0  0  0
 94188  1  0  0  0
M  CHG  1  94   1
M  ISO  4   1 100  68 101  92 101  93 100
M  END
> <chiral flag>
0

> <version>
0

> <s_m_source_file>
/data/baiqing/PycharmProjects/Reinvent-master-3.2/result/LINK_invent/BTK/process_docking_weight1_custom_sum_contain_oxygen_bond_distance_aromatic_linkinvent_7_9_3/rearranged_h_0166.sdf

> <i_m_source_file_index>
7

> <r_mmod_Potential_Energy-OPLS-2005>
203.420028686523

> <r_mmod_Stretch_Energy-OPLS-2005>
61.0592842102051

> <r_mmod_Bend_Energy-OPLS-2005>
176.395919799805

> <r_mmod_Torsional_Energy-OPLS-2005>
415.640502929688

> <r_mmod_Improper_Torsional_Energy-OPLS-2005>
5.72925710678101

> <r_mmod_Van_der_Waal_Energy-OPLS-2005>
179.513641357422

> <r_mmod_Electrostatic_Energy-OPLS-2005>
-276.105529785156

> <r_mmod_Solvation_Energy-OPLS-2005>
-366.909149169922

> <b_mmod_Minimization_Converged-OPLS-2005>
0

> <r_mmod_RMS_Derivative-OPLS-2005>
2.31799364089966

$$$$
7
                    3D
 Structure written by MMmdl.
168177  0  0  1  0            999 V2000
  -30.6861  -14.6302   20.4817 C   0  0  0  0  0  0
  -30.4221  -12.3918   19.4505 C   0  0  0  0  0  0
  -29.4952  -12.4964   18.2221 C   0  0  0  0  0  0
  -28.0226  -12.3291   18.6431 C   0  0  0  0  0  0
  -27.6432  -13.2166   19.8583 C   0  0  2  0  0  0
  -28.6950  -13.1346   20.9869 C   0  0  0  0  0  0
  -25.2536  -13.8157   20.5736 C   0  0  0  0  0  0
  -24.1807  -13.0414   20.9221 C   0  0  0  0  0  0
  -24.6384  -11.6886   20.8774 C   0  0  0  0  0  0
  -23.9058  -10.4278   21.0423 C   0  0  0  0  0  0
  -24.3610   -9.4188   21.9192 C   0  0  0  0  0  0
  -23.6288   -8.2222   22.0755 C   0  0  0  0  0  0
  -22.4268   -8.0269   21.3544 C   0  0  0  0  0  0
  -21.9907   -9.0247   20.4647 C   0  0  0  0  0  0
  -22.7236  -10.2126   20.3066 C   0  0  0  0  0  0
  -21.6847   -6.0734   22.5280 C   0  0  0  0  0  0
  -21.4009   -6.5641   23.8213 C   0  0  0  0  0  0
  -21.3657   -5.6795   24.9176 C   0  0  0  0  0  0
  -21.6043   -4.3058   24.7230 C   0  0  0  0  0  0
  -21.8819   -3.8149   23.4353 C   0  0  0  0  0  0
  -21.9194   -4.6963   22.3407 C   0  0  0  0  0  0
  -22.7831  -13.5214   21.1869 C   0  0  0  0  0  0
  -22.1660   -4.2146   21.0986 F   0  0  0  0  0  0
  -21.5630   -3.4544   25.7744 F   0  0  0  0  0  0
  -30.0063  -13.4435   20.3991 N   0  0  0  0  0  0
  -26.2953  -12.9331   20.3370 N   0  0  0  0  0  0
  -25.9314  -11.6485   20.5809 N   0  0  0  0  0  0
  -22.0480  -12.8203   22.0424 N   0  0  0  0  0  0
  -25.4277  -15.1878   20.4162 N   0  0  0  0  0  0
  -31.8724  -14.7088   20.1505 O   0  0  0  0  0  0
  -21.6632   -6.8866   21.4236 O   0  0  0  0  0  0
  -22.3518  -14.5522   20.6717 O   0  0  0  0  0  0
  -24.6240  -31.8619   23.2028 C   0  0  0  0  0  0
  -25.9086  -32.4791   23.8367 C   0  0  1  0  0  0
  -27.2302  -27.3366   20.1263 C   0  0  0  0  0  0
  -25.5902  -33.8590   24.2297 N   0  0  0  0  0  0
  -23.4189  -30.4813   21.5457 C   0  0  2  0  0  0
  -24.8686  -28.9362   20.1142 C   0  0  0  0  0  0
  -22.7477  -29.4618   22.4967 C   0  0  0  0  0  0
  -18.0283  -28.1370   22.8492 C   0  0  0  0  0  0
  -24.1486  -36.7315   23.2644 C   0  0  0  0  0  0
  -25.9566  -30.7989   21.3697 C   0  0  0  0  0  0
  -26.0340  -29.4244   20.7195 C   0  0  0  0  0  0
  -27.2210  -28.6361   20.7144 C   0  0  0  0  0  0
  -26.0496  -26.9000   19.4875 C   0  0  0  0  0  0
  -24.8781  -27.6802   19.4863 C   0  0  0  0  0  0
  -23.6342  -29.8129   20.1617 C   0  0  0  0  0  0
  -25.4108  -36.3108   24.0348 C   0  0  1  0  0  0
  -20.5879  -28.3678   23.1291 C   0  0  2  0  0  0
  -20.6756  -26.9398   22.5414 C   0  0  0  0  0  0
  -19.5731  -26.6376   21.5211 C   0  0  0  0  0  0
  -18.1919  -26.7912   22.1630 C   0  0  0  0  0  0
  -19.1534  -28.8838   23.2883 C   0  0  0  0  0  0
  -18.9458  -30.1442   23.8898 C   0  0  0  0  0  0
  -17.6456  -30.6572   24.0558 C   0  0  0  0  0  0
  -25.9046  -34.9468   23.5132 C   0  0  0  0  0  0
  -16.5348  -29.9078   23.6310 C   0  0  0  0  0  0
  -16.7271  -28.6490   23.0345 C   0  0  0  0  0  0
  -26.4471  -31.6588   25.0728 C   0  0  0  0  0  0
  -25.3701  -31.3708   26.1453 C   0  0  0  0  0  0
  -27.0317  -30.3026   24.6149 C   0  0  0  0  0  0
  -27.6049  -32.4311   25.7480 C   0  0  0  0  0  0
  -27.5583  -37.1814   24.8471 C   0  0  0  0  0  0
  -21.4189  -29.3043   22.3713 N   0  0  0  0  0  0
  -26.4294  -37.3796   23.9417 N   0  0  0  0  0  0
  -24.6852  -31.0636   22.0971 N   0  0  0  0  0  0
  -23.4207  -28.8159   23.3041 O   0  0  0  0  0  0
  -28.3497  -26.4992   20.1419 O   0  0  0  0  0  0
  -26.5626  -34.8926   22.4704 O   0  0  0  0  0  0
  -23.5402  -32.1418   23.7355 O   0  0  0  0  0  0
  -30.4903  -22.9197   18.3824 C   0  0  0  0  0  0
  -30.3600  -21.6641   19.0093 C   0  0  0  0  0  0
  -29.7991  -24.0481   18.8575 C   0  0  0  0  0  0
  -29.5021  -21.5558   20.1384 C   0  0  0  0  0  0
  -28.9764  -23.9172   19.9985 C   0  0  0  0  0  0
  -29.5197  -16.5573   19.5155 C   0  0  0  0  0  0
  -28.8949  -17.9633   19.8131 C   0  0  0  0  0  0
  -30.7678  -18.1862   21.4034 C   0  0  0  0  0  0
  -30.3806  -16.7082   21.8120 C   0  0  2  0  0  0
  -31.1640  -20.5161   18.4087 C   0  0  0  0  0  0
  -29.9629  -25.3586   18.1055 C   0  0  0  0  0  0
  -29.3211  -16.6879   22.9289 C   0  0  0  0  0  0
  -29.2594  -20.2263   20.9525 C   0  0  0  0  0  0
  -28.1478  -25.1097   20.6117 C   0  0  0  0  0  0
  -28.8478  -22.6803   20.5958 N   0  0  0  0  0  0
  -29.9751  -15.7905   20.7063 N   0  0  0  0  0  0
  -29.8445  -18.9079   20.4664 N   0  3  2  0  0  0
  -31.4643  -12.4922   19.1402 H   0  0  0  0  0  0
  -30.3421  -11.4087   19.9163 H   0  0  0  0  0  0
  -29.7605  -11.7386   17.4843 H   0  0  0  0  0  0
  -29.6336  -13.4626   17.7338 H   0  0  0  0  0  0
  -27.8708  -11.2781   18.8937 H   0  0  0  0  0  0
  -27.3633  -12.5396   17.8003 H   0  0  0  0  0  0
  -27.6320  -14.2383   19.4913 H   0  0  0  0  0  0
  -28.7068  -12.1405   21.4369 H   0  0  0  0  0  0
  -28.4475  -13.8323   21.7886 H   0  0  0  0  0  0
  -25.2754   -9.5658   22.4768 H   0  0  0  0  0  0
  -23.9999   -7.4606   22.7467 H   0  0  0  0  0  0
  -21.0841   -8.8771   19.8945 H   0  0  0  0  0  0
  -22.3702  -10.9672   19.6182 H   0  0  0  0  0  0
  -21.1992   -7.6146   23.9715 H   0  0  0  0  0  0
  -21.1478   -6.0526   25.9079 H   0  0  0  0  0  0
  -22.0602   -2.7611   23.2859 H   0  0  0  0  0  0
  -22.4101  -11.9852   22.4795 H   0  0  0  0  0  0
  -21.1097  -13.1214   22.2639 H   0  0  0  0  0  0
  -24.6661  -15.8471   20.5307 H   0  0  0  0  0  0
  -26.2879  -15.6225   20.1111 H   0  0  0  0  0  0
  -26.7159  -32.5472   23.1125 H   0  0  0  0  0  0
  -25.0011  -33.9739   25.0415 H   0  0  0  0  0  0
  -22.7109  -31.2993   21.3994 H   0  0  0  0  0  0
  -23.3749  -35.9648   23.3317 H   0  0  0  0  0  0
  -24.3581  -36.8918   22.2055 H   0  0  0  0  0  0
  -23.7228  -37.6521   23.6647 H   0  0  0  0  0  0
  -26.0774  -31.5581   20.5956 H   0  0  0  0  0  0
  -26.8416  -30.8580   21.9915 H   0  0  0  0  0  0
  -28.1168  -29.0082   21.1919 H   0  0  0  0  0  0
  -26.0264  -25.9431   18.9854 H   0  0  0  0  0  0
  -23.9903  -27.3079   18.9943 H   0  0  0  0  0  0
  -23.7508  -30.5872   19.4025 H   0  0  0  0  0  0
  -22.7565  -29.2383   19.8610 H   0  0  0  0  0  0
  -25.1273  -36.1985   25.0842 H   0  0  0  0  0  0
  -20.9959  -28.3233   24.1415 H   0  0  0  0  0  0
  -20.5624  -26.2293   23.3622 H   0  0  0  0  0  0
  -21.6626  -26.7401   22.1218 H   0  0  0  0  0  0
  -19.6890  -25.6291   21.1231 H   0  0  0  0  0  0
  -19.6649  -27.3188   20.6741 H   0  0  0  0  0  0
  -17.4179  -26.6658   21.4041 H   0  0  0  0  0  0
  -18.0323  -26.0051   22.9022 H   0  0  0  0  0  0
  -19.7935  -30.7253   24.2273 H   0  0  0  0  0  0
  -17.5010  -31.6248   24.5166 H   0  0  0  0  0  0
  -15.5348  -30.2979   23.7622 H   0  0  0  0  0  0
  -15.8677  -28.0804   22.7062 H   0  0  0  0  0  0
  -24.5884  -30.7053   25.7770 H   0  0  0  0  0  0
  -24.8869  -32.2863   26.4882 H   0  0  0  0  0  0
  -25.8016  -30.8876   27.0229 H   0  0  0  0  0  0
  -26.2889  -29.6785   24.1165 H   0  0  0  0  0  0
  -27.4044  -29.7259   25.4624 H   0  0  0  0  0  0
  -27.8737  -30.4350   23.9351 H   0  0  0  0  0  0
  -27.2684  -33.3614   26.2069 H   0  0  0  0  0  0
  -28.3831  -32.6866   25.0276 H   0  0  0  0  0  0
  -28.0751  -31.8428   26.5371 H   0  0  0  0  0  0
  -28.2608  -38.0103   24.7508 H   0  0  0  0  0  0
  -28.1067  -36.2634   24.6300 H   0  0  0  0  0  0
  -27.2311  -37.1475   25.8878 H   0  0  0  0  0  0
  -20.9391  -29.8803   21.6941 H   0  0  0  0  0  0
  -26.0193  -38.2888   24.1381 H   0  0  0  0  0  0
  -31.1287  -23.0167   17.5157 H   0  0  0  0  0  0
  -30.3625  -16.6840   18.8320 H   0  0  0  0  0  0
  -28.7927  -15.9677   18.9601 H   0  0  0  0  0  0
  -28.0141  -17.8343   20.4425 H   0  0  0  0  0  0
  -28.5350  -18.4135   18.8864 H   0  0  0  0  0  0
  -31.7228  -18.1322   20.8796 H   0  0  0  0  0  0
  -30.9820  -18.7796   22.2926 H   0  0  0  0  0  0
  -31.2840  -16.2969   22.2710 H   0  0  0  0  0  0
  -30.5097  -19.7505   17.9905 H   0  0  0  0  0  0
  -31.8370  -20.0665   19.1380 H   0  0  0  0  0  0
  -31.7941  -20.8648   17.5884 H   0  0  0  0  0  0
  -30.4565  -26.1038   18.7288 H   0  0  0  0  0  0
  -28.9926  -25.7434   17.7903 H   0  0  0  0  0  0
  -30.5685  -25.2306   17.2075 H   0  0  0  0  0  0
  -28.3574  -17.0709   22.5954 H   0  0  0  0  0  0
  -29.6365  -17.2948   23.7778 H   0  0  0  0  0  0
  -29.1626  -15.6757   23.3031 H   0  0  0  0  0  0
  -28.1825  -20.1067   21.0701 H   0  0  0  0  0  0
  -29.6218  -20.4333   21.9588 H   0  0  0  0  0  0
  -28.3831  -25.1277   21.6766 H   0  0  0  0  0  0
  -27.1014  -24.8116   20.5702 H   0  0  0  0  0  0
  -30.4528  -19.2329   19.7290 H   0  0  0  0  0  0
  1 25  1  0  0  0
  1 30  2  0  0  0
  1 86  1  0  0  0
  2  3  1  0  0  0
  2 25  1  0  0  0
  2 88  1  0  0  0
  2 89  1  0  0  0
  3  4  1  0  0  0
  3 90  1  0  0  0
  3 91  1  0  0  0
  4  5  1  0  0  0
  4 92  1  0  0  0
  4 93  1  0  0  0
  5  6  1  0  0  0
  5 26  1  0  0  0
  5 94  1  0  0  0
  6 25  1  0  0  0
  6 95  1  0  0  0
  6 96  1  0  0  0
  7  8  2  0  0  0
  7 26  1  0  0  0
  7 29  1  0  0  0
  8  9  1  0  0  0
  8 22  1  0  0  0
  9 10  1  0  0  0
  9 27  2  0  0  0
 10 11  2  0  0  0
 10 15  1  0  0  0
 11 12  1  0  0  0
 11 97  1  0  0  0
 12 13  2  0  0  0
 12 98  1  0  0  0
 13 14  1  0  0  0
 13 31  1  0  0  0
 14 15  2  0  0  0
 14 99  1  0  0  0
 15100  1  0  0  0
 16 17  2  0  0  0
 16 21  1  0  0  0
 16 31  1  0  0  0
 17 18  1  0  0  0
 17101  1  0  0  0
 18 19  2  0  0  0
 18102  1  0  0  0
 19 20  1  0  0  0
 19 24  1  0  0  0
 20 21  2  0  0  0
 20103  1  0  0  0
 21 23  1  0  0  0
 22 28  1  0  0  0
 22 32  2  0  0  0
 26 27  1  0  0  0
 28104  1  0  0  0
 28105  1  0  0  0
 29106  1  0  0  0
 29107  1  0  0  0
 33 34  1  0  0  0
 33 66  1  0  0  0
 33 70  2  0  0  0
 34 36  1  0  0  0
 34 59  1  0  0  0
 34108  1  0  0  0
 35 44  2  0  0  0
 35 45  1  0  0  0
 35 68  1  0  0  0
 36 56  1  0  0  0
 36109  1  0  0  0
 37 39  1  0  0  0
 37 47  1  0  0  0
 37 66  1  0  0  0
 37110  1  0  0  0
 38 43  2  0  0  0
 38 46  1  0  0  0
 38 47  1  0  0  0
 39 64  1  0  0  0
 39 67  2  0  0  0
 40 52  1  0  0  0
 40 53  2  0  0  0
 40 58  1  0  0  0
 41111  1  0  0  0
 41112  1  0  0  0
 41113  1  0  0  0
 41 48  1  0  0  0
 42 43  1  0  0  0
 42 66  1  0  0  0
 42114  1  0  0  0
 42115  1  0  0  0
 43 44  1  0  0  0
 44116  1  0  0  0
 45 46  2  0  0  0
 45117  1  0  0  0
 46118  1  0  0  0
 47119  1  0  0  0
 47120  1  0  0  0
 48 56  1  0  0  0
 48 65  1  0  0  0
 48121  1  0  0  0
 49 50  1  0  0  0
 49 53  1  0  0  0
 49 64  1  0  0  0
 49122  1  0  0  0
 50 51  1  0  0  0
 50123  1  0  0  0
 50124  1  0  0  0
 51 52  1  0  0  0
 51125  1  0  0  0
 51126  1  0  0  0
 52127  1  0  0  0
 52128  1  0  0  0
 53 54  1  0  0  0
 54 55  2  0  0  0
 54129  1  0  0  0
 55 57  1  0  0  0
 55130  1  0  0  0
 56 69  2  0  0  0
 57 58  2  0  0  0
 57131  1  0  0  0
 58132  1  0  0  0
 59 60  1  0  0  0
 59 61  1  0  0  0
 59 62  1  0  0  0
 60133  1  0  0  0
 60134  1  0  0  0
 60135  1  0  0  0
 61136  1  0  0  0
 61137  1  0  0  0
 61138  1  0  0  0
 62139  1  0  0  0
 62140  1  0  0  0
 62141  1  0  0  0
 63 65  1  0  0  0
 63142  1  0  0  0
 63143  1  0  0  0
 63144  1  0  0  0
 64145  1  0  0  0
 65146  1  0  0  0
 68 84  1  0  0  0
 71 72  2  0  0  0
 71 73  1  0  0  0
 71147  1  0  0  0
 72 74  1  0  0  0
 72 80  1  0  0  0
 73 75  2  0  0  0
 73 81  1  0  0  0
 74 83  1  0  0  0
 74 85  2  0  0  0
 75 84  1  0  0  0
 75 85  1  0  0  0
 76 77  1  0  0  0
 76 86  1  0  0  0
 76148  1  0  0  0
 76149  1  0  0  0
 77 87  1  0  0  0
 77150  1  0  0  0
 77151  1  0  0  0
 78 79  1  0  0  0
 78 87  1  0  0  0
 78152  1  0  0  0
 78153  1  0  0  0
 79 82  1  0  0  0
 79 86  1  0  0  0
 79154  1  0  0  0
 80155  1  0  0  0
 80156  1  0  0  0
 80157  1  0  0  0
 81158  1  0  0  0
 81159  1  0  0  0
 81160  1  0  0  0
 82161  1  0  0  0
 82162  1  0  0  0
 82163  1  0  0  0
 83164  1  0  0  0
 83165  1  0  0  0
 83 87  1  0  0  0
 84166  1  0  0  0
 84167  1  0  0  0
 87168  1  0  0  0
M  CHG  1  87   1
M  ISO  4   1 100  68 101  84 101  86 100
M  END
> <chiral flag>
0

> <version>
0

> <s_m_source_file>
/data/baiqing/PycharmProjects/Reinvent-master-3.2/result/LINK_invent/BTK/process_docking_weight1_custom_sum_contain_oxygen_bond_distance_aromatic_linkinvent_7_9_3/rearranged_h_0166.sdf

> <i_m_source_file_index>
8

> <r_mmod_Potential_Energy-OPLS-2005>
71.8574523925781

> <r_mmod_Stretch_Energy-OPLS-2005>
82.0793991088867

> <r_mmod_Bend_Energy-OPLS-2005>
156.096496582031

> <r_mmod_Torsional_Energy-OPLS-2005>
438.118133544922

> <r_mmod_Improper_Torsional_Energy-OPLS-2005>
8.57786560058594

> <r_mmod_Van_der_Waal_Energy-OPLS-2005>
154.446594238281

> <r_mmod_Electrostatic_Energy-OPLS-2005>
-378.602661132812

> <r_mmod_Solvation_Energy-OPLS-2005>
-435.506530761719

> <b_mmod_Minimization_Converged-OPLS-2005>
0

> <r_mmod_RMS_Derivative-OPLS-2005>
1.49563562870026

$$$$
8
                    3D
 Structure written by MMmdl.
165174  0  0  1  0            999 V2000
  -30.6535  -14.7818   20.3931 C   0  0  0  0  0  0
  -30.4219  -12.4703   19.4595 C   0  0  0  0  0  0
  -29.4920  -12.4261   18.2303 C   0  0  0  0  0  0
  -28.0262  -12.2367   18.6637 C   0  0  0  0  0  0
  -27.6200  -13.1749   19.8230 C   0  0  2  0  0  0
  -28.6816  -13.2185   20.9501 C   0  0  0  0  0  0
  -25.2463  -13.8053   20.5634 C   0  0  0  0  0  0
  -24.1743  -13.0363   20.9235 C   0  0  0  0  0  0
  -24.6312  -11.6844   20.8841 C   0  0  0  0  0  0
  -23.9010  -10.4255   21.0474 C   0  0  0  0  0  0
  -24.3602   -9.4168   21.9214 C   0  0  0  0  0  0
  -23.6276   -8.2212   22.0762 C   0  0  0  0  0  0
  -22.4259   -8.0270   21.3544 C   0  0  0  0  0  0
  -21.9891   -9.0258   20.4655 C   0  0  0  0  0  0
  -22.7219  -10.2126   20.3079 C   0  0  0  0  0  0
  -21.6861   -6.0731   22.5287 C   0  0  0  0  0  0
  -21.4029   -6.5637   23.8218 C   0  0  0  0  0  0
  -21.3627   -5.6787   24.9179 C   0  0  0  0  0  0
  -21.6018   -4.3051   24.7229 C   0  0  0  0  0  0
  -21.8832   -3.8149   23.4361 C   0  0  0  0  0  0
  -21.9216   -4.6963   22.3415 C   0  0  0  0  0  0
  -22.7782  -13.5197   21.1878 C   0  0  0  0  0  0
  -22.1689   -4.2144   21.1001 F   0  0  0  0  0  0
  -21.5596   -3.4533   25.7741 F   0  0  0  0  0  0
  -29.9638  -13.5819   20.3299 N   0  0  0  0  0  0
  -26.2818  -12.9130   20.3242 N   0  0  0  0  0  0
  -25.9206  -11.6362   20.5851 N   0  0  0  0  0  0
  -22.0456  -12.8190   22.0464 N   0  0  0  0  0  0
  -25.4092  -15.1763   20.3894 N   0  0  0  0  0  0
  -31.8702  -14.7554   20.1932 O   0  0  0  0  0  0
  -21.6630   -6.8873   21.4241 O   0  0  0  0  0  0
  -22.3479  -14.5502   20.6731 O   0  0  0  0  0  0
  -24.6284  -31.8565   23.1995 C   0  0  0  0  0  0
  -25.9131  -32.4751   23.8329 C   0  0  1  0  0  0
  -27.2254  -27.2911   20.1173 C   0  0  0  0  0  0
  -25.5943  -33.8550   24.2264 N   0  0  0  0  0  0
  -23.4234  -30.4787   21.5421 C   0  0  2  0  0  0
  -24.8703  -28.9291   20.1093 C   0  0  0  0  0  0
  -22.7480  -29.4608   22.4923 C   0  0  0  0  0  0
  -18.0289  -28.1374   22.8486 C   0  0  0  0  0  0
  -24.1486  -36.7290   23.2643 C   0  0  0  0  0  0
  -25.9652  -30.7767   21.3770 C   0  0  0  0  0  0
  -26.0393  -29.4023   20.7179 C   0  0  0  0  0  0
  -27.2172  -28.5934   20.7153 C   0  0  0  0  0  0
  -26.0310  -26.8783   19.4816 C   0  0  0  0  0  0
  -24.8683  -27.6717   19.4859 C   0  0  0  0  0  0
  -23.6406  -29.8133   20.1574 C   0  0  0  0  0  0
  -25.4112  -36.3070   24.0327 C   0  0  1  0  0  0
  -20.5883  -28.3688   23.1260 C   0  0  2  0  0  0
  -20.6778  -26.9409   22.5398 C   0  0  0  0  0  0
  -19.5760  -26.6382   21.5190 C   0  0  0  0  0  0
  -18.1937  -26.7919   22.1601 C   0  0  0  0  0  0
  -19.1541  -28.8847   23.2866 C   0  0  0  0  0  0
  -18.9472  -30.1445   23.8896 C   0  0  0  0  0  0
  -17.6479  -30.6586   24.0549 C   0  0  0  0  0  0
  -25.9055  -34.9440   23.5094 C   0  0  0  0  0  0
  -16.5368  -29.9087   23.6317 C   0  0  0  0  0  0
  -16.7282  -28.6487   23.0367 C   0  0  0  0  0  0
  -26.4521  -31.6581   25.0716 C   0  0  0  0  0  0
  -25.3757  -31.3731   26.1453 C   0  0  0  0  0  0
  -27.0371  -30.2996   24.6200 C   0  0  0  0  0  0
  -27.6072  -32.4337   25.7495 C   0  0  0  0  0  0
  -27.5586  -37.1795   24.8458 C   0  0  0  0  0  0
  -21.4190  -29.3043   22.3651 N   0  0  0  0  0  0
  -26.4291  -37.3771   23.9413 N   0  0  0  0  0  0
  -24.6910  -31.0548   22.0967 N   0  0  0  0  0  0
  -23.4195  -28.8153   23.3020 O   0  0  0  0  0  0
  -28.3415  -26.4333   20.1773 O   0  0  0  0  0  0
  -26.5616  -34.8923   22.4659 O   0  0  0  0  0  0
  -23.5451  -32.1380   23.7327 O   0  0  0  0  0  0
  -30.0816  -20.0179   18.7186 C   0  0  0  0  0  0
  -29.6788  -19.9674   20.0686 C   0  0  0  0  0  0
  -29.3193  -21.2447   20.6589 C   0  0  0  0  0  0
  -30.1306  -21.2489   18.0377 C   0  0  0  0  0  0
  -29.4023  -22.4733   19.8929 C   0  0  0  0  0  0
  -28.2861  -17.8176   20.4657 C   0  0  0  0  0  0
  -29.5767  -18.5544   20.7895 C   0  0  1  0  0  0
  -28.6504  -16.3795   20.0295 C   0  0  1  0  0  0
  -30.6676  -17.4012   20.5968 C   0  0  1  0  0  0
  -30.5732  -21.3065   16.5911 C   0  0  0  0  0  0
  -28.5348  -16.2864   18.4895 C   0  0  0  0  0  0
  -31.6944  -17.4507   21.7442 C   0  0  0  0  0  0
  -29.2757  -23.9480   20.4637 C   0  0  0  0  0  0
  -28.1817  -24.9726   19.9014 C   0  0  0  0  0  0
  -29.8086  -22.4341   18.6017 N   0  0  0  0  0  0
  -30.0091  -16.0350   20.4902 N   0  0  0  0  0  0
  -28.7812  -21.3082   22.3010 Cl  0  0  0  0  0  0
  -31.4527  -12.5954   19.1277 H   0  0  0  0  0  0
  -30.3969  -11.5222   20.0009 H   0  0  0  0  0  0
  -29.7874  -11.6112   17.5673 H   0  0  0  0  0  0
  -29.5980  -13.3357   17.6426 H   0  0  0  0  0  0
  -27.9124  -11.1998   18.9815 H   0  0  0  0  0  0
  -27.3549  -12.3676   17.8137 H   0  0  0  0  0  0
  -27.5438  -14.1275   19.3295 H   0  0  0  0  0  0
  -28.7545  -12.2496   21.4460 H   0  0  0  0  0  0
  -28.4063  -13.9304   21.7278 H   0  0  0  0  0  0
  -25.2777   -9.5625   22.4752 H   0  0  0  0  0  0
  -23.9985   -7.4594   22.7474 H   0  0  0  0  0  0
  -21.0822   -8.8817   19.8948 H   0  0  0  0  0  0
  -22.3738  -10.9687   19.6184 H   0  0  0  0  0  0
  -21.2054   -7.6151   23.9718 H   0  0  0  0  0  0
  -21.1385   -6.0515   25.9067 H   0  0  0  0  0  0
  -22.0633   -2.7611   23.2867 H   0  0  0  0  0  0
  -22.4140  -11.9868   22.4808 H   0  0  0  0  0  0
  -21.1056  -13.1154   22.2703 H   0  0  0  0  0  0
  -24.6316  -15.8233   20.4665 H   0  0  0  0  0  0
  -26.2478  -15.6081   20.0264 H   0  0  0  0  0  0
  -26.7196  -32.5417   23.1079 H   0  0  0  0  0  0
  -25.0091  -33.9659   25.0411 H   0  0  0  0  0  0
  -22.7209  -31.3016   21.3958 H   0  0  0  0  0  0
  -23.3754  -35.9615   23.3284 H   0  0  0  0  0  0
  -24.3582  -36.8934   22.2063 H   0  0  0  0  0  0
  -23.7228  -37.6481   23.6680 H   0  0  0  0  0  0
  -26.0977  -31.5431   20.6117 H   0  0  0  0  0  0
  -26.8438  -30.8245   22.0090 H   0  0  0  0  0  0
  -28.1104  -28.9447   21.2123 H   0  0  0  0  0  0
  -25.9658  -25.9200   18.9879 H   0  0  0  0  0  0
  -23.9697  -27.3003   19.0103 H   0  0  0  0  0  0
  -23.7650  -30.5888   19.4001 H   0  0  0  0  0  0
  -22.7586  -29.2452   19.8539 H   0  0  0  0  0  0
  -25.1284  -36.1923   25.0815 H   0  0  0  0  0  0
  -20.9964  -28.3288   24.1383 H   0  0  0  0  0  0
  -20.5652  -26.2318   23.3611 H   0  0  0  0  0  0
  -21.6654  -26.7428   22.1208 H   0  0  0  0  0  0
  -19.6921  -25.6286   21.1238 H   0  0  0  0  0  0
  -19.6694  -27.3180   20.6707 H   0  0  0  0  0  0
  -17.4199  -26.6673   21.4009 H   0  0  0  0  0  0
  -18.0326  -26.0051   22.8984 H   0  0  0  0  0  0
  -19.7965  -30.7222   24.2306 H   0  0  0  0  0  0
  -17.5055  -31.6273   24.5149 H   0  0  0  0  0  0
  -15.5374  -30.2997   23.7644 H   0  0  0  0  0  0
  -15.8679  -28.0793   22.7121 H   0  0  0  0  0  0
  -24.5911  -30.7096   25.7803 H   0  0  0  0  0  0
  -24.8979  -32.2903   26.4907 H   0  0  0  0  0  0
  -25.8091  -30.8899   27.0219 H   0  0  0  0  0  0
  -26.2940  -29.6732   24.1251 H   0  0  0  0  0  0
  -27.4074  -29.7282   25.4725 H   0  0  0  0  0  0
  -27.8816  -30.4265   23.9420 H   0  0  0  0  0  0
  -27.2654  -33.3638   26.2060 H   0  0  0  0  0  0
  -28.3894  -32.6903   25.0331 H   0  0  0  0  0  0
  -28.0730  -31.8469   26.5429 H   0  0  0  0  0  0
  -28.2579  -38.0123   24.7541 H   0  0  0  0  0  0
  -28.1105  -36.2647   24.6228 H   0  0  0  0  0  0
  -27.2303  -37.1384   25.8863 H   0  0  0  0  0  0
  -20.9383  -29.8803   21.6872 H   0  0  0  0  0  0
  -26.0170  -38.2835   24.1456 H   0  0  0  0  0  0
  -30.3433  -19.1103   18.1940 H   0  0  0  0  0  0
  -27.7033  -18.3380   19.7031 H   0  0  0  0  0  0
  -27.6536  -17.7954   21.3542 H   0  0  0  0  0  0
  -29.5431  -18.7717   21.8559 H   0  0  0  0  0  0
  -27.9409  -15.7435   20.5390 H   0  0  0  0  0  0
  -31.1926  -17.5561   19.6525 H   0  0  0  0  0  0
  -31.2437  -20.4788   16.3573 H   0  0  0  0  0  0
  -31.1051  -22.2354   16.3795 H   0  0  0  0  0  0
  -29.7102  -21.2418   15.9281 H   0  0  0  0  0  0
  -29.0901  -17.0847   17.9962 H   0  0  0  0  0  0
  -27.4962  -16.3742   18.1698 H   0  0  0  0  0  0
  -28.9185  -15.3519   18.0888 H   0  0  0  0  0  0
  -31.2486  -17.1249   22.6853 H   0  0  0  0  0  0
  -32.0579  -18.4685   21.8870 H   0  0  0  0  0  0
  -32.5659  -16.8257   21.5508 H   0  0  0  0  0  0
  -30.2522  -24.4052   20.3052 H   0  0  0  0  0  0
  -29.1719  -23.8977   21.5460 H   0  0  0  0  0  0
  -27.2231  -24.6328   20.2983 H   0  0  0  0  0  0
  -28.1248  -24.8553   18.8184 H   0  0  0  0  0  0
  1 25  1  0  0  0
  1 30  2  0  0  0
  1 86  1  0  0  0
  2  3  1  0  0  0
  2 25  1  0  0  0
  2 88  1  0  0  0
  2 89  1  0  0  0
  3  4  1  0  0  0
  3 90  1  0  0  0
  3 91  1  0  0  0
  4  5  1  0  0  0
  4 92  1  0  0  0
  4 93  1  0  0  0
  5  6  1  0  0  0
  5 26  1  0  0  0
  5 94  1  0  0  0
  6 25  1  0  0  0
  6 95  1  0  0  0
  6 96  1  0  0  0
  7  8  2  0  0  0
  7 26  1  0  0  0
  7 29  1  0  0  0
  8  9  1  0  0  0
  8 22  1  0  0  0
  9 10  1  0  0  0
  9 27  2  0  0  0
 10 11  2  0  0  0
 10 15  1  0  0  0
 11 12  1  0  0  0
 11 97  1  0  0  0
 12 13  2  0  0  0
 12 98  1  0  0  0
 13 14  1  0  0  0
 13 31  1  0  0  0
 14 15  2  0  0  0
 14 99  1  0  0  0
 15100  1  0  0  0
 16 17  2  0  0  0
 16 21  1  0  0  0
 16 31  1  0  0  0
 17 18  1  0  0  0
 17101  1  0  0  0
 18 19  2  0  0  0
 18102  1  0  0  0
 19 20  1  0  0  0
 19 24  1  0  0  0
 20 21  2  0  0  0
 20103  1  0  0  0
 21 23  1  0  0  0
 22 28  1  0  0  0
 22 32  2  0  0  0
 26 27  1  0  0  0
 28104  1  0  0  0
 28105  1  0  0  0
 29106  1  0  0  0
 29107  1  0  0  0
 33 34  1  0  0  0
 33 66  1  0  0  0
 33 70  2  0  0  0
 34 36  1  0  0  0
 34 59  1  0  0  0
 34108  1  0  0  0
 35 44  2  0  0  0
 35 45  1  0  0  0
 35 68  1  0  0  0
 36 56  1  0  0  0
 36109  1  0  0  0
 37 39  1  0  0  0
 37 47  1  0  0  0
 37 66  1  0  0  0
 37110  1  0  0  0
 38 43  2  0  0  0
 38 46  1  0  0  0
 38 47  1  0  0  0
 39 64  1  0  0  0
 39 67  2  0  0  0
 40 52  1  0  0  0
 40 53  2  0  0  0
 40 58  1  0  0  0
 41111  1  0  0  0
 41112  1  0  0  0
 41113  1  0  0  0
 41 48  1  0  0  0
 42 43  1  0  0  0
 42 66  1  0  0  0
 42114  1  0  0  0
 42115  1  0  0  0
 43 44  1  0  0  0
 44116  1  0  0  0
 45 46  2  0  0  0
 45117  1  0  0  0
 46118  1  0  0  0
 47119  1  0  0  0
 47120  1  0  0  0
 48 56  1  0  0  0
 48 65  1  0  0  0
 48121  1  0  0  0
 49 50  1  0  0  0
 49 53  1  0  0  0
 49 64  1  0  0  0
 49122  1  0  0  0
 50 51  1  0  0  0
 50123  1  0  0  0
 50124  1  0  0  0
 51 52  1  0  0  0
 51125  1  0  0  0
 51126  1  0  0  0
 52127  1  0  0  0
 52128  1  0  0  0
 53 54  1  0  0  0
 54 55  2  0  0  0
 54129  1  0  0  0
 55 57  1  0  0  0
 55130  1  0  0  0
 56 69  2  0  0  0
 57 58  2  0  0  0
 57131  1  0  0  0
 58132  1  0  0  0
 59 60  1  0  0  0
 59 61  1  0  0  0
 59 62  1  0  0  0
 60133  1  0  0  0
 60134  1  0  0  0
 60135  1  0  0  0
 61136  1  0  0  0
 61137  1  0  0  0
 61138  1  0  0  0
 62139  1  0  0  0
 62140  1  0  0  0
 62141  1  0  0  0
 63 65  1  0  0  0
 63142  1  0  0  0
 63143  1  0  0  0
 63144  1  0  0  0
 64145  1  0  0  0
 65146  1  0  0  0
 68 84  1  0  0  0
 71 72  2  0  0  0
 71 74  1  0  0  0
 71147  1  0  0  0
 72 73  1  0  0  0
 72 77  1  0  0  0
 73 75  2  0  0  0
 73 87  1  0  0  0
 74 80  1  0  0  0
 74 85  2  0  0  0
 75 83  1  0  0  0
 75 85  1  0  0  0
 76 77  1  0  0  0
 76 78  1  0  0  0
 76148  1  0  0  0
 76149  1  0  0  0
 77 79  1  0  0  0
 77150  1  0  0  0
 78 81  1  0  0  0
 78 86  1  0  0  0
 78151  1  0  0  0
 79 82  1  0  0  0
 79 86  1  0  0  0
 79152  1  0  0  0
 80153  1  0  0  0
 80154  1  0  0  0
 80155  1  0  0  0
 81156  1  0  0  0
 81157  1  0  0  0
 81158  1  0  0  0
 82159  1  0  0  0
 82160  1  0  0  0
 82161  1  0  0  0
 83 84  1  0  0  0
 83162  1  0  0  0
 83163  1  0  0  0
 84164  1  0  0  0
 84165  1  0  0  0
M  ISO  4   1 100  68 101  84 101  86 100
M  END
> <chiral flag>
0

> <version>
0

> <s_m_source_file>
/data/baiqing/PycharmProjects/Reinvent-master-3.2/result/LINK_invent/BTK/process_docking_weight1_custom_sum_contain_oxygen_bond_distance_aromatic_linkinvent_7_9_3/rearranged_h_0166.sdf

> <i_m_source_file_index>
9

> <r_mmod_Potential_Energy-OPLS-2005>
341.457946777344

> <r_mmod_Stretch_Energy-OPLS-2005>
111.746406555176

> <r_mmod_Bend_Energy-OPLS-2005>
188.612594604492

> <r_mmod_Torsional_Energy-OPLS-2005>
339.202819824219

> <r_mmod_Improper_Torsional_Energy-OPLS-2005>
6.16276407241821

> <r_mmod_Van_der_Waal_Energy-OPLS-2005>
146.605407714844

> <r_mmod_Electrostatic_Energy-OPLS-2005>
-347.193176269531

> <r_mmod_Solvation_Energy-OPLS-2005>
-198.65592956543

> <b_mmod_Minimization_Converged-OPLS-2005>
0

> <r_mmod_RMS_Derivative-OPLS-2005>
2.69480061531067

$$$$
9
                    3D
 Structure written by MMmdl.
170179  0  0  1  0            999 V2000
  -30.7132  -14.4565   20.5875 C   0  0  0  0  0  0
  -30.4187  -12.3049   19.4181 C   0  0  0  0  0  0
  -29.4902  -12.5057   18.2032 C   0  0  0  0  0  0
  -28.0117  -12.3684   18.6168 C   0  0  0  0  0  0
  -27.6607  -13.2075   19.8744 C   0  0  2  0  0  0
  -28.7014  -12.9872   20.9947 C   0  0  0  0  0  0
  -25.2582  -13.8167   20.5682 C   0  0  0  0  0  0
  -24.1835  -13.0443   20.9177 C   0  0  0  0  0  0
  -24.6391  -11.6906   20.8737 C   0  0  0  0  0  0
  -23.9062  -10.4292   21.0400 C   0  0  0  0  0  0
  -24.3613   -9.4210   21.9185 C   0  0  0  0  0  0
  -23.6289   -8.2244   22.0754 C   0  0  0  0  0  0
  -22.4274   -8.0279   21.3541 C   0  0  0  0  0  0
  -21.9908   -9.0253   20.4643 C   0  0  0  0  0  0
  -22.7235  -10.2134   20.3051 C   0  0  0  0  0  0
  -21.6852   -6.0734   22.5278 C   0  0  0  0  0  0
  -21.4016   -6.5638   23.8213 C   0  0  0  0  0  0
  -21.3661   -5.6789   24.9177 C   0  0  0  0  0  0
  -21.6040   -4.3050   24.7225 C   0  0  0  0  0  0
  -21.8823   -3.8146   23.4347 C   0  0  0  0  0  0
  -21.9195   -4.6962   22.3404 C   0  0  0  0  0  0
  -22.7859  -13.5237   21.1846 C   0  0  0  0  0  0
  -22.1663   -4.2147   21.0979 F   0  0  0  0  0  0
  -21.5629   -3.4536   25.7739 F   0  0  0  0  0  0
  -30.0332  -13.2878   20.4426 N   0  0  0  0  0  0
  -26.3017  -12.9335   20.3373 N   0  0  0  0  0  0
  -25.9319  -11.6493   20.5763 N   0  0  0  0  0  0
  -22.0505  -12.8221   22.0399 N   0  0  0  0  0  0
  -25.4313  -15.1886   20.4094 N   0  0  0  0  0  0
  -31.8282  -14.6480   20.0942 O   0  0  0  0  0  0
  -21.6638   -6.8878   21.4238 O   0  0  0  0  0  0
  -22.3546  -14.5546   20.6701 O   0  0  0  0  0  0
  -24.6125  -31.8708   23.2102 C   0  0  0  0  0  0
  -25.9032  -32.4840   23.8402 C   0  0  1  0  0  0
  -27.2343  -27.4469   20.0949 C   0  0  0  0  0  0
  -25.5906  -33.8634   24.2343 N   0  0  0  0  0  0
  -23.3997  -30.4898   21.5522 C   0  0  2  0  0  0
  -24.8474  -28.9539   20.1184 C   0  0  0  0  0  0
  -22.7411  -29.4645   22.5023 C   0  0  0  0  0  0
  -18.0270  -28.1352   22.8495 C   0  0  0  0  0  0
  -24.1488  -36.7307   23.2645 C   0  0  0  0  0  0
  -25.9248  -30.8369   21.3628 C   0  0  0  0  0  0
  -26.0058  -29.4689   20.7166 C   0  0  0  0  0  0
  -27.2037  -28.7195   20.7074 C   0  0  0  0  0  0
  -26.0651  -26.9384   19.4958 C   0  0  0  0  0  0
  -24.8699  -27.6849   19.5091 C   0  0  0  0  0  0
  -23.6080  -29.8196   20.1673 C   0  0  0  0  0  0
  -25.4110  -36.3117   24.0343 C   0  0  1  0  0  0
  -20.5853  -28.3637   23.1330 C   0  0  2  0  0  0
  -20.6762  -26.9380   22.5415 C   0  0  0  0  0  0
  -19.5745  -26.6372   21.5205 C   0  0  0  0  0  0
  -18.1917  -26.7900   22.1611 C   0  0  0  0  0  0
  -19.1519  -28.8817   23.2906 C   0  0  0  0  0  0
  -18.9455  -30.1423   23.8907 C   0  0  0  0  0  0
  -17.6463  -30.6574   24.0549 C   0  0  0  0  0  0
  -25.9036  -34.9485   23.5140 C   0  0  0  0  0  0
  -16.5349  -29.9070   23.6323 C   0  0  0  0  0  0
  -16.7263  -28.6477   23.0354 C   0  0  0  0  0  0
  -26.4464  -31.6599   25.0718 C   0  0  0  0  0  0
  -25.3732  -31.3679   26.1470 C   0  0  0  0  0  0
  -27.0305  -30.3062   24.6042 C   0  0  0  0  0  0
  -27.6049  -32.4305   25.7480 C   0  0  0  0  0  0
  -27.5575  -37.1808   24.8474 C   0  0  0  0  0  0
  -21.4145  -29.3012   22.3754 N   0  0  0  0  0  0
  -26.4298  -37.3793   23.9407 N   0  0  0  0  0  0
  -24.6636  -31.0798   22.1011 N   0  0  0  0  0  0
  -23.4192  -28.8203   23.3068 O   0  0  0  0  0  0
  -28.3916  -26.7085   20.0385 O   0  0  0  0  0  0
  -26.5598  -34.8936   22.4696 O   0  0  0  0  0  0
  -23.5323  -32.1476   23.7494 O   0  0  0  0  0  0
  -29.7276  -19.0549   22.2630 C   0  0  0  0  0  0
  -29.0171  -17.9592   24.7347 C   0  0  0  0  0  0
  -29.2187  -19.9125   23.2717 C   0  0  0  0  0  0
  -29.9108  -17.6620   22.4803 C   0  0  0  0  0  0
  -28.8383  -19.3377   24.5146 C   0  0  0  0  0  0
  -29.5744  -17.1219   23.7506 C   0  0  0  0  0  0
  -30.5108  -22.1311   22.8643 C   0  0  0  0  0  0
  -29.1660  -21.4406   23.0657 C   0  0  1  0  0  0
  -28.3757  -22.0492   21.8981 C   0  0  1  0  0  0
  -28.2723  -20.1659   25.6595 C   0  0  0  0  0  0
  -29.8313  -15.6721   24.1322 C   0  0  0  0  0  0
  -26.8583  -21.8651   22.0350 C   0  0  0  0  0  0
  -30.5558  -16.8204   21.3662 C   0  0  0  0  0  0
  -28.5010  -24.3515   20.8044 C   0  0  0  0  0  0
  -28.6228  -25.8552   21.1614 C   0  0  0  0  0  0
  -30.1798  -23.4805   22.3906 N   0  0  0  0  0  0
  -28.8212  -23.4598   21.9399 N   0  0  0  0  0  0
  -30.0501  -15.4509   21.2016 N   0  0  0  0  0  0
  -31.4627  -12.4019   19.1147 H   0  0  0  0  0  0
  -30.3183  -11.2936   19.8146 H   0  0  0  0  0  0
  -29.7270  -11.7802   17.4234 H   0  0  0  0  0  0
  -29.6598  -13.4913   17.7663 H   0  0  0  0  0  0
  -27.8187  -11.3126   18.8109 H   0  0  0  0  0  0
  -27.3615  -12.6471   17.7869 H   0  0  0  0  0  0
  -27.7060  -14.2558   19.5785 H   0  0  0  0  0  0
  -28.6757  -11.9532   21.3406 H   0  0  0  0  0  0
  -28.4603  -13.5903   21.8698 H   0  0  0  0  0  0
  -25.2761   -9.5688   22.4755 H   0  0  0  0  0  0
  -24.0003   -7.4638   22.7474 H   0  0  0  0  0  0
  -21.0844   -8.8770   19.8947 H   0  0  0  0  0  0
  -22.3699  -10.9668   19.6155 H   0  0  0  0  0  0
  -21.2008   -7.6146   23.9718 H   0  0  0  0  0  0
  -21.1476   -6.0518   25.9080 H   0  0  0  0  0  0
  -22.0600   -2.7605   23.2848 H   0  0  0  0  0  0
  -22.4118  -11.9877   22.4770 H   0  0  0  0  0  0
  -21.1123  -13.1241   22.2610 H   0  0  0  0  0  0
  -24.6679  -15.8461   20.5235 H   0  0  0  0  0  0
  -26.2889  -15.6280   20.0993 H   0  0  0  0  0  0
  -26.7108  -32.5576   23.1173 H   0  0  0  0  0  0
  -25.0071  -33.9789   25.0497 H   0  0  0  0  0  0
  -22.6868  -31.3049   21.4130 H   0  0  0  0  0  0
  -23.3758  -35.9634   23.3332 H   0  0  0  0  0  0
  -24.3576  -36.8896   22.2056 H   0  0  0  0  0  0
  -23.7227  -37.6509   23.6639 H   0  0  0  0  0  0
  -26.0300  -31.6011   20.5915 H   0  0  0  0  0  0
  -26.8143  -30.8951   21.9777 H   0  0  0  0  0  0
  -28.1018  -29.1137   21.1643 H   0  0  0  0  0  0
  -26.0816  -25.9702   19.0160 H   0  0  0  0  0  0
  -23.9788  -27.2836   19.0456 H   0  0  0  0  0  0
  -23.7115  -30.5935   19.4052 H   0  0  0  0  0  0
  -22.7332  -29.2361   19.8749 H   0  0  0  0  0  0
  -25.1272  -36.1995   25.0833 H   0  0  0  0  0  0
  -20.9918  -28.3189   24.1462 H   0  0  0  0  0  0
  -20.5671  -26.2244   23.3595 H   0  0  0  0  0  0
  -21.6638  -26.7442   22.1202 H   0  0  0  0  0  0
  -19.6924  -25.6291   21.1221 H   0  0  0  0  0  0
  -19.6685  -27.3202   20.6746 H   0  0  0  0  0  0
  -17.4191  -26.6665   21.4001 H   0  0  0  0  0  0
  -18.0307  -26.0023   22.8988 H   0  0  0  0  0  0
  -19.7944  -30.7209   24.2293 H   0  0  0  0  0  0
  -17.5035  -31.6260   24.5142 H   0  0  0  0  0  0
  -15.5355  -30.2978   23.7648 H   0  0  0  0  0  0
  -15.8655  -28.0799   22.7074 H   0  0  0  0  0  0
  -24.5926  -30.6999   25.7802 H   0  0  0  0  0  0
  -24.8895  -32.2821   26.4920 H   0  0  0  0  0  0
  -25.8098  -30.8857   27.0229 H   0  0  0  0  0  0
  -26.2834  -29.6812   24.1135 H   0  0  0  0  0  0
  -27.4160  -29.7291   25.4454 H   0  0  0  0  0  0
  -27.8620  -30.4419   23.9127 H   0  0  0  0  0  0
  -27.2683  -33.3610   26.2063 H   0  0  0  0  0  0
  -28.3846  -32.6852   25.0292 H   0  0  0  0  0  0
  -28.0718  -31.8422   26.5385 H   0  0  0  0  0  0
  -28.2606  -38.0098   24.7507 H   0  0  0  0  0  0
  -28.1057  -36.2620   24.6317 H   0  0  0  0  0  0
  -27.2290  -37.1475   25.8881 H   0  0  0  0  0  0
  -20.9318  -29.8732   21.6969 H   0  0  0  0  0  0
  -26.0203  -38.2877   24.1403 H   0  0  0  0  0  0
  -30.0236  -19.4851   21.3164 H   0  0  0  0  0  0
  -28.7556  -17.5392   25.6971 H   0  0  0  0  0  0
  -31.0950  -21.6252   22.0942 H   0  0  0  0  0  0
  -31.1111  -22.1710   23.7734 H   0  0  0  0  0  0
  -28.7447  -21.8957   23.9594 H   0  0  0  0  0  0
  -28.7135  -21.6051   20.9597 H   0  0  0  0  0  0
  -27.9891  -19.5426   26.5082 H   0  0  0  0  0  0
  -27.3793  -20.7057   25.3422 H   0  0  0  0  0  0
  -29.0110  -20.8863   26.0147 H   0  0  0  0  0  0
  -29.8111  -15.5364   25.2139 H   0  0  0  0  0  0
  -30.8124  -15.3412   23.7905 H   0  0  0  0  0  0
  -29.0667  -15.0213   23.7099 H   0  0  0  0  0  0
  -26.4832  -22.3128   22.9554 H   0  0  0  0  0  0
  -26.5970  -20.8067   22.0502 H   0  0  0  0  0  0
  -26.3239  -22.3201   21.2021 H   0  0  0  0  0  0
  -31.6281  -16.7923   21.5679 H   0  0  0  0  0  0
  -30.4413  -17.3336   20.4100 H   0  0  0  0  0  0
  -29.1502  -24.1049   19.9625 H   0  0  0  0  0  0
  -27.4789  -24.1584   20.4776 H   0  0  0  0  0  0
  -29.6295  -26.0695   21.5207 H   0  0  0  0  0  0
  -27.9509  -26.0912   21.9902 H   0  0  0  0  0  0
  -30.8032  -23.7562   21.6306 H   0  0  0  0  0  0
  -29.1228  -15.2545   21.5443 H   0  0  0  0  0  0
  1 25  1  0  0  0
  1 30  2  0  0  0
  1 88  1  0  0  0
  2  3  1  0  0  0
  2 25  1  0  0  0
  2 89  1  0  0  0
  2 90  1  0  0  0
  3  4  1  0  0  0
  3 91  1  0  0  0
  3 92  1  0  0  0
  4  5  1  0  0  0
  4 93  1  0  0  0
  4 94  1  0  0  0
  5  6  1  0  0  0
  5 26  1  0  0  0
  5 95  1  0  0  0
  6 25  1  0  0  0
  6 96  1  0  0  0
  6 97  1  0  0  0
  7  8  2  0  0  0
  7 26  1  0  0  0
  7 29  1  0  0  0
  8  9  1  0  0  0
  8 22  1  0  0  0
  9 10  1  0  0  0
  9 27  2  0  0  0
 10 11  2  0  0  0
 10 15  1  0  0  0
 11 12  1  0  0  0
 11 98  1  0  0  0
 12 13  2  0  0  0
 12 99  1  0  0  0
 13 14  1  0  0  0
 13 31  1  0  0  0
 14 15  2  0  0  0
 14100  1  0  0  0
 15101  1  0  0  0
 16 17  2  0  0  0
 16 21  1  0  0  0
 16 31  1  0  0  0
 17 18  1  0  0  0
 17102  1  0  0  0
 18 19  2  0  0  0
 18103  1  0  0  0
 19 20  1  0  0  0
 19 24  1  0  0  0
 20 21  2  0  0  0
 20104  1  0  0  0
 21 23  1  0  0  0
 22 28  1  0  0  0
 22 32  2  0  0  0
 26 27  1  0  0  0
 28105  1  0  0  0
 28106  1  0  0  0
 29107  1  0  0  0
 29108  1  0  0  0
 33 34  1  0  0  0
 33 66  1  0  0  0
 33 70  2  0  0  0
 34 36  1  0  0  0
 34 59  1  0  0  0
 34109  1  0  0  0
 35 44  2  0  0  0
 35 45  1  0  0  0
 35 68  1  0  0  0
 36 56  1  0  0  0
 36110  1  0  0  0
 37 39  1  0  0  0
 37 47  1  0  0  0
 37 66  1  0  0  0
 37111  1  0  0  0
 38 43  2  0  0  0
 38 46  1  0  0  0
 38 47  1  0  0  0
 39 64  1  0  0  0
 39 67  2  0  0  0
 40 52  1  0  0  0
 40 53  2  0  0  0
 40 58  1  0  0  0
 41112  1  0  0  0
 41113  1  0  0  0
 41114  1  0  0  0
 41 48  1  0  0  0
 42 43  1  0  0  0
 42 66  1  0  0  0
 42115  1  0  0  0
 42116  1  0  0  0
 43 44  1  0  0  0
 44117  1  0  0  0
 45 46  2  0  0  0
 45118  1  0  0  0
 46119  1  0  0  0
 47120  1  0  0  0
 47121  1  0  0  0
 48 56  1  0  0  0
 48 65  1  0  0  0
 48122  1  0  0  0
 49 50  1  0  0  0
 49 53  1  0  0  0
 49 64  1  0  0  0
 49123  1  0  0  0
 50 51  1  0  0  0
 50124  1  0  0  0
 50125  1  0  0  0
 51 52  1  0  0  0
 51126  1  0  0  0
 51127  1  0  0  0
 52128  1  0  0  0
 52129  1  0  0  0
 53 54  1  0  0  0
 54 55  2  0  0  0
 54130  1  0  0  0
 55 57  1  0  0  0
 55131  1  0  0  0
 56 69  2  0  0  0
 57 58  2  0  0  0
 57132  1  0  0  0
 58133  1  0  0  0
 59 60  1  0  0  0
 59 61  1  0  0  0
 59 62  1  0  0  0
 60134  1  0  0  0
 60135  1  0  0  0
 60136  1  0  0  0
 61137  1  0  0  0
 61138  1  0  0  0
 61139  1  0  0  0
 62140  1  0  0  0
 62141  1  0  0  0
 62142  1  0  0  0
 63 65  1  0  0  0
 63143  1  0  0  0
 63144  1  0  0  0
 63145  1  0  0  0
 64146  1  0  0  0
 65147  1  0  0  0
 68 85  1  0  0  0
 71 73  2  0  0  0
 71 74  1  0  0  0
 71148  1  0  0  0
 72 75  2  0  0  0
 72 76  1  0  0  0
 72149  1  0  0  0
 73 75  1  0  0  0
 73 78  1  0  0  0
 74 76  2  0  0  0
 74 83  1  0  0  0
 75 80  1  0  0  0
 76 81  1  0  0  0
 77 78  1  0  0  0
 77 86  1  0  0  0
 77150  1  0  0  0
 77151  1  0  0  0
 78 79  1  0  0  0
 78152  1  0  0  0
 79 82  1  0  0  0
 79 87  1  0  0  0
 79153  1  0  0  0
 80154  1  0  0  0
 80155  1  0  0  0
 80156  1  0  0  0
 81157  1  0  0  0
 81158  1  0  0  0
 81159  1  0  0  0
 82160  1  0  0  0
 82161  1  0  0  0
 82162  1  0  0  0
 83 88  1  0  0  0
 83163  1  0  0  0
 83164  1  0  0  0
 84 85  1  0  0  0
 84 87  1  0  0  0
 84165  1  0  0  0
 84166  1  0  0  0
 85167  1  0  0  0
 85168  1  0  0  0
 86 87  1  0  0  0
 86169  1  0  0  0
 88170  1  0  0  0
M  ISO  4   1 100  68 101  85 101  88 100
M  END
> <chiral flag>
0

> <version>
0

> <s_m_source_file>
/data/baiqing/PycharmProjects/Reinvent-master-3.2/result/LINK_invent/BTK/process_docking_weight1_custom_sum_contain_oxygen_bond_distance_aromatic_linkinvent_7_9_3/rearranged_h_0166.sdf

> <i_m_source_file_index>
10

> <r_mmod_Potential_Energy-OPLS-2005>
16.2426662445068

> <r_mmod_Stretch_Energy-OPLS-2005>
38.8370971679688

> <r_mmod_Bend_Energy-OPLS-2005>
143.506729125977

> <r_mmod_Torsional_Energy-OPLS-2005>
273.800262451172

> <r_mmod_Improper_Torsional_Energy-OPLS-2005>
3.18883633613586

> <r_mmod_Van_der_Waal_Energy-OPLS-2005>
149.685455322266

> <r_mmod_Electrostatic_Energy-OPLS-2005>
-401.615814208984

> <r_mmod_Solvation_Energy-OPLS-2005>
-201.25569152832

> <b_mmod_Minimization_Converged-OPLS-2005>
0

> <r_mmod_RMS_Derivative-OPLS-2005>
1.47754073143005

$$$$
10
                    3D
 Structure written by MMmdl.
182192  0  0  1  0            999 V2000
  -30.6857  -14.5813   20.6412 C   0  0  0  0  0  0
  -30.4348  -12.3908   19.4623 C   0  0  0  0  0  0
  -29.5155  -12.5317   18.2288 C   0  0  0  0  0  0
  -28.0365  -12.3580   18.6230 C   0  0  0  0  0  0
  -27.6546  -13.2135   19.8569 C   0  0  2  0  0  0
  -28.6805  -13.0318   20.9901 C   0  0  0  0  0  0
  -25.2554  -13.8158   20.5640 C   0  0  0  0  0  0
  -24.1818  -13.0434   20.9167 C   0  0  0  0  0  0
  -24.6378  -11.6906   20.8704 C   0  0  0  0  0  0
  -23.9054  -10.4293   21.0396 C   0  0  0  0  0  0
  -24.3615   -9.4211   21.9177 C   0  0  0  0  0  0
  -23.6286   -8.2250   22.0752 C   0  0  0  0  0  0
  -22.4266   -8.0284   21.3554 C   0  0  0  0  0  0
  -21.9896   -9.0256   20.4653 C   0  0  0  0  0  0
  -22.7225  -10.2133   20.3050 C   0  0  0  0  0  0
  -21.6847   -6.0732   22.5287 C   0  0  0  0  0  0
  -21.4019   -6.5637   23.8223 C   0  0  0  0  0  0
  -21.3659   -5.6789   24.9181 C   0  0  0  0  0  0
  -21.6038   -4.3053   24.7227 C   0  0  0  0  0  0
  -21.8821   -3.8144   23.4350 C   0  0  0  0  0  0
  -21.9192   -4.6961   22.3412 C   0  0  0  0  0  0
  -22.7843  -13.5238   21.1851 C   0  0  0  0  0  0
  -22.1657   -4.2156   21.0988 F   0  0  0  0  0  0
  -21.5625   -3.4535   25.7739 F   0  0  0  0  0  0
  -30.0181  -13.3869   20.4762 N   0  0  0  0  0  0
  -26.2966  -12.9340   20.3201 N   0  0  0  0  0  0
  -25.9294  -11.6499   20.5650 N   0  0  0  0  0  0
  -22.0474  -12.8248   22.0421 N   0  0  0  0  0  0
  -25.4280  -15.1879   20.4113 N   0  0  0  0  0  0
  -31.7505  -14.7903   20.0496 O   0  0  0  0  0  0
  -21.6628   -6.8880   21.4249 O   0  0  0  0  0  0
  -22.3537  -14.5549   20.6704 O   0  0  0  0  0  0
  -24.6224  -31.8611   23.2030 C   0  0  0  0  0  0
  -25.9088  -32.4783   23.8348 C   0  0  1  0  0  0
  -27.2378  -27.3440   20.1160 C   0  0  0  0  0  0
  -25.5915  -33.8587   24.2279 N   0  0  0  0  0  0
  -23.4146  -30.4831   21.5444 C   0  0  2  0  0  0
  -24.8627  -28.9354   20.1146 C   0  0  0  0  0  0
  -22.7448  -29.4630   22.4947 C   0  0  0  0  0  0
  -18.0281  -28.1385   22.8485 C   0  0  0  0  0  0
  -24.1490  -36.7296   23.2638 C   0  0  0  0  0  0
  -25.9514  -30.8012   21.3678 C   0  0  0  0  0  0
  -26.0273  -29.4282   20.7142 C   0  0  0  0  0  0
  -27.2128  -28.6426   20.7052 C   0  0  0  0  0  0
  -26.0437  -26.8862   19.5105 C   0  0  0  0  0  0
  -24.8714  -27.6688   19.5077 C   0  0  0  0  0  0
  -23.6285  -29.8123   20.1609 C   0  0  0  0  0  0
  -25.4114  -36.3088   24.0328 C   0  0  1  0  0  0
  -20.5877  -28.3689   23.1297 C   0  0  2  0  0  0
  -20.6770  -26.9415   22.5418 C   0  0  0  0  0  0
  -19.5749  -26.6389   21.5212 C   0  0  0  0  0  0
  -18.1926  -26.7930   22.1619 C   0  0  0  0  0  0
  -19.1531  -28.8852   23.2888 C   0  0  0  0  0  0
  -18.9456  -30.1455   23.8902 C   0  0  0  0  0  0
  -17.6459  -30.6593   24.0566 C   0  0  0  0  0  0
  -25.9044  -34.9455   23.5102 C   0  0  0  0  0  0
  -16.5351  -29.9093   23.6331 C   0  0  0  0  0  0
  -16.7269  -28.6513   23.0348 C   0  0  0  0  0  0
  -26.4490  -31.6588   25.0708 C   0  0  0  0  0  0
  -25.3736  -31.3727   26.1446 C   0  0  0  0  0  0
  -27.0325  -30.3013   24.6142 C   0  0  0  0  0  0
  -27.6051  -32.4322   25.7481 C   0  0  0  0  0  0
  -27.5579  -37.1804   24.8463 C   0  0  0  0  0  0
  -21.4168  -29.3045   22.3688 N   0  0  0  0  0  0
  -26.4292  -37.3781   23.9406 N   0  0  0  0  0  0
  -24.6814  -31.0646   22.0963 N   0  0  0  0  0  0
  -23.4184  -28.8172   23.3020 O   0  0  0  0  0  0
  -28.4080  -26.5772   20.1625 O   0  0  0  0  0  0
  -26.5610  -34.8922   22.4668 O   0  0  0  0  0  0
  -23.5399  -32.1398   23.7377 O   0  0  0  0  0  0
  -31.9936  -18.3840   23.9295 C   0  0  0  0  0  0
  -31.1861  -17.5720   23.1148 C   0  0  0  0  0  0
  -30.6434  -18.0840   21.9014 C   0  0  0  0  0  0
  -32.3369  -19.6883   23.5547 C   0  0  0  0  0  0
  -30.8145  -19.5017   21.6110 C   0  0  0  0  0  0
  -31.8193  -20.2099   22.3451 C   0  0  0  0  0  0
  -29.9837  -17.0451   20.9393 C   0  0  0  0  0  0
  -29.9017  -24.8329   19.2763 C   0  0  0  0  0  0
  -29.8382  -15.4361   22.7733 C   0  0  0  0  0  0
  -29.9647  -23.2878   19.2425 C   0  0  0  0  0  0
  -28.2543  -24.0069   20.7226 C   0  0  0  0  0  0
  -30.9326  -16.1358   23.5821 C   0  0  2  0  0  0
  -28.4759  -25.1780   19.7068 C   0  0  1  0  0  0
  -32.4404  -21.4971   21.7967 C   0  0  0  0  0  0
  -30.5764  -16.0306   25.0808 C   0  0  0  0  0  0
  -34.6944  -19.9578   24.4535 C   0  0  0  0  0  0
  -32.7097  -20.5639   25.9190 C   0  0  0  0  0  0
  -29.9938  -20.3324   20.5606 C   0  0  0  0  0  0
  -29.3317  -21.6856   21.1231 C   0  0  0  0  0  0
  -33.2567  -20.4951   24.4821 C   0  0  0  0  0  0
  -30.0549  -15.5893   21.3350 N   0  0  0  0  0  0
  -28.9052  -22.7689   20.1452 N   0  3  2  0  0  0
  -31.4790  -12.5097   19.1682 H   0  0  0  0  0  0
  -30.3649  -11.3841   19.8781 H   0  0  0  0  0  0
  -29.7893  -11.8004   17.4671 H   0  0  0  0  0  0
  -29.6607  -13.5143   17.7759 H   0  0  0  0  0  0
  -27.8718  -11.3024   18.8404 H   0  0  0  0  0  0
  -27.3894  -12.6007   17.7792 H   0  0  0  0  0  0
  -27.6889  -14.2570   19.5428 H   0  0  0  0  0  0
  -28.6835  -12.0005   21.3464 H   0  0  0  0  0  0
  -28.3412  -13.6246   21.8330 H   0  0  0  0  0  0
  -25.2765   -9.5686   22.4746 H   0  0  0  0  0  0
  -24.0004   -7.4633   22.7463 H   0  0  0  0  0  0
  -21.0829   -8.8769   19.8957 H   0  0  0  0  0  0
  -22.3682  -10.9672   19.6150 H   0  0  0  0  0  0
  -21.2018   -7.6145   23.9729 H   0  0  0  0  0  0
  -21.1474   -6.0516   25.9086 H   0  0  0  0  0  0
  -22.0597   -2.7611   23.2840 H   0  0  0  0  0  0
  -22.4060  -11.9910   22.4837 H   0  0  0  0  0  0
  -21.1097  -13.1304   22.2613 H   0  0  0  0  0  0
  -24.6654  -15.8453   20.5295 H   0  0  0  0  0  0
  -26.2882  -15.6297   20.1129 H   0  0  0  0  0  0
  -26.7154  -32.5464   23.1099 H   0  0  0  0  0  0
  -25.0075  -33.9736   25.0432 H   0  0  0  0  0  0
  -22.7072  -31.3025   21.3995 H   0  0  0  0  0  0
  -23.3750  -35.9629   23.3302 H   0  0  0  0  0  0
  -24.3584  -36.8917   22.2053 H   0  0  0  0  0  0
  -23.7245  -37.6500   23.6659 H   0  0  0  0  0  0
  -26.0749  -31.5651   20.5985 H   0  0  0  0  0  0
  -26.8349  -30.8539   21.9935 H   0  0  0  0  0  0
  -28.1098  -29.0221   21.1742 H   0  0  0  0  0  0
  -25.9754  -25.9161   19.0441 H   0  0  0  0  0  0
  -23.9741  -27.2815   19.0449 H   0  0  0  0  0  0
  -23.7459  -30.5856   19.4010 H   0  0  0  0  0  0
  -22.7498  -29.2379   19.8606 H   0  0  0  0  0  0
  -25.1295  -36.1939   25.0819 H   0  0  0  0  0  0
  -20.9968  -28.3266   24.1420 H   0  0  0  0  0  0
  -20.5680  -26.2293   23.3614 H   0  0  0  0  0  0
  -21.6641  -26.7458   22.1210 H   0  0  0  0  0  0
  -19.6914  -25.6300   21.1243 H   0  0  0  0  0  0
  -19.6691  -27.3202   20.6744 H   0  0  0  0  0  0
  -17.4199  -26.6687   21.4016 H   0  0  0  0  0  0
  -18.0322  -26.0073   22.9018 H   0  0  0  0  0  0
  -19.7932  -30.7266   24.2273 H   0  0  0  0  0  0
  -17.5018  -31.6272   24.5169 H   0  0  0  0  0  0
  -15.5351  -30.2999   23.7656 H   0  0  0  0  0  0
  -15.8667  -28.0838   22.7057 H   0  0  0  0  0  0
  -24.5908  -30.7071   25.7792 H   0  0  0  0  0  0
  -24.8927  -32.2893   26.4870 H   0  0  0  0  0  0
  -25.8075  -30.8917   27.0220 H   0  0  0  0  0  0
  -26.2883  -29.6768   24.1181 H   0  0  0  0  0  0
  -27.4048  -29.7268   25.4636 H   0  0  0  0  0  0
  -27.8744  -30.4306   23.9335 H   0  0  0  0  0  0
  -27.2656  -33.3624   26.2054 H   0  0  0  0  0  0
  -28.3863  -32.6880   25.0310 H   0  0  0  0  0  0
  -28.0710  -31.8446   26.5403 H   0  0  0  0  0  0
  -28.2599  -38.0100   24.7508 H   0  0  0  0  0  0
  -28.1071  -36.2629   24.6285 H   0  0  0  0  0  0
  -27.2296  -37.1456   25.8867 H   0  0  0  0  0  0
  -20.9332  -29.8760   21.6901 H   0  0  0  0  0  0
  -26.0171  -38.2856   24.1408 H   0  0  0  0  0  0
  -32.4175  -17.9813   24.8362 H   0  0  0  0  0  0
  -30.4303  -17.1716   19.9512 H   0  0  0  0  0  0
  -28.9307  -17.3051   20.8291 H   0  0  0  0  0  0
  -30.1727  -25.2824   18.3209 H   0  0  0  0  0  0
  -30.6050  -25.2053   20.0228 H   0  0  0  0  0  0
  -28.8579  -15.8449   23.0236 H   0  0  0  0  0  0
  -29.8359  -14.3898   23.0826 H   0  0  0  0  0  0
  -30.9603  -22.9422   19.5132 H   0  0  0  0  0  0
  -29.7607  -22.9221   18.2354 H   0  0  0  0  0  0
  -27.1993  -23.8461   20.9429 H   0  0  0  0  0  0
  -28.7430  -24.2624   21.6645 H   0  0  0  0  0  0
  -31.8680  -15.5949   23.4263 H   0  0  0  0  0  0
  -27.8496  -25.0208   18.8299 H   0  0  0  0  0  0
  -33.5223  -21.4740   21.9309 H   0  0  0  0  0  0
  -32.0710  -22.3875   22.3036 H   0  0  0  0  0  0
  -32.3057  -21.6029   20.7240 H   0  0  0  0  0  0
  -29.7030  -16.6363   25.3234 H   0  0  0  0  0  0
  -31.3893  -16.3389   25.7365 H   0  0  0  0  0  0
  -30.3420  -15.0019   25.3557 H   0  0  0  0  0  0
  -35.0930  -19.9580   23.4384 H   0  0  0  0  0  0
  -34.7497  -18.9372   24.8316 H   0  0  0  0  0  0
  -35.3535  -20.5749   25.0661 H   0  0  0  0  0  0
  -31.6962  -20.9676   25.9319 H   0  0  0  0  0  0
  -33.3259  -21.2165   26.5391 H   0  0  0  0  0  0
  -32.6859  -19.5891   26.4041 H   0  0  0  0  0  0
  -29.1983  -19.7039   20.1588 H   0  0  0  0  0  0
  -30.6430  -20.5395   19.7101 H   0  0  0  0  0  0
  -29.9803  -22.1714   21.8434 H   0  0  0  0  0  0
  -28.4588  -21.4040   21.7126 H   0  0  0  0  0  0
  -33.2949  -21.5335   24.1576 H   0  0  0  0  0  0
  -28.2174  -22.3456   19.5372 H   0  0  0  0  0  0
  1 25  1  0  0  0
  1 30  2  0  0  0
  1 91  1  0  0  0
  2  3  1  0  0  0
  2 25  1  0  0  0
  2 93  1  0  0  0
  2 94  1  0  0  0
  3  4  1  0  0  0
  3 95  1  0  0  0
  3 96  1  0  0  0
  4  5  1  0  0  0
  4 97  1  0  0  0
  4 98  1  0  0  0
  5  6  1  0  0  0
  5 26  1  0  0  0
  5 99  1  0  0  0
  6 25  1  0  0  0
  6100  1  0  0  0
  6101  1  0  0  0
  7  8  2  0  0  0
  7 26  1  0  0  0
  7 29  1  0  0  0
  8  9  1  0  0  0
  8 22  1  0  0  0
  9 10  1  0  0  0
  9 27  2  0  0  0
 10 11  2  0  0  0
 10 15  1  0  0  0
 11 12  1  0  0  0
 11102  1  0  0  0
 12 13  2  0  0  0
 12103  1  0  0  0
 13 14  1  0  0  0
 13 31  1  0  0  0
 14 15  2  0  0  0
 14104  1  0  0  0
 15105  1  0  0  0
 16 17  2  0  0  0
 16 21  1  0  0  0
 16 31  1  0  0  0
 17 18  1  0  0  0
 17106  1  0  0  0
 18 19  2  0  0  0
 18107  1  0  0  0
 19 20  1  0  0  0
 19 24  1  0  0  0
 20 21  2  0  0  0
 20108  1  0  0  0
 21 23  1  0  0  0
 22 28  1  0  0  0
 22 32  2  0  0  0
 26 27  1  0  0  0
 28109  1  0  0  0
 28110  1  0  0  0
 29111  1  0  0  0
 29112  1  0  0  0
 33 34  1  0  0  0
 33 66  1  0  0  0
 33 70  2  0  0  0
 34 36  1  0  0  0
 34 59  1  0  0  0
 34113  1  0  0  0
 35 44  2  0  0  0
 35 45  1  0  0  0
 35 68  1  0  0  0
 36 56  1  0  0  0
 36114  1  0  0  0
 37 39  1  0  0  0
 37 47  1  0  0  0
 37 66  1  0  0  0
 37115  1  0  0  0
 38 43  2  0  0  0
 38 46  1  0  0  0
 38 47  1  0  0  0
 39 64  1  0  0  0
 39 67  2  0  0  0
 40 52  1  0  0  0
 40 53  2  0  0  0
 40 58  1  0  0  0
 41116  1  0  0  0
 41117  1  0  0  0
 41118  1  0  0  0
 41 48  1  0  0  0
 42 43  1  0  0  0
 42 66  1  0  0  0
 42119  1  0  0  0
 42120  1  0  0  0
 43 44  1  0  0  0
 44121  1  0  0  0
 45 46  2  0  0  0
 45122  1  0  0  0
 46123  1  0  0  0
 47124  1  0  0  0
 47125  1  0  0  0
 48 56  1  0  0  0
 48 65  1  0  0  0
 48126  1  0  0  0
 49 50  1  0  0  0
 49 53  1  0  0  0
 49 64  1  0  0  0
 49127  1  0  0  0
 50 51  1  0  0  0
 50128  1  0  0  0
 50129  1  0  0  0
 51 52  1  0  0  0
 51130  1  0  0  0
 51131  1  0  0  0
 52132  1  0  0  0
 52133  1  0  0  0
 53 54  1  0  0  0
 54 55  2  0  0  0
 54134  1  0  0  0
 55 57  1  0  0  0
 55135  1  0  0  0
 56 69  2  0  0  0
 57 58  2  0  0  0
 57136  1  0  0  0
 58137  1  0  0  0
 59 60  1  0  0  0
 59 61  1  0  0  0
 59 62  1  0  0  0
 60138  1  0  0  0
 60139  1  0  0  0
 60140  1  0  0  0
 61141  1  0  0  0
 61142  1  0  0  0
 61143  1  0  0  0
 62144  1  0  0  0
 62145  1  0  0  0
 62146  1  0  0  0
 63 65  1  0  0  0
 63147  1  0  0  0
 63148  1  0  0  0
 63149  1  0  0  0
 64150  1  0  0  0
 65151  1  0  0  0
 68 83  1  0  0  0
 71 72  2  0  0  0
 71 74  1  0  0  0
 71152  1  0  0  0
 72 73  1  0  0  0
 72 82  1  0  0  0
 73 75  2  0  0  0
 73 77  1  0  0  0
 74 76  2  0  0  0
 74 90  1  0  0  0
 75 76  1  0  0  0
 75 88  1  0  0  0
 76 84  1  0  0  0
 77 91  1  0  0  0
 77153  1  0  0  0
 77154  1  0  0  0
 78 80  1  0  0  0
 78 83  1  0  0  0
 78155  1  0  0  0
 78156  1  0  0  0
 79 82  1  0  0  0
 79 91  1  0  0  0
 79157  1  0  0  0
 79158  1  0  0  0
 80 92  1  0  0  0
 80159  1  0  0  0
 80160  1  0  0  0
 81 83  1  0  0  0
 81 92  1  0  0  0
 81161  1  0  0  0
 81162  1  0  0  0
 82 85  1  0  0  0
 82163  1  0  0  0
 83164  1  0  0  0
 84165  1  0  0  0
 84166  1  0  0  0
 84167  1  0  0  0
 85168  1  0  0  0
 85169  1  0  0  0
 85170  1  0  0  0
 86171  1  0  0  0
 86172  1  0  0  0
 86173  1  0  0  0
 86 90  1  0  0  0
 87 90  1  0  0  0
 87174  1  0  0  0
 87175  1  0  0  0
 87176  1  0  0  0
 88 89  1  0  0  0
 88177  1  0  0  0
 88178  1  0  0  0
 89179  1  0  0  0
 89180  1  0  0  0
 89 92  1  0  0  0
 90181  1  0  0  0
 92182  1  0  0  0
M  CHG  1  92   1
M  ISO  4   1 100  68 101  83 101  91 100
M  END
> <chiral flag>
0

> <version>
0

> <s_m_source_file>
/data/baiqing/PycharmProjects/Reinvent-master-3.2/result/LINK_invent/BTK/process_docking_weight1_custom_sum_contain_oxygen_bond_distance_aromatic_linkinvent_7_9_3/rearranged_h_0166.sdf

> <i_m_source_file_index>
11

> <r_mmod_Potential_Energy-OPLS-2005>
144.846817016602

> <r_mmod_Stretch_Energy-OPLS-2005>
88.9611892700195

> <r_mmod_Bend_Energy-OPLS-2005>
181.630996704102

> <r_mmod_Torsional_Energy-OPLS-2005>
366.128875732422

> <r_mmod_Improper_Torsional_Energy-OPLS-2005>
5.36525249481201

> <r_mmod_Van_der_Waal_Energy-OPLS-2005>
163.195022583008

> <r_mmod_Electrostatic_Energy-OPLS-2005>
-272.178894042969

> <r_mmod_Solvation_Energy-OPLS-2005>
-420.210998535156

> <b_mmod_Minimization_Converged-OPLS-2005>
0

> <r_mmod_RMS_Derivative-OPLS-2005>
1.79517424106598

$$$$
11
                    3D
 Structure written by MMmdl.
177186  0  0  1  0            999 V2000
  -30.6348  -14.4159   20.5822 C   0  0  0  0  0  0
  -30.4365  -12.2756   19.3957 C   0  0  0  0  0  0
  -29.4956  -12.5396   18.1991 C   0  0  0  0  0  0
  -28.0193  -12.3573   18.6175 C   0  0  0  0  0  0
  -27.6667  -13.1759   19.8906 C   0  0  2  0  0  0
  -28.7014  -12.8693   20.9975 C   0  0  0  0  0  0
  -25.2609  -13.8128   20.5588 C   0  0  0  0  0  0
  -24.1838  -13.0391   20.9091 C   0  0  0  0  0  0
  -24.6330  -11.6842   20.8684 C   0  0  0  0  0  0
  -23.9019  -10.4243   21.0394 C   0  0  0  0  0  0
  -24.3595   -9.4191   21.9176 C   0  0  0  0  0  0
  -23.6293   -8.2224   22.0748 C   0  0  0  0  0  0
  -22.4291   -8.0250   21.3525 C   0  0  0  0  0  0
  -21.9895   -9.0213   20.4624 C   0  0  0  0  0  0
  -22.7219  -10.2091   20.3035 C   0  0  0  0  0  0
  -21.6864   -6.0722   22.5264 C   0  0  0  0  0  0
  -21.4033   -6.5627   23.8195 C   0  0  0  0  0  0
  -21.3661   -5.6791   24.9153 C   0  0  0  0  0  0
  -21.6037   -4.3041   24.7219 C   0  0  0  0  0  0
  -21.8847   -3.8134   23.4342 C   0  0  0  0  0  0
  -21.9204   -4.6948   22.3399 C   0  0  0  0  0  0
  -22.7884  -13.5214   21.1832 C   0  0  0  0  0  0
  -22.1663   -4.2128   21.0968 F   0  0  0  0  0  0
  -21.5625   -3.4519   25.7725 F   0  0  0  0  0  0
  -30.0397  -13.2013   20.4692 N   0  0  0  0  0  0
  -26.3019  -12.9192   20.3372 N   0  0  0  0  0  0
  -25.9252  -11.6365   20.5668 N   0  0  0  0  0  0
  -22.0568  -12.8192   22.0396 N   0  0  0  0  0  0
  -25.4339  -15.1834   20.4002 N   0  0  0  0  0  0
  -31.7469  -14.6879   20.1219 O   0  0  0  0  0  0
  -21.6660   -6.8859   21.4231 O   0  0  0  0  0  0
  -22.3567  -14.5548   20.6738 O   0  0  0  0  0  0
  -24.6183  -31.8709   23.2126 C   0  0  0  0  0  0
  -25.9062  -32.4811   23.8396 C   0  0  1  0  0  0
  -27.2303  -27.4531   20.0651 C   0  0  0  0  0  0
  -25.5908  -33.8606   24.2339 N   0  0  0  0  0  0
  -23.4034  -30.5034   21.5554 C   0  0  2  0  0  0
  -24.8417  -28.9663   20.1267 C   0  0  0  0  0  0
  -22.7399  -29.4759   22.5033 C   0  0  0  0  0  0
  -18.0257  -28.1352   22.8461 C   0  0  0  0  0  0
  -24.1491  -36.7328   23.2633 C   0  0  0  0  0  0
  -25.9340  -30.8457   21.3604 C   0  0  0  0  0  0
  -26.0086  -29.4815   20.7047 C   0  0  0  0  0  0
  -27.2114  -28.7358   20.6621 C   0  0  0  0  0  0
  -26.0336  -26.9480   19.5144 C   0  0  0  0  0  0
  -24.8475  -27.6949   19.5350 C   0  0  0  0  0  0
  -23.6081  -29.8339   20.1717 C   0  0  0  0  0  0
  -25.4106  -36.3106   24.0336 C   0  0  1  0  0  0
  -20.5819  -28.3740   23.1173 C   0  0  2  0  0  0
  -20.6832  -26.9465   22.5257 C   0  0  0  0  0  0
  -19.5671  -26.6052   21.5289 C   0  0  0  0  0  0
  -18.1877  -26.7828   22.1758 C   0  0  0  0  0  0
  -19.1491  -28.8860   23.2819 C   0  0  0  0  0  0
  -18.9403  -30.1504   23.8780 C   0  0  0  0  0  0
  -17.6421  -30.6577   24.0479 C   0  0  0  0  0  0
  -25.9036  -34.9461   23.5121 C   0  0  0  0  0  0
  -16.5322  -29.9066   23.6282 C   0  0  0  0  0  0
  -16.7241  -28.6504   23.0284 C   0  0  0  0  0  0
  -26.4478  -31.6576   25.0720 C   0  0  0  0  0  0
  -25.3734  -31.3674   26.1459 C   0  0  0  0  0  0
  -27.0307  -30.3022   24.6078 C   0  0  0  0  0  0
  -27.6046  -32.4294   25.7489 C   0  0  0  0  0  0
  -27.5583  -37.1819   24.8470 C   0  0  0  0  0  0
  -21.4125  -29.3234   22.3738 N   0  0  0  0  0  0
  -26.4305  -37.3789   23.9391 N   0  0  0  0  0  0
  -24.6701  -31.0841   22.1019 N   0  0  0  0  0  0
  -23.4131  -28.8190   23.3009 O   0  0  0  0  0  0
  -28.4025  -26.7323   19.9950 O   0  0  0  0  0  0
  -26.5610  -34.8933   22.4689 O   0  0  0  0  0  0
  -23.5373  -32.1456   23.7515 O   0  0  0  0  0  0
  -26.9997  -19.2040   21.9680 C   0  0  0  0  0  0
  -26.1289  -20.2389   21.5478 C   0  0  0  0  0  0
  -28.1608  -18.8720   21.2090 C   0  0  0  0  0  0
  -26.4791  -21.0590   20.4392 C   0  0  0  0  0  0
  -28.5492  -19.7423   20.1388 C   0  0  0  0  0  0
  -27.7535  -20.8892   19.8118 C   0  0  0  0  0  0
  -27.7976  -22.5060   17.8198 C   0  0  0  0  0  0
  -29.0036  -22.9411   19.8239 C   0  0  0  0  0  0
  -27.5948  -23.9999   18.1496 C   0  0  1  0  0  0
  -28.6873  -24.3197   19.1974 C   0  0  1  0  0  0
  -26.6765  -18.4437   23.2662 C   0  0  0  0  0  0
  -24.8153  -20.4370   22.3222 C   0  0  0  0  0  0
  -25.4927  -22.1375   19.9921 C   0  0  0  0  0  0
  -29.8375  -19.4769   19.3555 C   0  0  0  0  0  0
  -27.5983  -24.8967   16.8974 C   0  0  0  0  0  0
  -28.9655  -17.6178   21.6501 C   0  0  0  0  0  0
  -28.3306  -25.3342   20.3261 C   0  0  0  0  0  0
  -29.7487  -16.7595   20.6301 C   0  0  0  0  0  0
  -28.3562  -21.9040   19.0242 N   0  0  0  0  0  0
  -29.7921  -15.3588   21.0400 N   0  0  0  0  0  0
  -31.4757  -12.4058   19.0921 H   0  0  0  0  0  0
  -30.3509  -11.2362   19.7190 H   0  0  0  0  0  0
  -29.7369  -11.8738   17.3712 H   0  0  0  0  0  0
  -29.6438  -13.5572   17.8253 H   0  0  0  0  0  0
  -27.8483  -11.2956   18.7999 H   0  0  0  0  0  0
  -27.3539  -12.6272   17.7955 H   0  0  0  0  0  0
  -27.7348  -14.2294   19.6270 H   0  0  0  0  0  0
  -28.6680  -11.8044   21.2406 H   0  0  0  0  0  0
  -28.4656  -13.3821   21.9332 H   0  0  0  0  0  0
  -25.2752   -9.5706   22.4690 H   0  0  0  0  0  0
  -24.0026   -7.4646   22.7459 H   0  0  0  0  0  0
  -21.0854   -8.8787   19.8888 H   0  0  0  0  0  0
  -22.3755  -10.9649   19.6112 H   0  0  0  0  0  0
  -21.2043   -7.6123   23.9710 H   0  0  0  0  0  0
  -21.1454   -6.0478   25.9061 H   0  0  0  0  0  0
  -22.0633   -2.7585   23.2846 H   0  0  0  0  0  0
  -22.4207  -11.9849   22.4811 H   0  0  0  0  0  0
  -21.1134  -13.1093   22.2560 H   0  0  0  0  0  0
  -24.6747  -15.8377   20.5495 H   0  0  0  0  0  0
  -26.2912  -15.6438   20.1273 H   0  0  0  0  0  0
  -26.7179  -32.5567   23.1213 H   0  0  0  0  0  0
  -25.0021  -33.9745   25.0469 H   0  0  0  0  0  0
  -22.6904  -31.3202   21.4192 H   0  0  0  0  0  0
  -23.3728  -35.9692   23.3322 H   0  0  0  0  0  0
  -24.3598  -36.8913   22.2044 H   0  0  0  0  0  0
  -23.7290  -37.6560   23.6645 H   0  0  0  0  0  0
  -26.0457  -31.6201   20.5992 H   0  0  0  0  0  0
  -26.8220  -30.8930   21.9772 H   0  0  0  0  0  0
  -28.1215  -29.1395   21.0837 H   0  0  0  0  0  0
  -26.0055  -25.9894   19.0375 H   0  0  0  0  0  0
  -23.9444  -27.2859   19.1027 H   0  0  0  0  0  0
  -23.7212  -30.6090   19.4129 H   0  0  0  0  0  0
  -22.7308  -29.2572   19.8748 H   0  0  0  0  0  0
  -25.1281  -36.1963   25.0838 H   0  0  0  0  0  0
  -20.9838  -28.3201   24.1304 H   0  0  0  0  0  0
  -21.6615  -26.7635   22.0748 H   0  0  0  0  0  0
  -20.6126  -26.2379   23.3519 H   0  0  0  0  0  0
  -19.6747  -25.5737   21.1810 H   0  0  0  0  0  0
  -19.6598  -27.2439   20.6493 H   0  0  0  0  0  0
  -17.4076  -26.6359   21.4256 H   0  0  0  0  0  0
  -18.0276  -26.0093   22.9265 H   0  0  0  0  0  0
  -19.7853  -30.7358   24.2136 H   0  0  0  0  0  0
  -17.4922  -31.6272   24.5086 H   0  0  0  0  0  0
  -15.5311  -30.2949   23.7634 H   0  0  0  0  0  0
  -15.8643  -28.0831   22.7014 H   0  0  0  0  0  0
  -24.5922  -30.7020   25.7782 H   0  0  0  0  0  0
  -24.8931  -32.2835   26.4902 H   0  0  0  0  0  0
  -25.8064  -30.8838   27.0225 H   0  0  0  0  0  0
  -26.2846  -29.6779   24.1162 H   0  0  0  0  0  0
  -27.4124  -29.7243   25.4506 H   0  0  0  0  0  0
  -27.8661  -30.4340   23.9196 H   0  0  0  0  0  0
  -27.2644  -33.3578   26.2091 H   0  0  0  0  0  0
  -28.3835  -32.6863   25.0300 H   0  0  0  0  0  0
  -28.0757  -31.8416   26.5384 H   0  0  0  0  0  0
  -28.2596  -38.0110   24.7477 H   0  0  0  0  0  0
  -28.1060  -36.2629   24.6331 H   0  0  0  0  0  0
  -27.2290  -37.1529   25.8871 H   0  0  0  0  0  0
  -20.9348  -29.9244   21.7167 H   0  0  0  0  0  0
  -26.0174  -38.2867   24.1391 H   0  0  0  0  0  0
  -28.5354  -22.3928   17.0236 H   0  0  0  0  0  0
  -26.9030  -22.0106   17.4541 H   0  0  0  0  0  0
  -28.6480  -22.8999   20.8556 H   0  0  0  0  0  0
  -30.0813  -22.7765   19.8525 H   0  0  0  0  0  0
  -26.6264  -24.1002   18.6248 H   0  0  0  0  0  0
  -29.5831  -24.6626   18.6783 H   0  0  0  0  0  0
  -26.1570  -19.0349   24.0186 H   0  0  0  0  0  0
  -27.5745  -18.1209   23.7908 H   0  0  0  0  0  0
  -26.0446  -17.5814   23.0580 H   0  0  0  0  0  0
  -25.0010  -20.6402   23.3738 H   0  0  0  0  0  0
  -24.2200  -19.5271   22.2629 H   0  0  0  0  0  0
  -24.1894  -21.2643   22.0128 H   0  0  0  0  0  0
  -24.4556  -21.8279   20.0886 H   0  0  0  0  0  0
  -25.5316  -22.3360   18.9341 H   0  0  0  0  0  0
  -25.6484  -23.0596   20.5491 H   0  0  0  0  0  0
  -30.6868  -19.3922   20.0367 H   0  0  0  0  0  0
  -30.0885  -20.2143   18.5964 H   0  0  0  0  0  0
  -29.7467  -18.5617   18.7770 H   0  0  0  0  0  0
  -28.5117  -24.7624   16.3145 H   0  0  0  0  0  0
  -27.5337  -25.9521   17.1568 H   0  0  0  0  0  0
  -26.7446  -24.6748   16.2549 H   0  0  0  0  0  0
  -29.6542  -17.9188   22.4375 H   0  0  0  0  0  0
  -28.2604  -16.9196   22.0998 H   0  0  0  0  0  0
  -27.3850  -25.0612   20.8007 H   0  0  0  0  0  0
  -29.0726  -25.2103   21.1148 H   0  0  0  0  0  0
  -30.7548  -17.1635   20.4810 H   0  0  0  0  0  0
  -29.2247  -16.7501   19.6726 H   0  0  0  0  0  0
  -28.9348  -14.9847   21.4323 H   0  0  0  0  0  0
  1 25  1  0  0  0
  1 30  2  0  0  0
  1 90  1  0  0  0
  2  3  1  0  0  0
  2 25  1  0  0  0
  2 91  1  0  0  0
  2 92  1  0  0  0
  3  4  1  0  0  0
  3 93  1  0  0  0
  3 94  1  0  0  0
  4  5  1  0  0  0
  4 95  1  0  0  0
  4 96  1  0  0  0
  5  6  1  0  0  0
  5 26  1  0  0  0
  5 97  1  0  0  0
  6 25  1  0  0  0
  6 98  1  0  0  0
  6 99  1  0  0  0
  7  8  2  0  0  0
  7 26  1  0  0  0
  7 29  1  0  0  0
  8  9  1  0  0  0
  8 22  1  0  0  0
  9 10  1  0  0  0
  9 27  2  0  0  0
 10 11  2  0  0  0
 10 15  1  0  0  0
 11 12  1  0  0  0
 11100  1  0  0  0
 12 13  2  0  0  0
 12101  1  0  0  0
 13 14  1  0  0  0
 13 31  1  0  0  0
 14 15  2  0  0  0
 14102  1  0  0  0
 15103  1  0  0  0
 16 17  2  0  0  0
 16 21  1  0  0  0
 16 31  1  0  0  0
 17 18  1  0  0  0
 17104  1  0  0  0
 18 19  2  0  0  0
 18105  1  0  0  0
 19 20  1  0  0  0
 19 24  1  0  0  0
 20 21  2  0  0  0
 20106  1  0  0  0
 21 23  1  0  0  0
 22 28  1  0  0  0
 22 32  2  0  0  0
 26 27  1  0  0  0
 28107  1  0  0  0
 28108  1  0  0  0
 29109  1  0  0  0
 29110  1  0  0  0
 33 34  1  0  0  0
 33 66  1  0  0  0
 33 70  2  0  0  0
 34 36  1  0  0  0
 34 59  1  0  0  0
 34111  1  0  0  0
 35 44  2  0  0  0
 35 45  1  0  0  0
 35 68  1  0  0  0
 36 56  1  0  0  0
 36112  1  0  0  0
 37 39  1  0  0  0
 37 47  1  0  0  0
 37 66  1  0  0  0
 37113  1  0  0  0
 38 43  2  0  0  0
 38 46  1  0  0  0
 38 47  1  0  0  0
 39 64  1  0  0  0
 39 67  2  0  0  0
 40 52  1  0  0  0
 40 53  2  0  0  0
 40 58  1  0  0  0
 41114  1  0  0  0
 41115  1  0  0  0
 41116  1  0  0  0
 41 48  1  0  0  0
 42 43  1  0  0  0
 42 66  1  0  0  0
 42117  1  0  0  0
 42118  1  0  0  0
 43 44  1  0  0  0
 44119  1  0  0  0
 45 46  2  0  0  0
 45120  1  0  0  0
 46121  1  0  0  0
 47122  1  0  0  0
 47123  1  0  0  0
 48 56  1  0  0  0
 48 65  1  0  0  0
 48124  1  0  0  0
 49 50  1  0  0  0
 49 53  1  0  0  0
 49 64  1  0  0  0
 49125  1  0  0  0
 50 51  1  0  0  0
 50126  1  0  0  0
 50127  1  0  0  0
 51 52  1  0  0  0
 51128  1  0  0  0
 51129  1  0  0  0
 52130  1  0  0  0
 52131  1  0  0  0
 53 54  1  0  0  0
 54 55  2  0  0  0
 54132  1  0  0  0
 55 57  1  0  0  0
 55133  1  0  0  0
 56 69  2  0  0  0
 57 58  2  0  0  0
 57134  1  0  0  0
 58135  1  0  0  0
 59 60  1  0  0  0
 59 61  1  0  0  0
 59 62  1  0  0  0
 60136  1  0  0  0
 60137  1  0  0  0
 60138  1  0  0  0
 61139  1  0  0  0
 61140  1  0  0  0
 61141  1  0  0  0
 62142  1  0  0  0
 62143  1  0  0  0
 62144  1  0  0  0
 63 65  1  0  0  0
 63145  1  0  0  0
 63146  1  0  0  0
 63147  1  0  0  0
 64148  1  0  0  0
 65149  1  0  0  0
 68 87  1  0  0  0
 71 72  2  0  0  0
 71 73  1  0  0  0
 71 81  1  0  0  0
 72 74  1  0  0  0
 72 82  1  0  0  0
 73 75  2  0  0  0
 73 86  1  0  0  0
 74 76  2  0  0  0
 74 83  1  0  0  0
 75 76  1  0  0  0
 75 84  1  0  0  0
 76 89  1  0  0  0
 77 79  1  0  0  0
 77 89  1  0  0  0
 77150  1  0  0  0
 77151  1  0  0  0
 78 80  1  0  0  0
 78 89  1  0  0  0
 78152  1  0  0  0
 78153  1  0  0  0
 79 80  1  0  0  0
 79 85  1  0  0  0
 79154  1  0  0  0
 80 87  1  0  0  0
 80155  1  0  0  0
 81156  1  0  0  0
 81157  1  0  0  0
 81158  1  0  0  0
 82159  1  0  0  0
 82160  1  0  0  0
 82161  1  0  0  0
 83162  1  0  0  0
 83163  1  0  0  0
 83164  1  0  0  0
 84165  1  0  0  0
 84166  1  0  0  0
 84167  1  0  0  0
 85168  1  0  0  0
 85169  1  0  0  0
 85170  1  0  0  0
 86 88  1  0  0  0
 86171  1  0  0  0
 86172  1  0  0  0
 87173  1  0  0  0
 87174  1  0  0  0
 88 90  1  0  0  0
 88175  1  0  0  0
 88176  1  0  0  0
 90177  1  0  0  0
M  ISO  4   1 100  68 101  87 101  90 100
M  END
> <chiral flag>
0

> <version>
0

> <s_m_source_file>
/data/baiqing/PycharmProjects/Reinvent-master-3.2/result/LINK_invent/BTK/process_docking_weight1_custom_sum_contain_oxygen_bond_distance_aromatic_linkinvent_7_9_3/rearranged_h_0166.sdf

> <i_m_source_file_index>
12

> <r_mmod_Potential_Energy-OPLS-2005>
112.556297302246

> <r_mmod_Stretch_Energy-OPLS-2005>
50.1907844543457

> <r_mmod_Bend_Energy-OPLS-2005>
162.558349609375

> <r_mmod_Torsional_Energy-OPLS-2005>
339.598358154297

> <r_mmod_Improper_Torsional_Energy-OPLS-2005>
11.4387922286987

> <r_mmod_Van_der_Waal_Energy-OPLS-2005>
193.409194946289

> <r_mmod_Electrostatic_Energy-OPLS-2005>
-444.415740966797

> <r_mmod_Solvation_Energy-OPLS-2005>
-212.078109741211

> <b_mmod_Minimization_Converged-OPLS-2005>
0

> <r_mmod_RMS_Derivative-OPLS-2005>
8.5485725402832

$$$$
12
                    3D
 Structure written by MMmdl.
166176  0  0  1  0            999 V2000
  -30.7160  -14.4903   20.5593 C   0  0  0  0  0  0
  -30.4157  -12.3187   19.4195 C   0  0  0  0  0  0
  -29.4896  -12.4998   18.2011 C   0  0  0  0  0  0
  -28.0137  -12.3552   18.6172 C   0  0  0  0  0  0
  -27.6564  -13.2087   19.8632 C   0  0  2  0  0  0
  -28.6998  -13.0266   20.9882 C   0  0  0  0  0  0
  -25.2585  -13.8168   20.5687 C   0  0  0  0  0  0
  -24.1838  -13.0431   20.9188 C   0  0  0  0  0  0
  -24.6407  -11.6911   20.8747 C   0  0  0  0  0  0
  -23.9078  -10.4298   21.0419 C   0  0  0  0  0  0
  -24.3635   -9.4209   21.9187 C   0  0  0  0  0  0
  -23.6299   -8.2250   22.0760 C   0  0  0  0  0  0
  -22.4283   -8.0293   21.3547 C   0  0  0  0  0  0
  -21.9930   -9.0269   20.4642 C   0  0  0  0  0  0
  -22.7267  -10.2142   20.3052 C   0  0  0  0  0  0
  -21.6851   -6.0749   22.5282 C   0  0  0  0  0  0
  -21.4014   -6.5649   23.8222 C   0  0  0  0  0  0
  -21.3654   -5.6796   24.9182 C   0  0  0  0  0  0
  -21.6044   -4.3060   24.7223 C   0  0  0  0  0  0
  -21.8821   -3.8158   23.4346 C   0  0  0  0  0  0
  -21.9193   -4.6976   22.3402 C   0  0  0  0  0  0
  -22.7859  -13.5235   21.1845 C   0  0  0  0  0  0
  -22.1657   -4.2158   21.0980 F   0  0  0  0  0  0
  -21.5630   -3.4546   25.7740 F   0  0  0  0  0  0
  -30.0279  -13.3209   20.4268 N   0  0  0  0  0  0
  -26.3007  -12.9336   20.3323 N   0  0  0  0  0  0
  -25.9327  -11.6499   20.5756 N   0  0  0  0  0  0
  -22.0490  -12.8219   22.0391 N   0  0  0  0  0  0
  -25.4295  -15.1884   20.4123 N   0  0  0  0  0  0
  -31.8337  -14.6608   20.0602 O   0  0  0  0  0  0
  -21.6640   -6.8897   21.4246 O   0  0  0  0  0  0
  -22.3544  -14.5542   20.6694 O   0  0  0  0  0  0
  -24.6175  -31.8628   23.2122 C   0  0  0  0  0  0
  -25.9063  -32.4768   23.8408 C   0  0  1  0  0  0
  -27.2252  -27.4040   20.0932 C   0  0  0  0  0  0
  -25.5907  -33.8577   24.2320 N   0  0  0  0  0  0
  -23.4027  -30.4927   21.5515 C   0  0  2  0  0  0
  -24.8431  -28.9518   20.1169 C   0  0  0  0  0  0
  -22.7391  -29.4669   22.4984 C   0  0  0  0  0  0
  -18.0264  -28.1378   22.8498 C   0  0  0  0  0  0
  -24.1483  -36.7318   23.2650 C   0  0  0  0  0  0
  -25.9346  -30.8197   21.3673 C   0  0  0  0  0  0
  -26.0063  -29.4528   20.7132 C   0  0  0  0  0  0
  -27.1947  -28.6826   20.7061 C   0  0  0  0  0  0
  -26.0344  -26.9223   19.4988 C   0  0  0  0  0  0
  -24.8513  -27.6839   19.5138 C   0  0  0  0  0  0
  -23.6103  -29.8269   20.1663 C   0  0  0  0  0  0
  -25.4096  -36.3067   24.0334 C   0  0  1  0  0  0
  -20.5857  -28.3689   23.1310 C   0  0  2  0  0  0
  -20.6775  -26.9429   22.5426 C   0  0  0  0  0  0
  -19.5746  -26.6396   21.5228 C   0  0  0  0  0  0
  -18.1916  -26.7931   22.1623 C   0  0  0  0  0  0
  -19.1516  -28.8847   23.2897 C   0  0  0  0  0  0
  -18.9458  -30.1452   23.8914 C   0  0  0  0  0  0
  -17.6469  -30.6597   24.0581 C   0  0  0  0  0  0
  -25.9032  -34.9436   23.5120 C   0  0  0  0  0  0
  -16.5352  -29.9109   23.6341 C   0  0  0  0  0  0
  -16.7260  -28.6513   23.0371 C   0  0  0  0  0  0
  -26.4515  -31.6550   25.0743 C   0  0  0  0  0  0
  -25.3814  -31.3622   26.1513 C   0  0  0  0  0  0
  -27.0422  -30.2999   24.6160 C   0  0  0  0  0  0
  -27.6037  -32.4324   25.7520 C   0  0  0  0  0  0
  -27.5558  -37.1803   24.8465 C   0  0  0  0  0  0
  -21.4126  -29.3047   22.3693 N   0  0  0  0  0  0
  -26.4264  -37.3768   23.9416 N   0  0  0  0  0  0
  -24.6694  -31.0743   22.1004 N   0  0  0  0  0  0
  -23.4146  -28.8230   23.3058 O   0  0  0  0  0  0
  -28.3985  -26.6655   20.1353 O   0  0  0  0  0  0
  -26.5612  -34.8890   22.4698 O   0  0  0  0  0  0
  -23.5356  -32.1401   23.7508 O   0  0  0  0  0  0
  -27.4026  -23.5758   20.2616 C   0  0  0  0  0  0
  -29.6744  -21.9353   20.1278 C   0  0  0  0  0  0
  -26.0615  -20.2494   21.3087 C   0  0  0  0  0  0
  -27.3076  -22.2039   20.6150 C   0  0  0  0  0  0
  -28.4497  -21.3706   20.5373 C   0  0  0  0  0  0
  -29.7611  -23.2985   19.7505 C   0  0  0  0  0  0
  -28.6122  -24.1412   19.7916 C   0  0  0  0  0  0
  -26.0837  -21.6246   21.0169 C   0  0  0  0  0  0
  -28.3257  -19.9918   20.8664 C   0  0  0  0  0  0
  -30.6590  -17.6165   22.2571 C   0  0  0  0  0  0
  -30.7618  -16.0903   22.3858 C   0  0  0  0  0  0
  -29.4615  -16.6187   20.4739 C   0  0  0  0  0  0
  -29.4036  -17.8296   21.4294 C   0  0  2  0  0  0
  -31.1080  -23.8081   19.2696 C   0  0  0  0  0  0
  -24.7903  -22.4218   21.1147 C   0  0  0  0  0  0
  -28.6225  -25.5798   19.2115 C   0  0  0  0  0  0
  -27.1430  -19.4538   21.2315 N   0  0  0  0  0  0
  -30.0960  -15.5025   21.2155 N   0  0  0  0  0  0
  -29.4251  -19.1354   20.8012 O   0  0  0  0  0  0
  -31.4600  -12.4091   19.1154 H   0  0  0  0  0  0
  -30.3146  -11.3143   19.8333 H   0  0  0  0  0  0
  -29.7336  -11.7685   17.4295 H   0  0  0  0  0  0
  -29.6529  -13.4813   17.7531 H   0  0  0  0  0  0
  -27.8304  -11.3004   18.8241 H   0  0  0  0  0  0
  -27.3622  -12.6162   17.7823 H   0  0  0  0  0  0
  -27.6872  -14.2482   19.5407 H   0  0  0  0  0  0
  -28.6808  -12.0051   21.3701 H   0  0  0  0  0  0
  -28.4579  -13.6657   21.8380 H   0  0  0  0  0  0
  -25.2788   -9.5678   22.4757 H   0  0  0  0  0  0
  -24.0005   -7.4646   22.7487 H   0  0  0  0  0  0
  -21.0869   -8.8804   19.8938 H   0  0  0  0  0  0
  -22.3750  -10.9690   19.6157 H   0  0  0  0  0  0
  -21.2008   -7.6158   23.9724 H   0  0  0  0  0  0
  -21.1467   -6.0527   25.9080 H   0  0  0  0  0  0
  -22.0604   -2.7618   23.2847 H   0  0  0  0  0  0
  -22.4108  -11.9885   22.4788 H   0  0  0  0  0  0
  -21.1090  -13.1223   22.2550 H   0  0  0  0  0  0
  -24.6700  -15.8477   20.5433 H   0  0  0  0  0  0
  -26.2911  -15.6317   20.1214 H   0  0  0  0  0  0
  -26.7126  -32.5464   23.1156 H   0  0  0  0  0  0
  -25.0044  -33.9737   25.0456 H   0  0  0  0  0  0
  -22.6928  -31.3107   21.4142 H   0  0  0  0  0  0
  -23.3698  -35.9699   23.3305 H   0  0  0  0  0  0
  -24.3565  -36.8963   22.2066 H   0  0  0  0  0  0
  -23.7289  -37.6534   23.6702 H   0  0  0  0  0  0
  -26.0554  -31.5840   20.5977 H   0  0  0  0  0  0
  -26.8186  -30.8678   21.9915 H   0  0  0  0  0  0
  -28.0911  -29.0644   21.1749 H   0  0  0  0  0  0
  -25.9812  -25.9498   19.0350 H   0  0  0  0  0  0
  -23.9502  -27.2831   19.0697 H   0  0  0  0  0  0
  -23.7288  -30.6028   19.4091 H   0  0  0  0  0  0
  -22.7282  -29.2582   19.8652 H   0  0  0  0  0  0
  -25.1267  -36.1912   25.0827 H   0  0  0  0  0  0
  -20.9950  -28.3299   24.1428 H   0  0  0  0  0  0
  -20.5727  -26.2312   23.3623 H   0  0  0  0  0  0
  -21.6642  -26.7510   22.1197 H   0  0  0  0  0  0
  -19.6937  -25.6320   21.1233 H   0  0  0  0  0  0
  -19.6670  -27.3225   20.6774 H   0  0  0  0  0  0
  -17.4206  -26.6702   21.4004 H   0  0  0  0  0  0
  -18.0278  -26.0057   22.8993 H   0  0  0  0  0  0
  -19.7950  -30.7248   24.2279 H   0  0  0  0  0  0
  -17.5050  -31.6274   24.5199 H   0  0  0  0  0  0
  -15.5359  -30.3036   23.7670 H   0  0  0  0  0  0
  -15.8644  -28.0850   22.7099 H   0  0  0  0  0  0
  -24.6042  -30.6869   25.7916 H   0  0  0  0  0  0
  -24.8944  -32.2752   26.4945 H   0  0  0  0  0  0
  -25.8242  -30.8872   27.0284 H   0  0  0  0  0  0
  -26.3009  -29.6622   24.1321 H   0  0  0  0  0  0
  -27.4322  -29.7338   25.4635 H   0  0  0  0  0  0
  -27.8765  -30.4308   23.9260 H   0  0  0  0  0  0
  -27.2612  -33.3647   26.2023 H   0  0  0  0  0  0
  -28.3894  -32.6837   25.0388 H   0  0  0  0  0  0
  -28.0659  -31.8515   26.5511 H   0  0  0  0  0  0
  -28.2550  -38.0123   24.7505 H   0  0  0  0  0  0
  -28.1072  -36.2638   24.6288 H   0  0  0  0  0  0
  -27.2279  -37.1463   25.8871 H   0  0  0  0  0  0
  -20.9286  -29.8721   21.6867 H   0  0  0  0  0  0
  -26.0117  -38.2830   24.1437 H   0  0  0  0  0  0
  -26.5240  -24.1983   20.3063 H   0  0  0  0  0  0
  -30.5482  -21.3002   20.0744 H   0  0  0  0  0  0
  -25.1440  -19.7648   21.6075 H   0  0  0  0  0  0
  -31.5266  -17.9985   21.7163 H   0  0  0  0  0  0
  -30.6213  -18.1212   23.2235 H   0  0  0  0  0  0
  -30.2394  -15.7416   23.2768 H   0  0  0  0  0  0
  -31.8068  -15.7845   22.4861 H   0  0  0  0  0  0
  -30.0659  -16.8614   19.5970 H   0  0  0  0  0  0
  -28.4654  -16.3567   20.1198 H   0  0  0  0  0  0
  -28.5668  -17.6907   22.1135 H   0  0  0  0  0  0
  -31.8953  -23.0742   19.4459 H   0  0  0  0  0  0
  -31.3934  -24.7208   19.7939 H   0  0  0  0  0  0
  -31.0798  -24.0115   18.1986 H   0  0  0  0  0  0
  -23.9932  -21.8241   21.5590 H   0  0  0  0  0  0
  -24.4578  -22.7316   20.1228 H   0  0  0  0  0  0
  -24.9136  -23.3105   21.7351 H   0  0  0  0  0  0
  -27.9542  -25.6166   18.3524 H   0  0  0  0  0  0
  -29.5917  -25.7893   18.7640 H   0  0  0  0  0  0
  1 25  1  0  0  0
  1 30  2  0  0  0
  1 88  1  0  0  0
  2  3  1  0  0  0
  2 25  1  0  0  0
  2 90  1  0  0  0
  2 91  1  0  0  0
  3  4  1  0  0  0
  3 92  1  0  0  0
  3 93  1  0  0  0
  4  5  1  0  0  0
  4 94  1  0  0  0
  4 95  1  0  0  0
  5  6  1  0  0  0
  5 26  1  0  0  0
  5 96  1  0  0  0
  6 25  1  0  0  0
  6 97  1  0  0  0
  6 98  1  0  0  0
  7  8  2  0  0  0
  7 26  1  0  0  0
  7 29  1  0  0  0
  8  9  1  0  0  0
  8 22  1  0  0  0
  9 10  1  0  0  0
  9 27  2  0  0  0
 10 11  2  0  0  0
 10 15  1  0  0  0
 11 12  1  0  0  0
 11 99  1  0  0  0
 12 13  2  0  0  0
 12100  1  0  0  0
 13 14  1  0  0  0
 13 31  1  0  0  0
 14 15  2  0  0  0
 14101  1  0  0  0
 15102  1  0  0  0
 16 17  2  0  0  0
 16 21  1  0  0  0
 16 31  1  0  0  0
 17 18  1  0  0  0
 17103  1  0  0  0
 18 19  2  0  0  0
 18104  1  0  0  0
 19 20  1  0  0  0
 19 24  1  0  0  0
 20 21  2  0  0  0
 20105  1  0  0  0
 21 23  1  0  0  0
 22 28  1  0  0  0
 22 32  2  0  0  0
 26 27  1  0  0  0
 28106  1  0  0  0
 28107  1  0  0  0
 29108  1  0  0  0
 29109  1  0  0  0
 33 34  1  0  0  0
 33 66  1  0  0  0
 33 70  2  0  0  0
 34 36  1  0  0  0
 34 59  1  0  0  0
 34110  1  0  0  0
 35 44  2  0  0  0
 35 45  1  0  0  0
 35 68  1  0  0  0
 36 56  1  0  0  0
 36111  1  0  0  0
 37 39  1  0  0  0
 37 47  1  0  0  0
 37 66  1  0  0  0
 37112  1  0  0  0
 38 43  2  0  0  0
 38 46  1  0  0  0
 38 47  1  0  0  0
 39 64  1  0  0  0
 39 67  2  0  0  0
 40 52  1  0  0  0
 40 53  2  0  0  0
 40 58  1  0  0  0
 41113  1  0  0  0
 41114  1  0  0  0
 41115  1  0  0  0
 41 48  1  0  0  0
 42 43  1  0  0  0
 42 66  1  0  0  0
 42116  1  0  0  0
 42117  1  0  0  0
 43 44  1  0  0  0
 44118  1  0  0  0
 45 46  2  0  0  0
 45119  1  0  0  0
 46120  1  0  0  0
 47121  1  0  0  0
 47122  1  0  0  0
 48 56  1  0  0  0
 48 65  1  0  0  0
 48123  1  0  0  0
 49 50  1  0  0  0
 49 53  1  0  0  0
 49 64  1  0  0  0
 49124  1  0  0  0
 50 51  1  0  0  0
 50125  1  0  0  0
 50126  1  0  0  0
 51 52  1  0  0  0
 51127  1  0  0  0
 51128  1  0  0  0
 52129  1  0  0  0
 52130  1  0  0  0
 53 54  1  0  0  0
 54 55  2  0  0  0
 54131  1  0  0  0
 55 57  1  0  0  0
 55132  1  0  0  0
 56 69  2  0  0  0
 57 58  2  0  0  0
 57133  1  0  0  0
 58134  1  0  0  0
 59 60  1  0  0  0
 59 61  1  0  0  0
 59 62  1  0  0  0
 60135  1  0  0  0
 60136  1  0  0  0
 60137  1  0  0  0
 61138  1  0  0  0
 61139  1  0  0  0
 61140  1  0  0  0
 62141  1  0  0  0
 62142  1  0  0  0
 62143  1  0  0  0
 63 65  1  0  0  0
 63144  1  0  0  0
 63145  1  0  0  0
 63146  1  0  0  0
 64147  1  0  0  0
 65148  1  0  0  0
 68 86  1  0  0  0
 71 74  2  0  0  0
 71 77  1  0  0  0
 71149  1  0  0  0
 72 75  2  0  0  0
 72 76  1  0  0  0
 72150  1  0  0  0
 73 78  2  0  0  0
 73 87  1  0  0  0
 73151  1  0  0  0
 74 75  1  0  0  0
 74 78  1  0  0  0
 75 79  1  0  0  0
 76 77  2  0  0  0
 76 84  1  0  0  0
 77 86  1  0  0  0
 78 85  1  0  0  0
 79 87  2  0  0  0
 79 89  1  0  0  0
 80 81  1  0  0  0
 80 83  1  0  0  0
 80152  1  0  0  0
 80153  1  0  0  0
 81 88  1  0  0  0
 81154  1  0  0  0
 81155  1  0  0  0
 82 83  1  0  0  0
 82 88  1  0  0  0
 82156  1  0  0  0
 82157  1  0  0  0
 83 89  1  0  0  0
 83158  1  0  0  0
 84159  1  0  0  0
 84160  1  0  0  0
 84161  1  0  0  0
 85162  1  0  0  0
 85163  1  0  0  0
 85164  1  0  0  0
 86165  1  0  0  0
 86166  1  0  0  0
M  ISO  4   1 100  68 101  86 101  88 100
M  END
> <chiral flag>
0

> <version>
0

> <s_m_source_file>
/data/baiqing/PycharmProjects/Reinvent-master-3.2/result/LINK_invent/BTK/process_docking_weight1_custom_sum_contain_oxygen_bond_distance_aromatic_linkinvent_7_9_3/rearranged_h_0166.sdf

> <i_m_source_file_index>
13

> <r_mmod_Potential_Energy-OPLS-2005>
-11.9724960327148

> <r_mmod_Stretch_Energy-OPLS-2005>
47.8783798217773

> <r_mmod_Bend_Energy-OPLS-2005>
144.413711547852

> <r_mmod_Torsional_Energy-OPLS-2005>
325.565704345703

> <r_mmod_Improper_Torsional_Energy-OPLS-2005>
6.60847616195679

> <r_mmod_Van_der_Waal_Energy-OPLS-2005>
176.220199584961

> <r_mmod_Electrostatic_Energy-OPLS-2005>
-526.334350585938

> <r_mmod_Solvation_Energy-OPLS-2005>
-203.225662231445

> <b_mmod_Minimization_Converged-OPLS-2005>
0

> <r_mmod_RMS_Derivative-OPLS-2005>
2.15823078155518

$$$$
13
                    3D
 Structure written by MMmdl.
174185  0  0  1  0            999 V2000
  -30.7890  -14.4258   20.6972 C   0  0  0  0  0  0
  -30.4107  -12.3259   19.4306 C   0  0  0  0  0  0
  -29.4928  -12.5250   18.2092 C   0  0  0  0  0  0
  -28.0178  -12.3648   18.6146 C   0  0  0  0  0  0
  -27.6571  -13.2124   19.8599 C   0  0  2  0  0  0
  -28.6844  -13.0164   20.9914 C   0  0  0  0  0  0
  -25.2576  -13.8169   20.5643 C   0  0  0  0  0  0
  -24.1838  -13.0441   20.9159 C   0  0  0  0  0  0
  -24.6399  -11.6911   20.8712 C   0  0  0  0  0  0
  -23.9061  -10.4293   21.0396 C   0  0  0  0  0  0
  -24.3618   -9.4208   21.9173 C   0  0  0  0  0  0
  -23.6288   -8.2250   22.0750 C   0  0  0  0  0  0
  -22.4270   -8.0282   21.3539 C   0  0  0  0  0  0
  -21.9904   -9.0257   20.4646 C   0  0  0  0  0  0
  -22.7235  -10.2134   20.3051 C   0  0  0  0  0  0
  -21.6855   -6.0730   22.5271 C   0  0  0  0  0  0
  -21.4015   -6.5634   23.8203 C   0  0  0  0  0  0
  -21.3658   -5.6788   24.9166 C   0  0  0  0  0  0
  -21.6047   -4.3051   24.7227 C   0  0  0  0  0  0
  -21.8821   -3.8140   23.4348 C   0  0  0  0  0  0
  -21.9192   -4.6956   22.3401 C   0  0  0  0  0  0
  -22.7860  -13.5238   21.1841 C   0  0  0  0  0  0
  -22.1665   -4.2134   21.0982 F   0  0  0  0  0  0
  -21.5629   -3.4541   25.7745 F   0  0  0  0  0  0
  -30.0378  -13.3010   20.4765 N   0  0  0  0  0  0
  -26.2990  -12.9352   20.3244 N   0  0  0  0  0  0
  -25.9318  -11.6502   20.5690 N   0  0  0  0  0  0
  -22.0516  -12.8229   22.0413 N   0  0  0  0  0  0
  -25.4319  -15.1882   20.4097 N   0  0  0  0  0  0
  -31.7493  -14.6923   19.9656 O   0  0  0  0  0  0
  -21.6636   -6.8878   21.4234 O   0  0  0  0  0  0
  -22.3531  -14.5535   20.6687 O   0  0  0  0  0  0
  -24.6154  -31.8662   23.2080 C   0  0  0  0  0  0
  -25.9040  -32.4814   23.8386 C   0  0  1  0  0  0
  -27.2357  -27.4103   20.0930 C   0  0  0  0  0  0
  -25.5891  -33.8613   24.2314 N   0  0  0  0  0  0
  -23.4042  -30.4892   21.5486 C   0  0  2  0  0  0
  -24.8499  -28.9510   20.1121 C   0  0  0  0  0  0
  -22.7414  -29.4648   22.4976 C   0  0  0  0  0  0
  -18.0275  -28.1378   22.8496 C   0  0  0  0  0  0
  -24.1485  -36.7315   23.2639 C   0  0  0  0  0  0
  -25.9349  -30.8230   21.3647 C   0  0  0  0  0  0
  -26.0102  -29.4551   20.7119 C   0  0  0  0  0  0
  -27.2010  -28.6911   20.7003 C   0  0  0  0  0  0
  -26.0516  -26.9223   19.4942 C   0  0  0  0  0  0
  -24.8669  -27.6850   19.5018 C   0  0  0  0  0  0
  -23.6135  -29.8215   20.1627 C   0  0  0  0  0  0
  -25.4106  -36.3106   24.0335 C   0  0  1  0  0  0
  -20.5864  -28.3667   23.1314 C   0  0  2  0  0  0
  -20.6760  -26.9401   22.5419 C   0  0  0  0  0  0
  -19.5739  -26.6387   21.5215 C   0  0  0  0  0  0
  -18.1921  -26.7924   22.1630 C   0  0  0  0  0  0
  -19.1525  -28.8839   23.2905 C   0  0  0  0  0  0
  -18.9453  -30.1444   23.8921 C   0  0  0  0  0  0
  -17.6454  -30.6584   24.0565 C   0  0  0  0  0  0
  -25.9037  -34.9472   23.5125 C   0  0  0  0  0  0
  -16.5346  -29.9089   23.6317 C   0  0  0  0  0  0
  -16.7266  -28.6503   23.0345 C   0  0  0  0  0  0
  -26.4467  -31.6599   25.0720 C   0  0  0  0  0  0
  -25.3732  -31.3713   26.1471 C   0  0  0  0  0  0
  -27.0286  -30.3033   24.6103 C   0  0  0  0  0  0
  -27.6048  -32.4320   25.7477 C   0  0  0  0  0  0
  -27.5582  -37.1803   24.8461 C   0  0  0  0  0  0
  -21.4141  -29.3032   22.3716 N   0  0  0  0  0  0
  -26.4287  -37.3793   23.9413 N   0  0  0  0  0  0
  -24.6701  -31.0744   22.0992 N   0  0  0  0  0  0
  -23.4179  -28.8190   23.3025 O   0  0  0  0  0  0
  -28.4211  -26.6926   20.1206 O   0  0  0  0  0  0
  -26.5610  -34.8923   22.4693 O   0  0  0  0  0  0
  -23.5341  -32.1435   23.7457 O   0  0  0  0  0  0
  -31.0525  -18.9325   20.9436 C   0  0  0  0  0  0
  -30.4764  -20.2198   20.8567 C   0  0  0  0  0  0
  -29.0288  -18.0907   21.9648 C   0  0  0  0  0  0
  -30.3561  -17.8597   21.5443 C   0  0  0  0  0  0
  -28.4453  -19.3852   21.9036 C   0  0  0  0  0  0
  -29.1904  -20.4850   21.3832 C   0  0  0  0  0  0
  -31.4317  -15.2502   23.9441 C   0  0  0  0  0  0
  -25.9656  -18.5792   22.2141 C   0  0  0  0  0  0
  -25.8935  -19.9799   21.6573 C   0  0  0  0  0  0
  -31.5173  -16.6662   23.4173 C   0  0  0  0  0  0
  -27.4158  -23.0309   19.5128 C   0  0  0  0  0  0
  -30.3258  -14.6448   23.0921 C   0  0  0  0  0  0
  -27.0777  -19.5633   22.4991 C   0  0  0  0  0  0
  -31.1228  -16.5758   21.9306 C   0  0  1  0  0  0
  -28.0082  -24.2014   20.2679 C   0  0  1  0  0  0
  -28.6989  -22.8189   20.2778 C   0  0  1  0  0  0
  -29.5656  -22.6390   22.6368 C   0  0  0  0  0  0
  -28.5387  -25.4073   19.4741 C   0  0  0  0  0  0
  -28.7195  -21.9552   21.5515 C   0  0  2  0  0  0
  -30.4701  -15.2389   21.7510 N   0  0  0  0  0  0
  -31.4569  -12.4081   19.1311 H   0  0  0  0  0  0
  -30.3038  -11.3133   19.8225 H   0  0  0  0  0  0
  -29.7454  -11.8070   17.4280 H   0  0  0  0  0  0
  -29.6548  -13.5152   17.7813 H   0  0  0  0  0  0
  -27.8432  -11.3087   18.8206 H   0  0  0  0  0  0
  -27.3638  -12.6214   17.7795 H   0  0  0  0  0  0
  -27.6987  -14.2588   19.5560 H   0  0  0  0  0  0
  -28.6495  -11.9942   21.3723 H   0  0  0  0  0  0
  -28.3856  -13.6546   21.8190 H   0  0  0  0  0  0
  -25.2780   -9.5676   22.4727 H   0  0  0  0  0  0
  -23.9988   -7.4650   22.7483 H   0  0  0  0  0  0
  -21.0827   -8.8783   19.8971 H   0  0  0  0  0  0
  -22.3698  -10.9666   19.6150 H   0  0  0  0  0  0
  -21.2008   -7.6143   23.9704 H   0  0  0  0  0  0
  -21.1479   -6.0519   25.9064 H   0  0  0  0  0  0
  -22.0603   -2.7603   23.2855 H   0  0  0  0  0  0
  -22.4140  -11.9888   22.4789 H   0  0  0  0  0  0
  -21.1141  -13.1257   22.2645 H   0  0  0  0  0  0
  -24.6761  -15.8508   20.5399 H   0  0  0  0  0  0
  -26.2971  -15.6239   20.1159 H   0  0  0  0  0  0
  -26.7107  -32.5513   23.1144 H   0  0  0  0  0  0
  -25.0018  -33.9782   25.0442 H   0  0  0  0  0  0
  -22.6940  -31.3070   21.4087 H   0  0  0  0  0  0
  -23.3738  -35.9658   23.3314 H   0  0  0  0  0  0
  -24.3580  -36.8916   22.2050 H   0  0  0  0  0  0
  -23.7241  -37.6525   23.6649 H   0  0  0  0  0  0
  -26.0500  -31.5886   20.5961 H   0  0  0  0  0  0
  -26.8222  -30.8776   21.9841 H   0  0  0  0  0  0
  -28.0971  -29.0797   21.1640 H   0  0  0  0  0  0
  -26.0190  -25.9500   19.0256 H   0  0  0  0  0  0
  -23.9736  -27.2897   19.0381 H   0  0  0  0  0  0
  -23.7244  -30.5986   19.4055 H   0  0  0  0  0  0
  -22.7364  -29.2447   19.8630 H   0  0  0  0  0  0
  -25.1275  -36.1972   25.0825 H   0  0  0  0  0  0
  -20.9967  -28.3241   24.1430 H   0  0  0  0  0  0
  -20.5656  -26.2283   23.3611 H   0  0  0  0  0  0
  -21.6631  -26.7433   22.1214 H   0  0  0  0  0  0
  -19.6901  -25.6302   21.1235 H   0  0  0  0  0  0
  -19.6676  -27.3207   20.6752 H   0  0  0  0  0  0
  -17.4186  -26.6675   21.4036 H   0  0  0  0  0  0
  -18.0327  -26.0062   22.9025 H   0  0  0  0  0  0
  -19.7929  -30.7248   24.2310 H   0  0  0  0  0  0
  -17.5008  -31.6265   24.5165 H   0  0  0  0  0  0
  -15.5346  -30.2996   23.7623 H   0  0  0  0  0  0
  -15.8669  -28.0822   22.7050 H   0  0  0  0  0  0
  -24.5893  -30.7075   25.7806 H   0  0  0  0  0  0
  -24.8940  -32.2872   26.4938 H   0  0  0  0  0  0
  -25.8082  -30.8861   27.0217 H   0  0  0  0  0  0
  -26.2827  -29.6813   24.1140 H   0  0  0  0  0  0
  -27.4027  -29.7254   25.4563 H   0  0  0  0  0  0
  -27.8681  -30.4343   23.9270 H   0  0  0  0  0  0
  -27.2663  -33.3597   26.2107 H   0  0  0  0  0  0
  -28.3825  -32.6920   25.0284 H   0  0  0  0  0  0
  -28.0757  -31.8415   26.5345 H   0  0  0  0  0  0
  -28.2590  -38.0109   24.7516 H   0  0  0  0  0  0
  -28.1083  -36.2639   24.6267 H   0  0  0  0  0  0
  -27.2309  -37.1428   25.8865 H   0  0  0  0  0  0
  -20.9309  -29.8756   21.6935 H   0  0  0  0  0  0
  -26.0177  -38.2867   24.1428 H   0  0  0  0  0  0
  -32.0762  -18.7987   20.6211 H   0  0  0  0  0  0
  -31.0748  -21.0309   20.4660 H   0  0  0  0  0  0
  -28.4851  -17.2869   22.4420 H   0  0  0  0  0  0
  -31.2206  -15.2040   25.0127 H   0  0  0  0  0  0
  -32.3720  -14.7266   23.7648 H   0  0  0  0  0  0
  -26.1556  -17.7764   21.5050 H   0  0  0  0  0  0
  -25.2889  -18.3321   23.0295 H   0  0  0  0  0  0
  -25.1643  -20.6517   22.1065 H   0  0  0  0  0  0
  -26.0502  -20.1055   20.5876 H   0  0  0  0  0  0
  -32.4973  -17.1212   23.5683 H   0  0  0  0  0  0
  -30.7978  -17.2713   23.9708 H   0  0  0  0  0  0
  -27.4812  -23.0412   18.4267 H   0  0  0  0  0  0
  -26.5030  -22.5935   19.9132 H   0  0  0  0  0  0
  -29.3486  -14.9213   23.4932 H   0  0  0  0  0  0
  -30.3954  -13.5553   23.1145 H   0  0  0  0  0  0
  -27.1467  -19.9627   23.5093 H   0  0  0  0  0  0
  -32.0627  -16.5920   21.3758 H   0  0  0  0  0  0
  -27.4791  -24.4820   21.1762 H   0  0  0  0  0  0
  -29.6146  -22.7637   19.6920 H   0  0  0  0  0  0
  -29.5139  -22.0884   23.5768 H   0  0  0  0  0  0
  -29.2145  -23.6515   22.8353 H   0  0  0  0  0  0
  -30.6140  -22.7040   22.3452 H   0  0  0  0  0  0
  -28.0963  -25.4293   18.4780 H   0  0  0  0  0  0
  -29.6036  -25.2456   19.3053 H   0  0  0  0  0  0
  -27.6993  -21.9606   21.9304 H   0  0  0  0  0  0
  1 25  1  0  0  0
  1 30  2  0  0  0
  1 90  1  0  0  0
  2  3  1  0  0  0
  2 25  1  0  0  0
  2 91  1  0  0  0
  2 92  1  0  0  0
  3  4  1  0  0  0
  3 93  1  0  0  0
  3 94  1  0  0  0
  4  5  1  0  0  0
  4 95  1  0  0  0
  4 96  1  0  0  0
  5  6  1  0  0  0
  5 26  1  0  0  0
  5 97  1  0  0  0
  6 25  1  0  0  0
  6 98  1  0  0  0
  6 99  1  0  0  0
  7  8  2  0  0  0
  7 26  1  0  0  0
  7 29  1  0  0  0
  8  9  1  0  0  0
  8 22  1  0  0  0
  9 10  1  0  0  0
  9 27  2  0  0  0
 10 11  2  0  0  0
 10 15  1  0  0  0
 11 12  1  0  0  0
 11100  1  0  0  0
 12 13  2  0  0  0
 12101  1  0  0  0
 13 14  1  0  0  0
 13 31  1  0  0  0
 14 15  2  0  0  0
 14102  1  0  0  0
 15103  1  0  0  0
 16 17  2  0  0  0
 16 21  1  0  0  0
 16 31  1  0  0  0
 17 18  1  0  0  0
 17104  1  0  0  0
 18 19  2  0  0  0
 18105  1  0  0  0
 19 20  1  0  0  0
 19 24  1  0  0  0
 20 21  2  0  0  0
 20106  1  0  0  0
 21 23  1  0  0  0
 22 28  1  0  0  0
 22 32  2  0  0  0
 26 27  1  0  0  0
 28107  1  0  0  0
 28108  1  0  0  0
 29109  1  0  0  0
 29110  1  0  0  0
 33 34  1  0  0  0
 33 66  1  0  0  0
 33 70  2  0  0  0
 34 36  1  0  0  0
 34 59  1  0  0  0
 34111  1  0  0  0
 35 44  2  0  0  0
 35 45  1  0  0  0
 35 68  1  0  0  0
 36 56  1  0  0  0
 36112  1  0  0  0
 37 39  1  0  0  0
 37 47  1  0  0  0
 37 66  1  0  0  0
 37113  1  0  0  0
 38 43  2  0  0  0
 38 46  1  0  0  0
 38 47  1  0  0  0
 39 64  1  0  0  0
 39 67  2  0  0  0
 40 52  1  0  0  0
 40 53  2  0  0  0
 40 58  1  0  0  0
 41114  1  0  0  0
 41115  1  0  0  0
 41116  1  0  0  0
 41 48  1  0  0  0
 42 43  1  0  0  0
 42 66  1  0  0  0
 42117  1  0  0  0
 42118  1  0  0  0
 43 44  1  0  0  0
 44119  1  0  0  0
 45 46  2  0  0  0
 45120  1  0  0  0
 46121  1  0  0  0
 47122  1  0  0  0
 47123  1  0  0  0
 48 56  1  0  0  0
 48 65  1  0  0  0
 48124  1  0  0  0
 49 50  1  0  0  0
 49 53  1  0  0  0
 49 64  1  0  0  0
 49125  1  0  0  0
 50 51  1  0  0  0
 50126  1  0  0  0
 50127  1  0  0  0
 51 52  1  0  0  0
 51128  1  0  0  0
 51129  1  0  0  0
 52130  1  0  0  0
 52131  1  0  0  0
 53 54  1  0  0  0
 54 55  2  0  0  0
 54132  1  0  0  0
 55 57  1  0  0  0
 55133  1  0  0  0
 56 69  2  0  0  0
 57 58  2  0  0  0
 57134  1  0  0  0
 58135  1  0  0  0
 59 60  1  0  0  0
 59 61  1  0  0  0
 59 62  1  0  0  0
 60136  1  0  0  0
 60137  1  0  0  0
 60138  1  0  0  0
 61139  1  0  0  0
 61140  1  0  0  0
 61141  1  0  0  0
 62142  1  0  0  0
 62143  1  0  0  0
 62144  1  0  0  0
 63 65  1  0  0  0
 63145  1  0  0  0
 63146  1  0  0  0
 63147  1  0  0  0
 64148  1  0  0  0
 65149  1  0  0  0
 68 88  1  0  0  0
 71 72  2  0  0  0
 71 74  1  0  0  0
 71150  1  0  0  0
 72 76  1  0  0  0
 72151  1  0  0  0
 73 74  2  0  0  0
 73 75  1  0  0  0
 73152  1  0  0  0
 74 84  1  0  0  0
 75 76  2  0  0  0
 75 83  1  0  0  0
 76 89  1  0  0  0
 77 80  1  0  0  0
 77 82  1  0  0  0
 77153  1  0  0  0
 77154  1  0  0  0
 78 79  1  0  0  0
 78 83  1  0  0  0
 78155  1  0  0  0
 78156  1  0  0  0
 79 83  1  0  0  0
 79157  1  0  0  0
 79158  1  0  0  0
 80 84  1  0  0  0
 80159  1  0  0  0
 80160  1  0  0  0
 81 85  1  0  0  0
 81161  1  0  0  0
 81162  1  0  0  0
 81 86  1  0  0  0
 82 90  1  0  0  0
 82163  1  0  0  0
 82164  1  0  0  0
 83165  1  0  0  0
 84 90  1  0  0  0
 84166  1  0  0  0
 85 86  1  0  0  0
 85 88  1  0  0  0
 85167  1  0  0  0
 86 89  1  0  0  0
 86168  1  0  0  0
 87169  1  0  0  0
 87170  1  0  0  0
 87171  1  0  0  0
 87 89  1  0  0  0
 88172  1  0  0  0
 88173  1  0  0  0
 89174  1  0  0  0
M  ISO  4   1 100  68 101  88 101  90 100
M  END
> <chiral flag>
0

> <version>
0

> <s_m_source_file>
/data/baiqing/PycharmProjects/Reinvent-master-3.2/result/LINK_invent/BTK/process_docking_weight1_custom_sum_contain_oxygen_bond_distance_aromatic_linkinvent_7_9_3/rearranged_h_0166.sdf

> <i_m_source_file_index>
14

> <r_mmod_Potential_Energy-OPLS-2005>
263.883026123047

> <r_mmod_Stretch_Energy-OPLS-2005>
52.2598114013672

> <r_mmod_Bend_Energy-OPLS-2005>
143.73210144043

> <r_mmod_Torsional_Energy-OPLS-2005>
390.030975341797

> <r_mmod_Improper_Torsional_Energy-OPLS-2005>
7.83368682861328

> <r_mmod_Van_der_Waal_Energy-OPLS-2005>
144.679595947266

> <r_mmod_Electrostatic_Energy-OPLS-2005>
-310.741271972656

> <r_mmod_Solvation_Energy-OPLS-2005>
-177.607666015625

> <b_mmod_Minimization_Converged-OPLS-2005>
0

> <r_mmod_RMS_Derivative-OPLS-2005>
1.2368483543396

$$$$
14
                    3D
 Structure written by MMmdl.
179190  0  0  1  0            999 V2000
  -30.6609  -14.8787   20.3434 C   0  0  0  0  0  0
  -30.4257  -12.5438   19.4380 C   0  0  0  0  0  0
  -29.4886  -12.4181   18.2226 C   0  0  0  0  0  0
  -28.0200  -12.2775   18.6648 C   0  0  0  0  0  0
  -27.6184  -13.2467   19.8072 C   0  0  2  0  0  0
  -28.6895  -13.3260   20.9126 C   0  0  0  0  0  0
  -25.2482  -13.8268   20.5784 C   0  0  0  0  0  0
  -24.1780  -13.0463   20.9291 C   0  0  0  0  0  0
  -24.6389  -11.6986   20.8823 C   0  0  0  0  0  0
  -23.9072  -10.4323   21.0412 C   0  0  0  0  0  0
  -24.3616   -9.4216   21.9173 C   0  0  0  0  0  0
  -23.6285   -8.2228   22.0737 C   0  0  0  0  0  0
  -22.4278   -8.0275   21.3510 C   0  0  0  0  0  0
  -21.9918   -9.0273   20.4631 C   0  0  0  0  0  0
  -22.7263  -10.2152   20.3059 C   0  0  0  0  0  0
  -21.6855   -6.0723   22.5298 C   0  0  0  0  0  0
  -21.4018   -6.5622   23.8235 C   0  0  0  0  0  0
  -21.3679   -5.6776   24.9201 C   0  0  0  0  0  0
  -21.6053   -4.3044   24.7247 C   0  0  0  0  0  0
  -21.8810   -3.8136   23.4367 C   0  0  0  0  0  0
  -21.9184   -4.6944   22.3421 C   0  0  0  0  0  0
  -22.7806  -13.5223   21.1949 C   0  0  0  0  0  0
  -22.1635   -4.2124   21.0983 F   0  0  0  0  0  0
  -21.5640   -3.4532   25.7756 F   0  0  0  0  0  0
  -29.9404  -13.6988   20.2304 N   0  0  0  0  0  0
  -26.2870  -12.9479   20.3246 N   0  0  0  0  0  0
  -25.9300  -11.6639   20.5810 N   0  0  0  0  0  0
  -22.0370  -12.8229   22.0488 N   0  0  0  0  0  0
  -25.4185  -15.1956   20.4213 N   0  0  0  0  0  0
  -31.8771  -14.7527   20.4872 O   0  0  0  0  0  0
  -21.6654   -6.8878   21.4252 O   0  0  0  0  0  0
  -22.3483  -14.5482   20.6756 O   0  0  0  0  0  0
  -24.6338  -31.8480   23.1933 C   0  0  0  0  0  0
  -25.9159  -32.4686   23.8280 C   0  0  1  0  0  0
  -27.2152  -27.2067   20.1340 C   0  0  0  0  0  0
  -25.5954  -33.8526   24.2170 N   0  0  0  0  0  0
  -23.4344  -30.4616   21.5373 C   0  0  2  0  0  0
  -24.8854  -28.9051   20.1003 C   0  0  0  0  0  0
  -22.7525  -29.4512   22.4892 C   0  0  0  0  0  0
  -18.0265  -28.1416   22.8473 C   0  0  0  0  0  0
  -24.1473  -36.7216   23.2650 C   0  0  0  0  0  0
  -25.9817  -30.7414   21.3890 C   0  0  0  0  0  0
  -26.0543  -29.3633   20.7203 C   0  0  0  0  0  0
  -27.2208  -28.5254   20.7208 C   0  0  0  0  0  0
  -26.0211  -26.8227   19.4879 C   0  0  0  0  0  0
  -24.8759  -27.6482   19.4736 C   0  0  0  0  0  0
  -23.6566  -29.7945   20.1517 C   0  0  0  0  0  0
  -25.4130  -36.3021   24.0288 C   0  0  1  0  0  0
  -20.5885  -28.3707   23.1290 C   0  0  2  0  0  0
  -20.6771  -26.9430   22.5431 C   0  0  0  0  0  0
  -19.5766  -26.6390   21.5226 C   0  0  0  0  0  0
  -18.1936  -26.7952   22.1623 C   0  0  0  0  0  0
  -19.1529  -28.8879   23.2850 C   0  0  0  0  0  0
  -18.9465  -30.1486   23.8858 C   0  0  0  0  0  0
  -17.6461  -30.6623   24.0550 C   0  0  0  0  0  0
  -25.9091  -34.9396   23.5014 C   0  0  0  0  0  0
  -16.5344  -29.9119   23.6338 C   0  0  0  0  0  0
  -16.7252  -28.6538   23.0359 C   0  0  0  0  0  0
  -26.4517  -31.6610   25.0730 C   0  0  0  0  0  0
  -25.3731  -31.3828   26.1439 C   0  0  0  0  0  0
  -27.0397  -30.2998   24.6363 C   0  0  0  0  0  0
  -27.5983  -32.4456   25.7540 C   0  0  0  0  0  0
  -27.5530  -37.1781   24.8462 C   0  0  0  0  0  0
  -21.4225  -29.3004   22.3658 N   0  0  0  0  0  0
  -26.4255  -37.3748   23.9393 N   0  0  0  0  0  0
  -24.7000  -31.0372   22.0955 N   0  0  0  0  0  0
  -23.4186  -28.8114   23.3067 O   0  0  0  0  0  0
  -28.2927  -26.2885   20.2468 O   0  0  0  0  0  0
  -26.5665  -34.8897   22.4593 O   0  0  0  0  0  0
  -23.5478  -32.1350   23.7184 O   0  0  0  0  0  0
  -30.5705  -15.7338   17.1919 C   0  0  0  0  0  0
  -32.5828  -16.5195   16.1234 C   0  0  0  0  0  0
  -31.3569  -15.8390   16.0239 C   0  0  0  0  0  0
  -31.0560  -16.2180   18.4248 C   0  0  0  0  0  0
  -32.3078  -16.9067   18.4007 C   0  0  0  0  0  0
  -31.5100  -15.5263   13.3736 C   0  0  0  0  0  0
  -30.1231  -16.0211   13.7165 C   0  0  0  0  0  0
  -28.4263  -17.9166   19.1547 C   0  0  0  0  0  0
  -29.5470  -18.2843   21.2924 C   0  0  0  0  0  0
  -29.5715  -24.3537   20.2392 C   0  0  0  0  0  0
  -28.4422  -19.4645   18.8456 C   0  0  0  0  0  0
  -29.4699  -19.8990   21.0537 C   0  0  0  0  0  0
  -30.8945  -15.2190   14.7310 C   0  0  0  0  0  0
  -28.4605  -23.3388   20.2729 C   0  0  2  0  0  0
  -29.6605  -17.4713   19.9591 C   0  0  1  0  0  0
  -28.2837  -24.8806   19.6665 C   0  0  1  0  0  0
  -32.9023  -17.6445   19.5980 C   0  0  0  0  0  0
  -28.2566  -22.1606   18.0014 C   0  0  0  0  0  0
  -28.7811  -21.9512   19.4536 C   0  0  2  0  0  0
  -33.0338  -17.0531   17.2728 N   0  0  0  0  0  0
  -30.2729  -16.0563   19.6392 N   0  0  0  0  0  0
  -28.5291  -20.4712   19.9841 N   0  3  1  0  0  0
  -31.4505  -12.6913   19.0918 H   0  0  0  0  0  0
  -30.4223  -11.6255   20.0288 H   0  0  0  0  0  0
  -29.7734  -11.5635   17.6059 H   0  0  0  0  0  0
  -29.5878  -13.2779   17.5716 H   0  0  0  0  0  0
  -27.8948  -11.2482   18.9976 H   0  0  0  0  0  0
  -27.3541  -12.4028   17.8092 H   0  0  0  0  0  0
  -27.5631  -14.2343   19.3471 H   0  0  0  0  0  0
  -28.7827  -12.3748   21.4425 H   0  0  0  0  0  0
  -28.4180  -14.0874   21.6500 H   0  0  0  0  0  0
  -25.2737   -9.5709   22.4798 H   0  0  0  0  0  0
  -24.0007   -7.4629   22.7456 H   0  0  0  0  0  0
  -21.0835   -8.8811   19.8925 H   0  0  0  0  0  0
  -22.3700  -10.9703   19.6196 H   0  0  0  0  0  0
  -21.2009   -7.6132   23.9741 H   0  0  0  0  0  0
  -21.1508   -6.0492   25.9095 H   0  0  0  0  0  0
  -22.0571   -2.7590   23.2872 H   0  0  0  0  0  0
  -22.3956  -11.9907   22.4940 H   0  0  0  0  0  0
  -21.0965  -13.1308   22.2630 H   0  0  0  0  0  0
  -24.6613  -15.8610   20.5521 H   0  0  0  0  0  0
  -26.2866  -15.6340   20.1419 H   0  0  0  0  0  0
  -26.7212  -32.5316   23.1003 H   0  0  0  0  0  0
  -25.0005  -33.9673   25.0245 H   0  0  0  0  0  0
  -22.7328  -31.2841   21.3872 H   0  0  0  0  0  0
  -23.3724  -35.9547   23.3366 H   0  0  0  0  0  0
  -24.3495  -36.8815   22.2036 H   0  0  0  0  0  0
  -23.7249  -37.6434   23.6691 H   0  0  0  0  0  0
  -26.1421  -31.5156   20.6378 H   0  0  0  0  0  0
  -26.8498  -30.7739   22.0376 H   0  0  0  0  0  0
  -28.1175  -28.8643   21.2207 H   0  0  0  0  0  0
  -25.9431  -25.8498   19.0245 H   0  0  0  0  0  0
  -23.9778  -27.2989   18.9799 H   0  0  0  0  0  0
  -23.7844  -30.5720   19.3964 H   0  0  0  0  0  0
  -22.7768  -29.2222   19.8472 H   0  0  0  0  0  0
  -25.1340  -36.1774   25.0769 H   0  0  0  0  0  0
  -20.9918  -28.3280   24.1438 H   0  0  0  0  0  0
  -20.5707  -26.2309   23.3623 H   0  0  0  0  0  0
  -21.6640  -26.7498   22.1215 H   0  0  0  0  0  0
  -19.6941  -25.6298   21.1274 H   0  0  0  0  0  0
  -19.6723  -27.3177   20.6752 H   0  0  0  0  0  0
  -17.4214  -26.6667   21.4020 H   0  0  0  0  0  0
  -18.0339  -26.0112   22.9047 H   0  0  0  0  0  0
  -19.7961  -30.7304   24.2220 H   0  0  0  0  0  0
  -17.5043  -31.6315   24.5158 H   0  0  0  0  0  0
  -15.5363  -30.3012   23.7735 H   0  0  0  0  0  0
  -15.8650  -28.0860   22.7107 H   0  0  0  0  0  0
  -24.5830  -30.7266   25.7779 H   0  0  0  0  0  0
  -24.9014  -32.3035   26.4892 H   0  0  0  0  0  0
  -25.8001  -30.8960   27.0218 H   0  0  0  0  0  0
  -26.3046  -29.6730   24.1283 H   0  0  0  0  0  0
  -27.3891  -29.7286   25.4988 H   0  0  0  0  0  0
  -27.9010  -30.4209   23.9775 H   0  0  0  0  0  0
  -27.2485  -33.3771   26.2027 H   0  0  0  0  0  0
  -28.3846  -32.7049   25.0438 H   0  0  0  0  0  0
  -28.0613  -31.8693   26.5562 H   0  0  0  0  0  0
  -28.2580  -38.0051   24.7468 H   0  0  0  0  0  0
  -28.0998  -36.2568   24.6359 H   0  0  0  0  0  0
  -27.2230  -37.1503   25.8869 H   0  0  0  0  0  0
  -20.9461  -29.8602   21.6733 H   0  0  0  0  0  0
  -26.0078  -38.2782   24.1474 H   0  0  0  0  0  0
  -29.5876  -15.2955   17.1428 H   0  0  0  0  0  0
  -33.2275  -16.6664   15.2685 H   0  0  0  0  0  0
  -32.2895  -16.2809   13.2800 H   0  0  0  0  0  0
  -31.5765  -14.7126   12.6503 H   0  0  0  0  0  0
  -29.2845  -15.5346   13.2170 H   0  0  0  0  0  0
  -30.0042  -17.0864   13.8985 H   0  0  0  0  0  0
  -28.4241  -17.4013   18.1913 H   0  0  0  0  0  0
  -27.5015  -17.6260   19.6544 H   0  0  0  0  0  0
  -28.6670  -17.9565   21.8535 H   0  0  0  0  0  0
  -30.4019  -18.0623   21.9360 H   0  0  0  0  0  0
  -30.3881  -24.2073   19.5338 H   0  0  0  0  0  0
  -29.8837  -24.7324   21.2104 H   0  0  0  0  0  0
  -27.5573  -19.6836   18.2526 H   0  0  0  0  0  0
  -29.3058  -19.6310   18.1974 H   0  0  0  0  0  0
  -30.4719  -20.2449   20.8022 H   0  0  0  0  0  0
  -29.2186  -20.3771   22.0025 H   0  0  0  0  0  0
  -30.5693  -14.1935   14.9061 H   0  0  0  0  0  0
  -27.9990  -23.1702   21.2445 H   0  0  0  0  0  0
  -30.4096  -18.1173   19.5214 H   0  0  0  0  0  0
  -28.2649  -24.9993   18.5863 H   0  0  0  0  0  0
  -32.5262  -17.2837   20.5501 H   0  0  0  0  0  0
  -32.6543  -18.7023   19.5371 H   0  0  0  0  0  0
  -33.9891  -17.5722   19.6180 H   0  0  0  0  0  0
  -28.5584  -23.1278   17.6068 H   0  0  0  0  0  0
  -27.1681  -22.1020   17.9313 H   0  0  0  0  0  0
  -28.6728  -21.4685   17.2695 H   0  0  0  0  0  0
  -29.8624  -21.9580   19.3160 H   0  0  0  0  0  0
  -27.6116  -20.4655   20.4071 H   0  0  0  0  0  0
  1 25  1  0  0  0
  1 30  2  0  0  0
  1 91  1  0  0  0
  2  3  1  0  0  0
  2 25  1  0  0  0
  2 93  1  0  0  0
  2 94  1  0  0  0
  3  4  1  0  0  0
  3 95  1  0  0  0
  3 96  1  0  0  0
  4  5  1  0  0  0
  4 97  1  0  0  0
  4 98  1  0  0  0
  5  6  1  0  0  0
  5 26  1  0  0  0
  5 99  1  0  0  0
  6 25  1  0  0  0
  6100  1  0  0  0
  6101  1  0  0  0
  7  8  2  0  0  0
  7 26  1  0  0  0
  7 29  1  0  0  0
  8  9  1  0  0  0
  8 22  1  0  0  0
  9 10  1  0  0  0
  9 27  2  0  0  0
 10 11  2  0  0  0
 10 15  1  0  0  0
 11 12  1  0  0  0
 11102  1  0  0  0
 12 13  2  0  0  0
 12103  1  0  0  0
 13 14  1  0  0  0
 13 31  1  0  0  0
 14 15  2  0  0  0
 14104  1  0  0  0
 15105  1  0  0  0
 16 17  2  0  0  0
 16 21  1  0  0  0
 16 31  1  0  0  0
 17 18  1  0  0  0
 17106  1  0  0  0
 18 19  2  0  0  0
 18107  1  0  0  0
 19 20  1  0  0  0
 19 24  1  0  0  0
 20 21  2  0  0  0
 20108  1  0  0  0
 21 23  1  0  0  0
 22 28  1  0  0  0
 22 32  2  0  0  0
 26 27  1  0  0  0
 28109  1  0  0  0
 28110  1  0  0  0
 29111  1  0  0  0
 29112  1  0  0  0
 33 34  1  0  0  0
 33 66  1  0  0  0
 33 70  2  0  0  0
 34 36  1  0  0  0
 34 59  1  0  0  0
 34113  1  0  0  0
 35 44  2  0  0  0
 35 45  1  0  0  0
 35 68  1  0  0  0
 36 56  1  0  0  0
 36114  1  0  0  0
 37 39  1  0  0  0
 37 47  1  0  0  0
 37 66  1  0  0  0
 37115  1  0  0  0
 38 43  2  0  0  0
 38 46  1  0  0  0
 38 47  1  0  0  0
 39 64  1  0  0  0
 39 67  2  0  0  0
 40 52  1  0  0  0
 40 53  2  0  0  0
 40 58  1  0  0  0
 41116  1  0  0  0
 41117  1  0  0  0
 41118  1  0  0  0
 41 48  1  0  0  0
 42 43  1  0  0  0
 42 66  1  0  0  0
 42119  1  0  0  0
 42120  1  0  0  0
 43 44  1  0  0  0
 44121  1  0  0  0
 45 46  2  0  0  0
 45122  1  0  0  0
 46123  1  0  0  0
 47124  1  0  0  0
 47125  1  0  0  0
 48 56  1  0  0  0
 48 65  1  0  0  0
 48126  1  0  0  0
 49 50  1  0  0  0
 49 53  1  0  0  0
 49 64  1  0  0  0
 49127  1  0  0  0
 50 51  1  0  0  0
 50128  1  0  0  0
 50129  1  0  0  0
 51 52  1  0  0  0
 51130  1  0  0  0
 51131  1  0  0  0
 52132  1  0  0  0
 52133  1  0  0  0
 53 54  1  0  0  0
 54 55  2  0  0  0
 54134  1  0  0  0
 55 57  1  0  0  0
 55135  1  0  0  0
 56 69  2  0  0  0
 57 58  2  0  0  0
 57136  1  0  0  0
 58137  1  0  0  0
 59 60  1  0  0  0
 59 61  1  0  0  0
 59 62  1  0  0  0
 60138  1  0  0  0
 60139  1  0  0  0
 60140  1  0  0  0
 61141  1  0  0  0
 61142  1  0  0  0
 61143  1  0  0  0
 62144  1  0  0  0
 62145  1  0  0  0
 62146  1  0  0  0
 63 65  1  0  0  0
 63147  1  0  0  0
 63148  1  0  0  0
 63149  1  0  0  0
 64150  1  0  0  0
 65151  1  0  0  0
 68 86  1  0  0  0
 71 73  2  0  0  0
 71 74  1  0  0  0
 71152  1  0  0  0
 72 73  1  0  0  0
 72 90  2  0  0  0
 72153  1  0  0  0
 73 83  1  0  0  0
 74 75  2  0  0  0
 74 91  1  0  0  0
 75 87  1  0  0  0
 75 90  1  0  0  0
 76 77  1  0  0  0
 76 83  1  0  0  0
 76154  1  0  0  0
 76155  1  0  0  0
 77 83  1  0  0  0
 77156  1  0  0  0
 77157  1  0  0  0
 78 81  1  0  0  0
 78 85  1  0  0  0
 78158  1  0  0  0
 78159  1  0  0  0
 79 82  1  0  0  0
 79 85  1  0  0  0
 79160  1  0  0  0
 79161  1  0  0  0
 80 86  1  0  0  0
 80162  1  0  0  0
 80163  1  0  0  0
 80 84  1  0  0  0
 81164  1  0  0  0
 81165  1  0  0  0
 81 92  1  0  0  0
 82 92  1  0  0  0
 82166  1  0  0  0
 82167  1  0  0  0
 83168  1  0  0  0
 84 86  1  0  0  0
 84 89  1  0  0  0
 84169  1  0  0  0
 85 91  1  0  0  0
 85170  1  0  0  0
 86171  1  0  0  0
 87172  1  0  0  0
 87173  1  0  0  0
 87174  1  0  0  0
 88175  1  0  0  0
 88176  1  0  0  0
 88177  1  0  0  0
 88 89  1  0  0  0
 89 92  1  0  0  0
 89178  1  0  0  0
 92179  1  0  0  0
M  CHG  1  92   1
M  ISO  4   1 100  68 101  86 101  91 100
M  END
> <chiral flag>
0

> <version>
0

> <s_m_source_file>
/data/baiqing/PycharmProjects/Reinvent-master-3.2/result/LINK_invent/BTK/process_docking_weight1_custom_sum_contain_oxygen_bond_distance_aromatic_linkinvent_7_9_3/rearranged_h_0166.sdf

> <i_m_source_file_index>
15

> <r_mmod_Potential_Energy-OPLS-2005>
642.655700683594

> <r_mmod_Stretch_Energy-OPLS-2005>
209.475219726562

> <r_mmod_Bend_Energy-OPLS-2005>
376.431762695312

> <r_mmod_Torsional_Energy-OPLS-2005>
446.948059082031

> <r_mmod_Improper_Torsional_Energy-OPLS-2005>
30.160701751709

> <r_mmod_Van_der_Waal_Energy-OPLS-2005>
159.687637329102

> <r_mmod_Electrostatic_Energy-OPLS-2005>
-305.364532470703

> <r_mmod_Solvation_Energy-OPLS-2005>
-449.994506835938

> <b_mmod_Minimization_Converged-OPLS-2005>
0

> <r_mmod_RMS_Derivative-OPLS-2005>
7.99378538131714

$$$$
15
                    3D
 Structure written by MMmdl.
173183  0  0  1  0            999 V2000
  -30.7004  -14.4896   20.5602 C   0  0  0  0  0  0
  -30.4167  -12.3165   19.4230 C   0  0  0  0  0  0
  -29.4933  -12.5063   18.2027 C   0  0  0  0  0  0
  -28.0139  -12.3718   18.6148 C   0  0  0  0  0  0
  -27.6568  -13.2029   19.8773 C   0  0  2  0  0  0
  -28.6999  -12.9992   20.9931 C   0  0  0  0  0  0
  -25.2582  -13.8132   20.5723 C   0  0  0  0  0  0
  -24.1829  -13.0412   20.9199 C   0  0  0  0  0  0
  -24.6375  -11.6869   20.8731 C   0  0  0  0  0  0
  -23.9028  -10.4266   21.0408 C   0  0  0  0  0  0
  -24.3577   -9.4180   21.9187 C   0  0  0  0  0  0
  -23.6256   -8.2214   22.0736 C   0  0  0  0  0  0
  -22.4246   -8.0253   21.3523 C   0  0  0  0  0  0
  -21.9881   -9.0232   20.4626 C   0  0  0  0  0  0
  -22.7200  -10.2119   20.3049 C   0  0  0  0  0  0
  -21.6836   -6.0719   22.5282 C   0  0  0  0  0  0
  -21.4009   -6.5618   23.8219 C   0  0  0  0  0  0
  -21.3661   -5.6778   24.9186 C   0  0  0  0  0  0
  -21.6047   -4.3041   24.7241 C   0  0  0  0  0  0
  -21.8818   -3.8124   23.4355 C   0  0  0  0  0  0
  -21.9181   -4.6941   22.3410 C   0  0  0  0  0  0
  -22.7854  -13.5219   21.1856 C   0  0  0  0  0  0
  -22.1651   -4.2119   21.0990 F   0  0  0  0  0  0
  -21.5630   -3.4525   25.7754 F   0  0  0  0  0  0
  -30.0223  -13.3151   20.4301 N   0  0  0  0  0  0
  -26.3000  -12.9298   20.3402 N   0  0  0  0  0  0
  -25.9296  -11.6450   20.5763 N   0  0  0  0  0  0
  -22.0473  -12.8218   22.0405 N   0  0  0  0  0  0
  -25.4348  -15.1857   20.4178 N   0  0  0  0  0  0
  -31.8395  -14.6321   20.1073 O   0  0  0  0  0  0
  -21.6598   -6.8853   21.4239 O   0  0  0  0  0  0
  -22.3547  -14.5552   20.6725 O   0  0  0  0  0  0
  -24.6148  -31.8668   23.2070 C   0  0  0  0  0  0
  -25.9044  -32.4805   23.8369 C   0  0  1  0  0  0
  -27.2323  -27.4148   20.0815 C   0  0  0  0  0  0
  -25.5905  -33.8608   24.2311 N   0  0  0  0  0  0
  -23.4026  -30.4913   21.5486 C   0  0  2  0  0  0
  -24.8468  -28.9529   20.1163 C   0  0  0  0  0  0
  -22.7405  -29.4662   22.4969 C   0  0  0  0  0  0
  -18.0280  -28.1359   22.8493 C   0  0  0  0  0  0
  -24.1489  -36.7316   23.2634 C   0  0  0  0  0  0
  -25.9324  -30.8242   21.3630 C   0  0  0  0  0  0
  -26.0077  -29.4550   20.7149 C   0  0  0  0  0  0
  -27.1971  -28.6890   20.7031 C   0  0  0  0  0  0
  -26.0427  -26.9307   19.4846 C   0  0  0  0  0  0
  -24.8583  -27.6898   19.5042 C   0  0  0  0  0  0
  -23.6116  -29.8235   20.1640 C   0  0  0  0  0  0
  -25.4110  -36.3108   24.0327 C   0  0  1  0  0  0
  -20.5869  -28.3667   23.1313 C   0  0  2  0  0  0
  -20.6790  -26.9395   22.5427 C   0  0  0  0  0  0
  -19.5767  -26.6353   21.5230 C   0  0  0  0  0  0
  -18.1939  -26.7900   22.1635 C   0  0  0  0  0  0
  -19.1525  -28.8829   23.2900 C   0  0  0  0  0  0
  -18.9450  -30.1429   23.8914 C   0  0  0  0  0  0
  -17.6458  -30.6573   24.0570 C   0  0  0  0  0  0
  -25.9036  -34.9470   23.5108 C   0  0  0  0  0  0
  -16.5349  -29.9077   23.6325 C   0  0  0  0  0  0
  -16.7270  -28.6493   23.0335 C   0  0  0  0  0  0
  -26.4473  -31.6570   25.0685 C   0  0  0  0  0  0
  -25.3748  -31.3696   26.1438 C   0  0  0  0  0  0
  -27.0292  -30.3009   24.6046 C   0  0  0  0  0  0
  -27.6043  -32.4283   25.7461 C   0  0  0  0  0  0
  -27.5577  -37.1811   24.8463 C   0  0  0  0  0  0
  -21.4132  -29.3050   22.3722 N   0  0  0  0  0  0
  -26.4296  -37.3790   23.9397 N   0  0  0  0  0  0
  -24.6685  -31.0752   22.0984 N   0  0  0  0  0  0
  -23.4178  -28.8194   23.3005 O   0  0  0  0  0  0
  -28.4220  -26.7036   20.1033 O   0  0  0  0  0  0
  -26.5602  -34.8930   22.4673 O   0  0  0  0  0  0
  -23.5341  -32.1428   23.7460 O   0  0  0  0  0  0
  -29.4086  -19.3375   20.6224 C   0  0  0  0  0  0
  -27.7658  -20.0552   18.9925 C   0  0  0  0  0  0
  -28.5989  -20.3653   20.0808 C   0  0  0  0  0  0
  -29.4254  -18.0179   20.0873 C   0  0  0  0  0  0
  -27.7695  -18.7694   18.4229 C   0  0  0  0  0  0
  -28.6256  -17.7565   18.9330 C   0  0  0  0  0  0
  -30.6682  -17.0258   22.2371 C   0  0  0  0  0  0
  -29.1124  -22.9039   19.7190 C   0  0  0  0  0  0
  -29.6922  -15.8665   22.3563 C   0  0  0  0  0  0
  -27.2434  -22.3367   21.0962 C   0  0  0  0  0  0
  -28.6154  -21.7949   20.6529 C   0  0  1  0  0  0
  -30.4027  -16.9934   20.7296 C   0  0  2  0  0  0
  -28.6185  -24.2001   20.4063 C   0  0  1  0  0  0
  -26.8403  -18.5126   17.2455 C   0  0  0  0  0  0
  -28.6905  -16.4460   18.1613 C   0  0  0  0  0  0
  -26.9804  -24.5016   22.2846 C   0  0  0  0  0  0
  -28.5625  -25.4259   19.4432 C   0  0  0  0  0  0
  -29.9715  -15.5756   20.9440 N   0  0  0  0  0  0
  -27.3078  -23.8218   21.0094 N   0  3  2  0  0  0
  -31.4624  -12.4106   19.1251 H   0  0  0  0  0  0
  -30.3124  -11.3089   19.8283 H   0  0  0  0  0  0
  -29.7326  -11.7742   17.4303 H   0  0  0  0  0  0
  -29.6671  -13.4859   17.7543 H   0  0  0  0  0  0
  -27.8222  -11.3168   18.8056 H   0  0  0  0  0  0
  -27.3643  -12.6481   17.7834 H   0  0  0  0  0  0
  -27.6951  -14.2499   19.5953 H   0  0  0  0  0  0
  -28.6846  -11.9688   21.3494 H   0  0  0  0  0  0
  -28.4540  -13.6103   21.8599 H   0  0  0  0  0  0
  -25.2703   -9.5632   22.4793 H   0  0  0  0  0  0
  -23.9957   -7.4594   22.7443 H   0  0  0  0  0  0
  -21.0806   -8.8739   19.8930 H   0  0  0  0  0  0
  -22.3648  -10.9665   19.6161 H   0  0  0  0  0  0
  -21.2004   -7.6122   23.9722 H   0  0  0  0  0  0
  -21.1491   -6.0506   25.9095 H   0  0  0  0  0  0
  -22.0599   -2.7573   23.2878 H   0  0  0  0  0  0
  -22.4041  -11.9876   22.4833 H   0  0  0  0  0  0
  -21.1106  -13.1284   22.2596 H   0  0  0  0  0  0
  -24.6794  -15.8472   20.5553 H   0  0  0  0  0  0
  -26.3120  -15.6268   20.1728 H   0  0  0  0  0  0
  -26.7109  -32.5518   23.1129 H   0  0  0  0  0  0
  -25.0069  -33.9772   25.0466 H   0  0  0  0  0  0
  -22.6931  -31.3084   21.4082 H   0  0  0  0  0  0
  -23.3734  -35.9664   23.3311 H   0  0  0  0  0  0
  -24.3592  -36.8912   22.2047 H   0  0  0  0  0  0
  -23.7263  -37.6533   23.6641 H   0  0  0  0  0  0
  -26.0416  -31.5833   20.5880 H   0  0  0  0  0  0
  -26.8231  -30.8836   21.9757 H   0  0  0  0  0  0
  -28.0906  -29.0725   21.1748 H   0  0  0  0  0  0
  -25.9812  -25.9723   18.9963 H   0  0  0  0  0  0
  -23.9626  -27.2955   19.0427 H   0  0  0  0  0  0
  -23.7248  -30.5963   19.4018 H   0  0  0  0  0  0
  -22.7348  -29.2453   19.8685 H   0  0  0  0  0  0
  -25.1290  -36.1960   25.0820 H   0  0  0  0  0  0
  -20.9971  -28.3244   24.1427 H   0  0  0  0  0  0
  -20.5713  -26.2281   23.3628 H   0  0  0  0  0  0
  -21.6666  -26.7455   22.1212 H   0  0  0  0  0  0
  -19.6939  -25.6258   21.1278 H   0  0  0  0  0  0
  -19.6691  -27.3159   20.6756 H   0  0  0  0  0  0
  -17.4219  -26.6640   21.4030 H   0  0  0  0  0  0
  -18.0322  -26.0045   22.9031 H   0  0  0  0  0  0
  -19.7928  -30.7235   24.2289 H   0  0  0  0  0  0
  -17.5020  -31.6246   24.5187 H   0  0  0  0  0  0
  -15.5352  -30.2988   23.7635 H   0  0  0  0  0  0
  -15.8665  -28.0817   22.7029 H   0  0  0  0  0  0
  -24.5922  -30.7025   25.7801 H   0  0  0  0  0  0
  -24.8940  -32.2864   26.4858 H   0  0  0  0  0  0
  -25.8111  -30.8897   27.0203 H   0  0  0  0  0  0
  -26.2822  -29.6784   24.1101 H   0  0  0  0  0  0
  -27.4075  -29.7218   25.4481 H   0  0  0  0  0  0
  -27.8657  -30.4329   23.9179 H   0  0  0  0  0  0
  -27.2648  -33.3568   26.2066 H   0  0  0  0  0  0
  -28.3856  -32.6856   25.0297 H   0  0  0  0  0  0
  -28.0706  -31.8379   26.5358 H   0  0  0  0  0  0
  -28.2597  -38.0109   24.7501 H   0  0  0  0  0  0
  -28.1068  -36.2631   24.6295 H   0  0  0  0  0  0
  -27.2294  -37.1475   25.8871 H   0  0  0  0  0  0
  -20.9262  -29.8797   21.6984 H   0  0  0  0  0  0
  -26.0171  -38.2858   24.1407 H   0  0  0  0  0  0
  -30.0539  -19.5874   21.4527 H   0  0  0  0  0  0
  -27.1251  -20.8179   18.5712 H   0  0  0  0  0  0
  -31.6889  -16.7319   22.4896 H   0  0  0  0  0  0
  -30.3684  -17.9204   22.7795 H   0  0  0  0  0  0
  -28.6512  -22.8045   18.7349 H   0  0  0  0  0  0
  -30.1932  -22.8773   19.5743 H   0  0  0  0  0  0
  -28.6615  -16.1741   22.5406 H   0  0  0  0  0  0
  -30.0118  -15.1090   23.0748 H   0  0  0  0  0  0
  -26.9786  -21.9692   22.0891 H   0  0  0  0  0  0
  -26.4504  -22.0128   20.4234 H   0  0  0  0  0  0
  -29.2675  -21.7929   21.5278 H   0  0  0  0  0  0
  -31.3496  -17.0873   20.1936 H   0  0  0  0  0  0
  -29.3198  -24.4220   21.2136 H   0  0  0  0  0  0
  -26.2842  -19.4100   16.9710 H   0  0  0  0  0  0
  -26.1119  -17.7433   17.4986 H   0  0  0  0  0  0
  -27.3906  -18.1912   16.3626 H   0  0  0  0  0  0
  -29.4892  -15.7830   18.4694 H   0  0  0  0  0  0
  -28.8786  -16.6476   17.1078 H   0  0  0  0  0  0
  -27.7391  -15.9211   18.2215 H   0  0  0  0  0  0
  -25.9704  -24.2399   22.6029 H   0  0  0  0  0  0
  -27.0126  -25.5844   22.1790 H   0  0  0  0  0  0
  -27.6705  -24.2165   23.0801 H   0  0  0  0  0  0
  -27.8770  -25.2625   18.6133 H   0  0  0  0  0  0
  -29.5358  -25.4834   18.9534 H   0  0  0  0  0  0
  -26.5838  -24.0798   20.3550 H   0  0  0  0  0  0
  1 25  1  0  0  0
  1 30  2  0  0  0
  1 88  1  0  0  0
  2  3  1  0  0  0
  2 25  1  0  0  0
  2 90  1  0  0  0
  2 91  1  0  0  0
  3  4  1  0  0  0
  3 92  1  0  0  0
  3 93  1  0  0  0
  4  5  1  0  0  0
  4 94  1  0  0  0
  4 95  1  0  0  0
  5  6  1  0  0  0
  5 26  1  0  0  0
  5 96  1  0  0  0
  6 25  1  0  0  0
  6 97  1  0  0  0
  6 98  1  0  0  0
  7  8  2  0  0  0
  7 26  1  0  0  0
  7 29  1  0  0  0
  8  9  1  0  0  0
  8 22  1  0  0  0
  9 10  1  0  0  0
  9 27  2  0  0  0
 10 11  2  0  0  0
 10 15  1  0  0  0
 11 12  1  0  0  0
 11 99  1  0  0  0
 12 13  2  0  0  0
 12100  1  0  0  0
 13 14  1  0  0  0
 13 31  1  0  0  0
 14 15  2  0  0  0
 14101  1  0  0  0
 15102  1  0  0  0
 16 17  2  0  0  0
 16 21  1  0  0  0
 16 31  1  0  0  0
 17 18  1  0  0  0
 17103  1  0  0  0
 18 19  2  0  0  0
 18104  1  0  0  0
 19 20  1  0  0  0
 19 24  1  0  0  0
 20 21  2  0  0  0
 20105  1  0  0  0
 21 23  1  0  0  0
 22 28  1  0  0  0
 22 32  2  0  0  0
 26 27  1  0  0  0
 28106  1  0  0  0
 28107  1  0  0  0
 29108  1  0  0  0
 29109  1  0  0  0
 33 34  1  0  0  0
 33 66  1  0  0  0
 33 70  2  0  0  0
 34 36  1  0  0  0
 34 59  1  0  0  0
 34110  1  0  0  0
 35 44  2  0  0  0
 35 45  1  0  0  0
 35 68  1  0  0  0
 36 56  1  0  0  0
 36111  1  0  0  0
 37 39  1  0  0  0
 37 47  1  0  0  0
 37 66  1  0  0  0
 37112  1  0  0  0
 38 43  2  0  0  0
 38 46  1  0  0  0
 38 47  1  0  0  0
 39 64  1  0  0  0
 39 67  2  0  0  0
 40 52  1  0  0  0
 40 53  2  0  0  0
 40 58  1  0  0  0
 41113  1  0  0  0
 41114  1  0  0  0
 41115  1  0  0  0
 41 48  1  0  0  0
 42 43  1  0  0  0
 42 66  1  0  0  0
 42116  1  0  0  0
 42117  1  0  0  0
 43 44  1  0  0  0
 44118  1  0  0  0
 45 46  2  0  0  0
 45119  1  0  0  0
 46120  1  0  0  0
 47121  1  0  0  0
 47122  1  0  0  0
 48 56  1  0  0  0
 48 65  1  0  0  0
 48123  1  0  0  0
 49 50  1  0  0  0
 49 53  1  0  0  0
 49 64  1  0  0  0
 49124  1  0  0  0
 50 51  1  0  0  0
 50125  1  0  0  0
 50126  1  0  0  0
 51 52  1  0  0  0
 51127  1  0  0  0
 51128  1  0  0  0
 52129  1  0  0  0
 52130  1  0  0  0
 53 54  1  0  0  0
 54 55  2  0  0  0
 54131  1  0  0  0
 55 57  1  0  0  0
 55132  1  0  0  0
 56 69  2  0  0  0
 57 58  2  0  0  0
 57133  1  0  0  0
 58134  1  0  0  0
 59 60  1  0  0  0
 59 61  1  0  0  0
 59 62  1  0  0  0
 60135  1  0  0  0
 60136  1  0  0  0
 60137  1  0  0  0
 61138  1  0  0  0
 61139  1  0  0  0
 61140  1  0  0  0
 62141  1  0  0  0
 62142  1  0  0  0
 62143  1  0  0  0
 63 65  1  0  0  0
 63144  1  0  0  0
 63145  1  0  0  0
 63146  1  0  0  0
 64147  1  0  0  0
 65148  1  0  0  0
 68 87  1  0  0  0
 71 73  2  0  0  0
 71 74  1  0  0  0
 71149  1  0  0  0
 72 73  1  0  0  0
 72 75  2  0  0  0
 72150  1  0  0  0
 73 81  1  0  0  0
 74 76  2  0  0  0
 74 82  1  0  0  0
 75 76  1  0  0  0
 75 84  1  0  0  0
 76 85  1  0  0  0
 77 79  1  0  0  0
 77 82  1  0  0  0
 77151  1  0  0  0
 77152  1  0  0  0
 78 81  1  0  0  0
 78 83  1  0  0  0
 78153  1  0  0  0
 78154  1  0  0  0
 79 88  1  0  0  0
 79155  1  0  0  0
 79156  1  0  0  0
 80 81  1  0  0  0
 80 89  1  0  0  0
 80157  1  0  0  0
 80158  1  0  0  0
 81159  1  0  0  0
 82 88  1  0  0  0
 82160  1  0  0  0
 83 87  1  0  0  0
 83 89  1  0  0  0
 83161  1  0  0  0
 84162  1  0  0  0
 84163  1  0  0  0
 84164  1  0  0  0
 85165  1  0  0  0
 85166  1  0  0  0
 85167  1  0  0  0
 86168  1  0  0  0
 86169  1  0  0  0
 86170  1  0  0  0
 86 89  1  0  0  0
 87171  1  0  0  0
 87172  1  0  0  0
 89173  1  0  0  0
M  CHG  1  89   1
M  ISO  4   1 100  68 101  87 101  88 100
M  END
> <chiral flag>
0

> <version>
0

> <s_m_source_file>
/data/baiqing/PycharmProjects/Reinvent-master-3.2/result/LINK_invent/BTK/process_docking_weight1_custom_sum_contain_oxygen_bond_distance_aromatic_linkinvent_7_9_3/rearranged_h_0166.sdf

> <i_m_source_file_index>
16

> <r_mmod_Potential_Energy-OPLS-2005>
52.7531890869141

> <r_mmod_Stretch_Energy-OPLS-2005>
49.3251953125

> <r_mmod_Bend_Energy-OPLS-2005>
155.923034667969

> <r_mmod_Torsional_Energy-OPLS-2005>
321.555511474609

> <r_mmod_Improper_Torsional_Energy-OPLS-2005>
13.7769260406494

> <r_mmod_Van_der_Waal_Energy-OPLS-2005>
147.408584594727

> <r_mmod_Electrostatic_Energy-OPLS-2005>
-253.783905029297

> <r_mmod_Solvation_Energy-OPLS-2005>
-396.934814453125

> <b_mmod_Minimization_Converged-OPLS-2005>
0

> <r_mmod_RMS_Derivative-OPLS-2005>
2.86226081848145

$$$$
16
                    3D
 Structure written by MMmdl.
170180  0  0  1  0            999 V2000
  -30.6422  -14.8731   20.4385 C   0  0  0  0  0  0
  -30.4143  -12.5519   19.4823 C   0  0  0  0  0  0
  -29.5001  -12.5002   18.2415 C   0  0  0  0  0  0
  -28.0402  -12.2742   18.6710 C   0  0  0  0  0  0
  -27.6163  -13.2174   19.8234 C   0  0  2  0  0  0
  -28.6645  -13.2989   20.9568 C   0  0  0  0  0  0
  -25.2456  -13.8137   20.5733 C   0  0  0  0  0  0
  -24.1753  -13.0399   20.9244 C   0  0  0  0  0  0
  -24.6339  -11.6874   20.8793 C   0  0  0  0  0  0
  -23.9034  -10.4263   21.0445 C   0  0  0  0  0  0
  -24.3596   -9.4177   21.9209 C   0  0  0  0  0  0
  -23.6271   -8.2216   22.0767 C   0  0  0  0  0  0
  -22.4253   -8.0264   21.3555 C   0  0  0  0  0  0
  -21.9893   -9.0238   20.4655 C   0  0  0  0  0  0
  -22.7222  -10.2112   20.3076 C   0  0  0  0  0  0
  -21.6840   -6.0727   22.5285 C   0  0  0  0  0  0
  -21.4009   -6.5636   23.8216 C   0  0  0  0  0  0
  -21.3660   -5.6792   24.9184 C   0  0  0  0  0  0
  -21.6044   -4.3055   24.7240 C   0  0  0  0  0  0
  -21.8821   -3.8145   23.4358 C   0  0  0  0  0  0
  -21.9187   -4.6956   22.3410 C   0  0  0  0  0  0
  -22.7785  -13.5204   21.1888 C   0  0  0  0  0  0
  -22.1653   -4.2142   21.0988 F   0  0  0  0  0  0
  -21.5629   -3.4541   25.7754 F   0  0  0  0  0  0
  -29.9426  -13.6749   20.3413 N   0  0  0  0  0  0
  -26.2819  -12.9292   20.3240 N   0  0  0  0  0  0
  -25.9258  -11.6464   20.5794 N   0  0  0  0  0  0
  -22.0424  -12.8192   22.0436 N   0  0  0  0  0  0
  -25.4178  -15.1861   20.4164 N   0  0  0  0  0  0
  -31.8552  -14.8179   20.2108 O   0  0  0  0  0  0
  -21.6622   -6.8861   21.4241 O   0  0  0  0  0  0
  -22.3486  -14.5510   20.6727 O   0  0  0  0  0  0
  -24.6362  -31.8506   23.1944 C   0  0  0  0  0  0
  -25.9162  -32.4734   23.8311 C   0  0  1  0  0  0
  -27.2151  -27.2071   20.1559 C   0  0  0  0  0  0
  -25.5935  -33.8541   24.2228 N   0  0  0  0  0  0
  -23.4355  -30.4713   21.5391 C   0  0  2  0  0  0
  -24.8825  -28.9036   20.1168 C   0  0  0  0  0  0
  -22.7517  -29.4589   22.4901 C   0  0  0  0  0  0
  -18.0289  -28.1400   22.8496 C   0  0  0  0  0  0
  -24.1485  -36.7269   23.2638 C   0  0  0  0  0  0
  -25.9848  -30.7492   21.3790 C   0  0  0  0  0  0
  -26.0581  -29.3649   20.7247 C   0  0  0  0  0  0
  -27.2305  -28.5333   20.7230 C   0  0  0  0  0  0
  -26.0167  -26.8221   19.5200 C   0  0  0  0  0  0
  -24.8697  -27.6423   19.5006 C   0  0  0  0  0  0
  -23.6560  -29.7983   20.1587 C   0  0  0  0  0  0
  -25.4119  -36.3058   24.0313 C   0  0  1  0  0  0
  -20.5899  -28.3724   23.1252 C   0  0  2  0  0  0
  -20.6789  -26.9437   22.5411 C   0  0  0  0  0  0
  -19.5758  -26.6394   21.5220 C   0  0  0  0  0  0
  -18.1933  -26.7945   22.1627 C   0  0  0  0  0  0
  -19.1550  -28.8875   23.2868 C   0  0  0  0  0  0
  -18.9470  -30.1472   23.8891 C   0  0  0  0  0  0
  -17.6475  -30.6606   24.0561 C   0  0  0  0  0  0
  -25.9069  -34.9429   23.5077 C   0  0  0  0  0  0
  -16.5362  -29.9103   23.6339 C   0  0  0  0  0  0
  -16.7280  -28.6510   23.0377 C   0  0  0  0  0  0
  -26.4513  -31.6582   25.0725 C   0  0  0  0  0  0
  -25.3717  -31.3732   26.1432 C   0  0  0  0  0  0
  -27.0390  -30.2996   24.6257 C   0  0  0  0  0  0
  -27.6056  -32.4351   25.7504 C   0  0  0  0  0  0
  -27.5585  -37.1776   24.8454 C   0  0  0  0  0  0
  -21.4219  -29.3054   22.3626 N   0  0  0  0  0  0
  -26.4279  -37.3774   23.9423 N   0  0  0  0  0  0
  -24.7053  -31.0426   22.0938 N   0  0  0  0  0  0
  -23.4184  -28.8132   23.3027 O   0  0  0  0  0  0
  -28.2948  -26.2792   20.1705 O   0  0  0  0  0  0
  -26.5650  -34.8904   22.4653 O   0  0  0  0  0  0
  -23.5499  -32.1349   23.7206 O   0  0  0  0  0  0
  -29.5047  -21.1189   18.5077 C   0  0  0  0  0  0
  -29.4480  -22.3813   17.9019 C   0  0  0  0  0  0
  -29.1765  -20.8996   19.8728 C   0  0  0  0  0  0
  -29.0236  -23.5559   18.5631 C   0  0  0  0  0  0
  -28.7402  -22.1422   20.5578 C   0  0  0  0  0  0
  -28.6481  -23.4920   19.9307 C   0  0  0  0  0  0
  -29.9234  -20.0891   17.4763 C   0  0  0  0  0  0
  -29.8748  -22.3141   16.4525 C   0  0  0  0  0  0
  -30.4458  -20.9015   16.2831 C   0  0  0  0  0  0
  -28.5466  -18.1863   19.8102 C   0  0  0  0  0  0
  -30.7275  -18.7614   20.6800 C   0  0  0  0  0  0
  -28.6955  -16.6923   20.3835 C   0  0  0  0  0  0
  -30.8362  -17.2905   21.2980 C   0  0  0  0  0  0
  -29.2966  -19.3868   20.5144 C   0  0  0  0  0  0
  -28.9578  -24.8665   17.7881 C   0  0  0  0  0  0
  -28.3528  -22.0049   22.0232 C   0  0  0  0  0  0
  -28.0760  -24.8426   20.6502 C   0  0  0  0  0  0
  -30.0618  -16.1536   20.6811 N   0  0  0  0  0  0
  -31.4510  -12.6694   19.1647 H   0  0  0  0  0  0
  -30.3796  -11.6101   20.0318 H   0  0  0  0  0  0
  -29.8187  -11.7047   17.5671 H   0  0  0  0  0  0
  -29.5825  -13.4313   17.6784 H   0  0  0  0  0  0
  -27.9472  -11.2359   18.9905 H   0  0  0  0  0  0
  -27.3704  -12.3910   17.8180 H   0  0  0  0  0  0
  -27.5444  -14.1817   19.3395 H   0  0  0  0  0  0
  -28.7507  -12.3479   21.4840 H   0  0  0  0  0  0
  -28.3678  -14.0412   21.6992 H   0  0  0  0  0  0
  -25.2745   -9.5639   22.4781 H   0  0  0  0  0  0
  -23.9975   -7.4603   22.7484 H   0  0  0  0  0  0
  -21.0830   -8.8758   19.8956 H   0  0  0  0  0  0
  -22.3698  -10.9654   19.6182 H   0  0  0  0  0  0
  -21.2001   -7.6145   23.9713 H   0  0  0  0  0  0
  -21.1479   -6.0534   25.9083 H   0  0  0  0  0  0
  -22.0600   -2.7608   23.2874 H   0  0  0  0  0  0
  -22.4038  -11.9853   22.4816 H   0  0  0  0  0  0
  -21.1043  -13.1229   22.2652 H   0  0  0  0  0  0
  -24.6566  -15.8444   20.5425 H   0  0  0  0  0  0
  -26.2734  -15.6245   20.1051 H   0  0  0  0  0  0
  -26.7229  -32.5361   23.1051 H   0  0  0  0  0  0
  -25.0062  -33.9681   25.0358 H   0  0  0  0  0  0
  -22.7356  -31.2959   21.3881 H   0  0  0  0  0  0
  -23.3772  -35.9573   23.3260 H   0  0  0  0  0  0
  -24.3571  -36.8959   22.2063 H   0  0  0  0  0  0
  -23.7202  -37.6432   23.6706 H   0  0  0  0  0  0
  -26.1272  -31.5052   20.6061 H   0  0  0  0  0  0
  -26.8606  -30.8017   22.0137 H   0  0  0  0  0  0
  -28.1337  -28.8868   21.2004 H   0  0  0  0  0  0
  -25.9546  -25.8531   19.0462 H   0  0  0  0  0  0
  -23.9696  -27.2822   19.0217 H   0  0  0  0  0  0
  -23.7834  -30.5714   19.4001 H   0  0  0  0  0  0
  -22.7723  -29.2344   19.8536 H   0  0  0  0  0  0
  -25.1299  -36.1900   25.0802 H   0  0  0  0  0  0
  -20.9981  -28.3330   24.1375 H   0  0  0  0  0  0
  -20.5707  -26.2341   23.3631 H   0  0  0  0  0  0
  -21.6656  -26.7477   22.1195 H   0  0  0  0  0  0
  -19.6924  -25.6296   21.1265 H   0  0  0  0  0  0
  -19.6687  -27.3194   20.6738 H   0  0  0  0  0  0
  -17.4208  -26.6707   21.4018 H   0  0  0  0  0  0
  -18.0318  -26.0088   22.9020 H   0  0  0  0  0  0
  -19.7943  -30.7292   24.2262 H   0  0  0  0  0  0
  -17.5026  -31.6281   24.5173 H   0  0  0  0  0  0
  -15.5360  -30.3007   23.7664 H   0  0  0  0  0  0
  -15.8679  -28.0817   22.7119 H   0  0  0  0  0  0
  -24.5896  -30.7089   25.7738 H   0  0  0  0  0  0
  -24.8896  -32.2896   26.4847 H   0  0  0  0  0  0
  -25.8014  -30.8906   27.0221 H   0  0  0  0  0  0
  -26.3001  -29.6717   24.1266 H   0  0  0  0  0  0
  -27.4041  -29.7291   25.4811 H   0  0  0  0  0  0
  -27.8885  -30.4271   23.9544 H   0  0  0  0  0  0
  -27.2658  -33.3668   26.2045 H   0  0  0  0  0  0
  -28.3877  -32.6903   25.0336 H   0  0  0  0  0  0
  -28.0716  -31.8510   26.5454 H   0  0  0  0  0  0
  -28.2558  -38.0122   24.7589 H   0  0  0  0  0  0
  -28.1139  -36.2657   24.6190 H   0  0  0  0  0  0
  -27.2307  -37.1311   25.8856 H   0  0  0  0  0  0
  -20.9416  -29.8746   21.6796 H   0  0  0  0  0  0
  -26.0154  -38.2831   24.1495 H   0  0  0  0  0  0
  -29.0406  -19.5343   17.1586 H   0  0  0  0  0  0
  -30.6762  -19.3857   17.8195 H   0  0  0  0  0  0
  -30.6183  -23.0738   16.2085 H   0  0  0  0  0  0
  -29.0039  -22.4613   15.8126 H   0  0  0  0  0  0
  -30.2194  -20.4517   15.3149 H   0  0  0  0  0  0
  -31.5320  -20.9638   16.3640 H   0  0  0  0  0  0
  -27.4853  -18.4323   19.7591 H   0  0  0  0  0  0
  -28.8705  -18.1192   18.7772 H   0  0  0  0  0  0
  -31.2441  -18.7405   19.7259 H   0  0  0  0  0  0
  -31.3186  -19.4373   21.2990 H   0  0  0  0  0  0
  -28.2395  -16.0561   19.6379 H   0  0  0  0  0  0
  -28.0992  -16.5945   21.2917 H   0  0  0  0  0  0
  -30.5196  -17.3410   22.3407 H   0  0  0  0  0  0
  -31.8961  -17.0353   21.3477 H   0  0  0  0  0  0
  -28.8790  -19.4453   21.5180 H   0  0  0  0  0  0
  -29.1249  -24.7524   16.7198 H   0  0  0  0  0  0
  -29.7108  -25.5619   18.1593 H   0  0  0  0  0  0
  -27.9748  -25.3234   17.8886 H   0  0  0  0  0  0
  -27.6371  -21.1953   22.1598 H   0  0  0  0  0  0
  -27.8849  -22.8963   22.4337 H   0  0  0  0  0  0
  -29.2362  -21.7864   22.6235 H   0  0  0  0  0  0
  -28.5129  -24.8505   21.6476 H   0  0  0  0  0  0
  -27.0123  -24.6766   20.8188 H   0  0  0  0  0  0
  1 25  1  0  0  0
  1 30  2  0  0  0
  1 88  1  0  0  0
  2  3  1  0  0  0
  2 25  1  0  0  0
  2 89  1  0  0  0
  2 90  1  0  0  0
  3  4  1  0  0  0
  3 91  1  0  0  0
  3 92  1  0  0  0
  4  5  1  0  0  0
  4 93  1  0  0  0
  4 94  1  0  0  0
  5  6  1  0  0  0
  5 26  1  0  0  0
  5 95  1  0  0  0
  6 25  1  0  0  0
  6 96  1  0  0  0
  6 97  1  0  0  0
  7  8  2  0  0  0
  7 26  1  0  0  0
  7 29  1  0  0  0
  8  9  1  0  0  0
  8 22  1  0  0  0
  9 10  1  0  0  0
  9 27  2  0  0  0
 10 11  2  0  0  0
 10 15  1  0  0  0
 11 12  1  0  0  0
 11 98  1  0  0  0
 12 13  2  0  0  0
 12 99  1  0  0  0
 13 14  1  0  0  0
 13 31  1  0  0  0
 14 15  2  0  0  0
 14100  1  0  0  0
 15101  1  0  0  0
 16 17  2  0  0  0
 16 21  1  0  0  0
 16 31  1  0  0  0
 17 18  1  0  0  0
 17102  1  0  0  0
 18 19  2  0  0  0
 18103  1  0  0  0
 19 20  1  0  0  0
 19 24  1  0  0  0
 20 21  2  0  0  0
 20104  1  0  0  0
 21 23  1  0  0  0
 22 28  1  0  0  0
 22 32  2  0  0  0
 26 27  1  0  0  0
 28105  1  0  0  0
 28106  1  0  0  0
 29107  1  0  0  0
 29108  1  0  0  0
 33 34  1  0  0  0
 33 66  1  0  0  0
 33 70  2  0  0  0
 34 36  1  0  0  0
 34 59  1  0  0  0
 34109  1  0  0  0
 35 44  2  0  0  0
 35 45  1  0  0  0
 35 68  1  0  0  0
 36 56  1  0  0  0
 36110  1  0  0  0
 37 39  1  0  0  0
 37 47  1  0  0  0
 37 66  1  0  0  0
 37111  1  0  0  0
 38 43  2  0  0  0
 38 46  1  0  0  0
 38 47  1  0  0  0
 39 64  1  0  0  0
 39 67  2  0  0  0
 40 52  1  0  0  0
 40 53  2  0  0  0
 40 58  1  0  0  0
 41112  1  0  0  0
 41113  1  0  0  0
 41114  1  0  0  0
 41 48  1  0  0  0
 42 43  1  0  0  0
 42 66  1  0  0  0
 42115  1  0  0  0
 42116  1  0  0  0
 43 44  1  0  0  0
 44117  1  0  0  0
 45 46  2  0  0  0
 45118  1  0  0  0
 46119  1  0  0  0
 47120  1  0  0  0
 47121  1  0  0  0
 48 56  1  0  0  0
 48 65  1  0  0  0
 48122  1  0  0  0
 49 50  1  0  0  0
 49 53  1  0  0  0
 49 64  1  0  0  0
 49123  1  0  0  0
 50 51  1  0  0  0
 50124  1  0  0  0
 50125  1  0  0  0
 51 52  1  0  0  0
 51126  1  0  0  0
 51127  1  0  0  0
 52128  1  0  0  0
 52129  1  0  0  0
 53 54  1  0  0  0
 54 55  2  0  0  0
 54130  1  0  0  0
 55 57  1  0  0  0
 55131  1  0  0  0
 56 69  2  0  0  0
 57 58  2  0  0  0
 57132  1  0  0  0
 58133  1  0  0  0
 59 60  1  0  0  0
 59 61  1  0  0  0
 59 62  1  0  0  0
 60134  1  0  0  0
 60135  1  0  0  0
 60136  1  0  0  0
 61137  1  0  0  0
 61138  1  0  0  0
 61139  1  0  0  0
 62140  1  0  0  0
 62141  1  0  0  0
 62142  1  0  0  0
 63 65  1  0  0  0
 63143  1  0  0  0
 63144  1  0  0  0
 63145  1  0  0  0
 64146  1  0  0  0
 65147  1  0  0  0
 68 87  1  0  0  0
 71 72  1  0  0  0
 71 73  2  0  0  0
 71 77  1  0  0  0
 72 74  2  0  0  0
 72 78  1  0  0  0
 73 75  1  0  0  0
 73 84  1  0  0  0
 74 76  1  0  0  0
 74 85  1  0  0  0
 75 76  2  0  0  0
 75 86  1  0  0  0
 76 87  1  0  0  0
 77 79  1  0  0  0
 77148  1  0  0  0
 77149  1  0  0  0
 78 79  1  0  0  0
 78150  1  0  0  0
 78151  1  0  0  0
 79152  1  0  0  0
 79153  1  0  0  0
 80 82  1  0  0  0
 80 84  1  0  0  0
 80154  1  0  0  0
 80155  1  0  0  0
 81 83  1  0  0  0
 81 84  1  0  0  0
 81156  1  0  0  0
 81157  1  0  0  0
 82 88  1  0  0  0
 82158  1  0  0  0
 82159  1  0  0  0
 83 88  1  0  0  0
 83160  1  0  0  0
 83161  1  0  0  0
 84162  1  0  0  0
 85163  1  0  0  0
 85164  1  0  0  0
 85165  1  0  0  0
 86166  1  0  0  0
 86167  1  0  0  0
 86168  1  0  0  0
 87169  1  0  0  0
 87170  1  0  0  0
M  ISO  4   1 100  68 101  87 101  88 100
M  END
> <chiral flag>
0

> <version>
0

> <s_m_source_file>
/data/baiqing/PycharmProjects/Reinvent-master-3.2/result/LINK_invent/BTK/process_docking_weight1_custom_sum_contain_oxygen_bond_distance_aromatic_linkinvent_7_9_3/rearranged_h_0166.sdf

> <i_m_source_file_index>
17

> <r_mmod_Potential_Energy-OPLS-2005>
611.554565429688

> <r_mmod_Stretch_Energy-OPLS-2005>
190.869979858398

> <r_mmod_Bend_Energy-OPLS-2005>
278.572845458984

> <r_mmod_Torsional_Energy-OPLS-2005>
345.756774902344

> <r_mmod_Improper_Torsional_Energy-OPLS-2005>
2.07199335098267

> <r_mmod_Van_der_Waal_Energy-OPLS-2005>
146.759292602539

> <r_mmod_Electrostatic_Energy-OPLS-2005>
-296.803039550781

> <r_mmod_Solvation_Energy-OPLS-2005>
-198.323303222656

> <b_mmod_Minimization_Converged-OPLS-2005>
0

> <r_mmod_RMS_Derivative-OPLS-2005>
1.49581110477448

$$$$
17
                    3D
 Structure written by MMmdl.
167177  0  0  1  0            999 V2000
  -30.6621  -14.7042   20.4739 C   0  0  0  0  0  0
  -30.4187  -12.4358   19.4683 C   0  0  0  0  0  0
  -29.4990  -12.5061   18.2324 C   0  0  0  0  0  0
  -28.0257  -12.3392   18.6471 C   0  0  0  0  0  0
  -27.6379  -13.2357   19.8527 C   0  0  2  0  0  0
  -28.6852  -13.1800   20.9867 C   0  0  0  0  0  0
  -25.2499  -13.8212   20.5730 C   0  0  0  0  0  0
  -24.1790  -13.0459   20.9206 C   0  0  0  0  0  0
  -24.6377  -11.6930   20.8744 C   0  0  0  0  0  0
  -23.9050  -10.4311   21.0391 C   0  0  0  0  0  0
  -24.3607   -9.4231   21.9167 C   0  0  0  0  0  0
  -23.6292   -8.2263   22.0742 C   0  0  0  0  0  0
  -22.4270   -8.0287   21.3537 C   0  0  0  0  0  0
  -21.9904   -9.0251   20.4629 C   0  0  0  0  0  0
  -22.7221  -10.2140   20.3038 C   0  0  0  0  0  0
  -21.6873   -6.0740   22.5265 C   0  0  0  0  0  0
  -21.4022   -6.5642   23.8194 C   0  0  0  0  0  0
  -21.3651   -5.6794   24.9152 C   0  0  0  0  0  0
  -21.6036   -4.3055   24.7216 C   0  0  0  0  0  0
  -21.8826   -3.8153   23.4340 C   0  0  0  0  0  0
  -21.9205   -4.6969   22.3391 C   0  0  0  0  0  0
  -22.7804  -13.5224   21.1869 C   0  0  0  0  0  0
  -22.1674   -4.2148   21.0974 F   0  0  0  0  0  0
  -21.5621   -3.4537   25.7736 F   0  0  0  0  0  0
  -29.9857  -13.5072   20.3949 N   0  0  0  0  0  0
  -26.2921  -12.9416   20.3316 N   0  0  0  0  0  0
  -25.9314  -11.6553   20.5777 N   0  0  0  0  0  0
  -22.0466  -12.8193   22.0421 N   0  0  0  0  0  0
  -25.4232  -15.1934   20.4190 N   0  0  0  0  0  0
  -31.8595  -14.7442   20.1746 O   0  0  0  0  0  0
  -21.6642   -6.8878   21.4229 O   0  0  0  0  0  0
  -22.3486  -14.5548   20.6747 O   0  0  0  0  0  0
  -24.6352  -31.8569   23.2024 C   0  0  0  0  0  0
  -25.9179  -32.4757   23.8357 C   0  0  1  0  0  0
  -27.2115  -27.2619   20.1213 C   0  0  0  0  0  0
  -25.5972  -33.8560   24.2267 N   0  0  0  0  0  0
  -23.4287  -30.4877   21.5484 C   0  0  2  0  0  0
  -24.8732  -28.9486   20.1060 C   0  0  0  0  0  0
  -22.7527  -29.4634   22.4933 C   0  0  0  0  0  0
  -18.0305  -28.1398   22.8494 C   0  0  0  0  0  0
  -24.1468  -36.7288   23.2639 C   0  0  0  0  0  0
  -25.9795  -30.7706   21.3844 C   0  0  0  0  0  0
  -26.0496  -29.3968   20.7207 C   0  0  0  0  0  0
  -27.2205  -28.5659   20.7231 C   0  0  0  0  0  0
  -26.0122  -26.9081   19.4507 C   0  0  0  0  0  0
  -24.8617  -27.7088   19.4596 C   0  0  0  0  0  0
  -23.6437  -29.8340   20.1602 C   0  0  0  0  0  0
  -25.4096  -36.3067   24.0322 C   0  0  1  0  0  0
  -20.5916  -28.3701   23.1254 C   0  0  2  0  0  0
  -20.6794  -26.9409   22.5409 C   0  0  0  0  0  0
  -19.5750  -26.6385   21.5232 C   0  0  0  0  0  0
  -18.1921  -26.7940   22.1642 C   0  0  0  0  0  0
  -19.1567  -28.8878   23.2857 C   0  0  0  0  0  0
  -18.9474  -30.1483   23.8860 C   0  0  0  0  0  0
  -17.6466  -30.6584   24.0579 C   0  0  0  0  0  0
  -25.9036  -34.9436   23.5082 C   0  0  0  0  0  0
  -16.5358  -29.9076   23.6354 C   0  0  0  0  0  0
  -16.7301  -28.6515   23.0357 C   0  0  0  0  0  0
  -26.4485  -31.6601   25.0767 C   0  0  0  0  0  0
  -25.3687  -31.3802   26.1495 C   0  0  0  0  0  0
  -27.0361  -30.3019   24.6280 C   0  0  0  0  0  0
  -27.6004  -32.4389   25.7542 C   0  0  0  0  0  0
  -27.5570  -37.1791   24.8455 C   0  0  0  0  0  0
  -21.4250  -29.3043   22.3641 N   0  0  0  0  0  0
  -26.4262  -37.3774   23.9408 N   0  0  0  0  0  0
  -24.7011  -31.0549   22.1009 N   0  0  0  0  0  0
  -23.4237  -28.8165   23.3017 O   0  0  0  0  0  0
  -28.2704  -26.3122   20.2155 O   0  0  0  0  0  0
  -26.5601  -34.8903   22.4651 O   0  0  0  0  0  0
  -23.5517  -32.1374   23.7333 O   0  0  0  0  0  0
  -28.8123  -21.3364   21.4794 C   0  0  0  0  0  0
  -29.4458  -20.6375   20.4080 C   0  0  0  0  0  0
  -29.7649  -21.4871   19.3097 C   0  0  0  0  0  0
  -29.4050  -22.8579   19.2368 C   0  0  0  0  0  0
  -28.4488  -22.7329   21.4192 C   0  0  0  0  0  0
  -28.6847  -23.5428   20.2576 C   0  0  0  0  0  0
  -30.4999  -21.0579   18.0617 C   0  0  0  0  0  0
  -29.8320  -23.4573   17.9174 C   0  0  0  0  0  0
  -30.4898  -22.2955   17.1411 C   0  0  0  0  0  0
  -29.8542  -18.3131   21.7770 C   0  0  0  0  0  0
  -29.0274  -18.1158   19.5352 C   0  0  0  0  0  0
  -30.4693  -16.8526   21.6932 C   0  0  0  0  0  0
  -29.6578  -16.6722   19.3990 C   0  0  0  0  0  0
  -29.8455  -19.0857   20.4299 C   0  0  0  0  0  0
  -27.7512  -23.3411   22.6259 C   0  0  0  0  0  0
  -27.8749  -24.8850   19.9534 C   0  0  0  0  0  0
  -29.9685  -15.9036   20.6454 N   0  0  0  0  0  0
  -31.4605  -12.5433   19.1625 H   0  0  0  0  0  0
  -30.3488  -11.4619   19.9537 H   0  0  0  0  0  0
  -29.7774  -11.7366   17.5108 H   0  0  0  0  0  0
  -29.6309  -13.4642   17.7280 H   0  0  0  0  0  0
  -27.8700  -11.2884   18.8966 H   0  0  0  0  0  0
  -27.3724  -12.5481   17.7989 H   0  0  0  0  0  0
  -27.6277  -14.2563   19.4725 H   0  0  0  0  0  0
  -28.7124  -12.1927   21.4481 H   0  0  0  0  0  0
  -28.4293  -13.8888   21.7767 H   0  0  0  0  0  0
  -25.2746   -9.5727   22.4733 H   0  0  0  0  0  0
  -24.0010   -7.4662   22.7461 H   0  0  0  0  0  0
  -21.0839   -8.8754   19.8928 H   0  0  0  0  0  0
  -22.3656  -10.9674   19.6151 H   0  0  0  0  0  0
  -21.2012   -7.6147   23.9697 H   0  0  0  0  0  0
  -21.1459   -6.0520   25.9050 H   0  0  0  0  0  0
  -22.0617   -2.7616   23.2834 H   0  0  0  0  0  0
  -22.4109  -11.9845   22.4769 H   0  0  0  0  0  0
  -21.1078  -13.1183   22.2642 H   0  0  0  0  0  0
  -24.6658  -15.8573   20.5341 H   0  0  0  0  0  0
  -26.2951  -15.6300   20.1472 H   0  0  0  0  0  0
  -26.7283  -32.5385   23.1128 H   0  0  0  0  0  0
  -25.0171  -33.9692   25.0459 H   0  0  0  0  0  0
  -22.7265  -31.3122   21.4137 H   0  0  0  0  0  0
  -23.3721  -35.9635   23.3311 H   0  0  0  0  0  0
  -24.3547  -36.8909   22.2042 H   0  0  0  0  0  0
  -23.7216  -37.6490   23.6681 H   0  0  0  0  0  0
  -26.1252  -31.5313   20.6165 H   0  0  0  0  0  0
  -26.8554  -30.8122   22.0202 H   0  0  0  0  0  0
  -28.1113  -28.8976   21.2372 H   0  0  0  0  0  0
  -25.8994  -25.9768   18.9217 H   0  0  0  0  0  0
  -23.9677  -27.3585   18.9627 H   0  0  0  0  0  0
  -23.7623  -30.6161   19.4090 H   0  0  0  0  0  0
  -22.7582  -29.2708   19.8566 H   0  0  0  0  0  0
  -25.1264  -36.1907   25.0813 H   0  0  0  0  0  0
  -21.0011  -28.3305   24.1369 H   0  0  0  0  0  0
  -20.5708  -26.2302   23.3628 H   0  0  0  0  0  0
  -21.6643  -26.7447   22.1167 H   0  0  0  0  0  0
  -19.6880  -25.6294   21.1263 H   0  0  0  0  0  0
  -19.6672  -27.3213   20.6771 H   0  0  0  0  0  0
  -17.4190  -26.6748   21.4015 H   0  0  0  0  0  0
  -18.0254  -26.0075   22.9018 H   0  0  0  0  0  0
  -19.7953  -30.7332   24.2164 H   0  0  0  0  0  0
  -17.5021  -31.6246   24.5198 H   0  0  0  0  0  0
  -15.5344  -30.2961   23.7699 H   0  0  0  0  0  0
  -15.8709  -28.0837   22.7049 H   0  0  0  0  0  0
  -24.5899  -30.7066   25.7896 H   0  0  0  0  0  0
  -24.8805  -32.2978   26.4791 H   0  0  0  0  0  0
  -25.7971  -30.9135   27.0373 H   0  0  0  0  0  0
  -26.2979  -29.6743   24.1269 H   0  0  0  0  0  0
  -27.3998  -29.7285   25.4815 H   0  0  0  0  0  0
  -27.8874  -30.4289   23.9586 H   0  0  0  0  0  0
  -27.2596  -33.3755   26.1979 H   0  0  0  0  0  0
  -28.3879  -32.6844   25.0406 H   0  0  0  0  0  0
  -28.0607  -31.8617   26.5570 H   0  0  0  0  0  0
  -28.2574  -38.0101   24.7526 H   0  0  0  0  0  0
  -28.1060  -36.2619   24.6264 H   0  0  0  0  0  0
  -27.2287  -37.1427   25.8856 H   0  0  0  0  0  0
  -20.9433  -29.8805   21.6877 H   0  0  0  0  0  0
  -26.0139  -38.2842   24.1457 H   0  0  0  0  0  0
  -28.5770  -20.7807   22.3740 H   0  0  0  0  0  0
  -30.0075  -20.2175   17.5770 H   0  0  0  0  0  0
  -31.5201  -20.7600   18.3074 H   0  0  0  0  0  0
  -30.5414  -24.2690   18.0891 H   0  0  0  0  0  0
  -28.9821  -23.8574   17.3667 H   0  0  0  0  0  0
  -29.9087  -22.0800   16.2429 H   0  0  0  0  0  0
  -31.4960  -22.5521   16.8081 H   0  0  0  0  0  0
  -30.4263  -18.8772   22.5145 H   0  0  0  0  0  0
  -28.8395  -18.2591   22.1736 H   0  0  0  0  0  0
  -28.0109  -18.0378   19.9235 H   0  0  0  0  0  0
  -28.9186  -18.5336   18.5350 H   0  0  0  0  0  0
  -30.3531  -16.3695   22.6641 H   0  0  0  0  0  0
  -31.5466  -16.9634   21.5537 H   0  0  0  0  0  0
  -30.5870  -16.7751   18.8317 H   0  0  0  0  0  0
  -29.0025  -16.0667   18.7716 H   0  0  0  0  0  0
  -30.8719  -19.0723   20.0651 H   0  0  0  0  0  0
  -27.8241  -22.6946   23.4994 H   0  0  0  0  0  0
  -26.6929  -23.5102   22.4266 H   0  0  0  0  0  0
  -28.2030  -24.2976   22.8917 H   0  0  0  0  0  0
  -26.9182  -24.7192   20.4505 H   0  0  0  0  0  0
  -27.6604  -24.8243   18.8887 H   0  0  0  0  0  0
  1 25  1  0  0  0
  1 30  2  0  0  0
  1 87  1  0  0  0
  2  3  1  0  0  0
  2 25  1  0  0  0
  2 88  1  0  0  0
  2 89  1  0  0  0
  3  4  1  0  0  0
  3 90  1  0  0  0
  3 91  1  0  0  0
  4  5  1  0  0  0
  4 92  1  0  0  0
  4 93  1  0  0  0
  5  6  1  0  0  0
  5 26  1  0  0  0
  5 94  1  0  0  0
  6 25  1  0  0  0
  6 95  1  0  0  0
  6 96  1  0  0  0
  7  8  2  0  0  0
  7 26  1  0  0  0
  7 29  1  0  0  0
  8  9  1  0  0  0
  8 22  1  0  0  0
  9 10  1  0  0  0
  9 27  2  0  0  0
 10 11  2  0  0  0
 10 15  1  0  0  0
 11 12  1  0  0  0
 11 97  1  0  0  0
 12 13  2  0  0  0
 12 98  1  0  0  0
 13 14  1  0  0  0
 13 31  1  0  0  0
 14 15  2  0  0  0
 14 99  1  0  0  0
 15100  1  0  0  0
 16 17  2  0  0  0
 16 21  1  0  0  0
 16 31  1  0  0  0
 17 18  1  0  0  0
 17101  1  0  0  0
 18 19  2  0  0  0
 18102  1  0  0  0
 19 20  1  0  0  0
 19 24  1  0  0  0
 20 21  2  0  0  0
 20103  1  0  0  0
 21 23  1  0  0  0
 22 28  1  0  0  0
 22 32  2  0  0  0
 26 27  1  0  0  0
 28104  1  0  0  0
 28105  1  0  0  0
 29106  1  0  0  0
 29107  1  0  0  0
 33 34  1  0  0  0
 33 66  1  0  0  0
 33 70  2  0  0  0
 34 36  1  0  0  0
 34 59  1  0  0  0
 34108  1  0  0  0
 35 44  2  0  0  0
 35 45  1  0  0  0
 35 68  1  0  0  0
 36 56  1  0  0  0
 36109  1  0  0  0
 37 39  1  0  0  0
 37 47  1  0  0  0
 37 66  1  0  0  0
 37110  1  0  0  0
 38 43  2  0  0  0
 38 46  1  0  0  0
 38 47  1  0  0  0
 39 64  1  0  0  0
 39 67  2  0  0  0
 40 52  1  0  0  0
 40 53  2  0  0  0
 40 58  1  0  0  0
 41111  1  0  0  0
 41112  1  0  0  0
 41113  1  0  0  0
 41 48  1  0  0  0
 42 43  1  0  0  0
 42 66  1  0  0  0
 42114  1  0  0  0
 42115  1  0  0  0
 43 44  1  0  0  0
 44116  1  0  0  0
 45 46  2  0  0  0
 45117  1  0  0  0
 46118  1  0  0  0
 47119  1  0  0  0
 47120  1  0  0  0
 48 56  1  0  0  0
 48 65  1  0  0  0
 48121  1  0  0  0
 49 50  1  0  0  0
 49 53  1  0  0  0
 49 64  1  0  0  0
 49122  1  0  0  0
 50 51  1  0  0  0
 50123  1  0  0  0
 50124  1  0  0  0
 51 52  1  0  0  0
 51125  1  0  0  0
 51126  1  0  0  0
 52127  1  0  0  0
 52128  1  0  0  0
 53 54  1  0  0  0
 54 55  2  0  0  0
 54129  1  0  0  0
 55 57  1  0  0  0
 55130  1  0  0  0
 56 69  2  0  0  0
 57 58  2  0  0  0
 57131  1  0  0  0
 58132  1  0  0  0
 59 60  1  0  0  0
 59 61  1  0  0  0
 59 62  1  0  0  0
 60133  1  0  0  0
 60134  1  0  0  0
 60135  1  0  0  0
 61136  1  0  0  0
 61137  1  0  0  0
 61138  1  0  0  0
 62139  1  0  0  0
 62140  1  0  0  0
 62141  1  0  0  0
 63 65  1  0  0  0
 63142  1  0  0  0
 63143  1  0  0  0
 63144  1  0  0  0
 64145  1  0  0  0
 65146  1  0  0  0
 68 86  1  0  0  0
 71 72  2  0  0  0
 71 75  1  0  0  0
 71147  1  0  0  0
 72 73  1  0  0  0
 72 84  1  0  0  0
 73 74  2  0  0  0
 73 77  1  0  0  0
 74 76  1  0  0  0
 74 78  1  0  0  0
 75 76  2  0  0  0
 75 85  1  0  0  0
 76 86  1  0  0  0
 77 79  1  0  0  0
 77148  1  0  0  0
 77149  1  0  0  0
 78 79  1  0  0  0
 78150  1  0  0  0
 78151  1  0  0  0
 79152  1  0  0  0
 79153  1  0  0  0
 80 82  1  0  0  0
 80 84  1  0  0  0
 80154  1  0  0  0
 80155  1  0  0  0
 81 83  1  0  0  0
 81 84  1  0  0  0
 81156  1  0  0  0
 81157  1  0  0  0
 82 87  1  0  0  0
 82158  1  0  0  0
 82159  1  0  0  0
 83 87  1  0  0  0
 83160  1  0  0  0
 83161  1  0  0  0
 84162  1  0  0  0
 85163  1  0  0  0
 85164  1  0  0  0
 85165  1  0  0  0
 86166  1  0  0  0
 86167  1  0  0  0
M  ISO  4   1 100  68 101  86 101  87 100
M  END
> <chiral flag>
0

> <version>
0

> <s_m_source_file>
/data/baiqing/PycharmProjects/Reinvent-master-3.2/result/LINK_invent/BTK/process_docking_weight1_custom_sum_contain_oxygen_bond_distance_aromatic_linkinvent_7_9_3/rearranged_h_0166.sdf

> <i_m_source_file_index>
18

> <r_mmod_Potential_Energy-OPLS-2005>
479.761474609375

> <r_mmod_Stretch_Energy-OPLS-2005>
112.311096191406

> <r_mmod_Bend_Energy-OPLS-2005>
227.046905517578

> <r_mmod_Torsional_Energy-OPLS-2005>
368.661834716797

> <r_mmod_Improper_Torsional_Energy-OPLS-2005>
13.5218944549561

> <r_mmod_Van_der_Waal_Energy-OPLS-2005>
149.851058959961

> <r_mmod_Electrostatic_Energy-OPLS-2005>
-285.140411376953

> <r_mmod_Solvation_Energy-OPLS-2005>
-191.810760498047

> <b_mmod_Minimization_Converged-OPLS-2005>
0

> <r_mmod_RMS_Derivative-OPLS-2005>
3.29554390907288

$$$$
18
                    3D
 Structure written by MMmdl.
164174  0  0  1  0            999 V2000
  -30.6370  -14.6127   20.5373 C   0  0  0  0  0  0
  -30.4367  -12.3898   19.4392 C   0  0  0  0  0  0
  -29.5026  -12.5199   18.2154 C   0  0  0  0  0  0
  -28.0215  -12.3683   18.6243 C   0  0  0  0  0  0
  -27.6565  -13.2093   19.8777 C   0  0  2  0  0  0
  -28.7055  -12.9931   20.9904 C   0  0  0  0  0  0
  -25.2562  -13.8154   20.5685 C   0  0  0  0  0  0
  -24.1820  -13.0427   20.9187 C   0  0  0  0  0  0
  -24.6380  -11.6897   20.8745 C   0  0  0  0  0  0
  -23.9048  -10.4286   21.0406 C   0  0  0  0  0  0
  -24.3599   -9.4204   21.9185 C   0  0  0  0  0  0
  -23.6277   -8.2238   22.0753 C   0  0  0  0  0  0
  -22.4265   -8.0274   21.3541 C   0  0  0  0  0  0
  -21.9894   -9.0249   20.4647 C   0  0  0  0  0  0
  -22.7219  -10.2130   20.3057 C   0  0  0  0  0  0
  -21.6853   -6.0726   22.5277 C   0  0  0  0  0  0
  -21.4011   -6.5632   23.8210 C   0  0  0  0  0  0
  -21.3660   -5.6788   24.9174 C   0  0  0  0  0  0
  -21.6046   -4.3049   24.7226 C   0  0  0  0  0  0
  -21.8817   -3.8139   23.4347 C   0  0  0  0  0  0
  -21.9189   -4.6954   22.3403 C   0  0  0  0  0  0
  -22.7845  -13.5232   21.1840 C   0  0  0  0  0  0
  -22.1660   -4.2138   21.0980 F   0  0  0  0  0  0
  -21.5629   -3.4535   25.7739 F   0  0  0  0  0  0
  -30.0054  -13.3953   20.4338 N   0  0  0  0  0  0
  -26.2998  -12.9322   20.3386 N   0  0  0  0  0  0
  -25.9312  -11.6482   20.5787 N   0  0  0  0  0  0
  -22.0478  -12.8242   22.0405 N   0  0  0  0  0  0
  -25.4267  -15.1866   20.4054 N   0  0  0  0  0  0
  -31.7929  -14.7432   20.1176 O   0  0  0  0  0  0
  -21.6634   -6.8870   21.4239 O   0  0  0  0  0  0
  -22.3537  -14.5539   20.6687 O   0  0  0  0  0  0
  -24.6215  -31.8615   23.2035 C   0  0  0  0  0  0
  -25.9075  -32.4783   23.8356 C   0  0  1  0  0  0
  -27.2353  -27.3548   20.1075 C   0  0  0  0  0  0
  -25.5898  -33.8584   24.2284 N   0  0  0  0  0  0
  -23.4137  -30.4828   21.5457 C   0  0  2  0  0  0
  -24.8597  -28.9354   20.1136 C   0  0  0  0  0  0
  -22.7450  -29.4623   22.4956 C   0  0  0  0  0  0
  -18.0277  -28.1385   22.8490 C   0  0  0  0  0  0
  -24.1482  -36.7305   23.2643 C   0  0  0  0  0  0
  -25.9505  -30.8011   21.3695 C   0  0  0  0  0  0
  -26.0243  -29.4305   20.7124 C   0  0  0  0  0  0
  -27.2112  -28.6498   20.6993 C   0  0  0  0  0  0
  -26.0442  -26.8895   19.5054 C   0  0  0  0  0  0
  -24.8695  -27.6685   19.5051 C   0  0  0  0  0  0
  -23.6263  -29.8127   20.1614 C   0  0  0  0  0  0
  -25.4106  -36.3092   24.0333 C   0  0  1  0  0  0
  -20.5874  -28.3676   23.1302 C   0  0  2  0  0  0
  -20.6769  -26.9406   22.5413 C   0  0  0  0  0  0
  -19.5743  -26.6388   21.5213 C   0  0  0  0  0  0
  -18.1922  -26.7932   22.1625 C   0  0  0  0  0  0
  -19.1530  -28.8849   23.2892 C   0  0  0  0  0  0
  -18.9456  -30.1453   23.8904 C   0  0  0  0  0  0
  -17.6458  -30.6589   24.0567 C   0  0  0  0  0  0
  -25.9041  -34.9456   23.5112 C   0  0  0  0  0  0
  -16.5347  -29.9090   23.6328 C   0  0  0  0  0  0
  -16.7266  -28.6508   23.0350 C   0  0  0  0  0  0
  -26.4482  -31.6594   25.0721 C   0  0  0  0  0  0
  -25.3725  -31.3716   26.1457 C   0  0  0  0  0  0
  -27.0328  -30.3022   24.6158 C   0  0  0  0  0  0
  -27.6048  -32.4330   25.7478 C   0  0  0  0  0  0
  -27.5576  -37.1807   24.8463 C   0  0  0  0  0  0
  -21.4170  -29.3033   22.3700 N   0  0  0  0  0  0
  -26.4288  -37.3781   23.9408 N   0  0  0  0  0  0
  -24.6806  -31.0654   22.0966 N   0  0  0  0  0  0
  -23.4191  -28.8165   23.3023 O   0  0  0  0  0  0
  -28.4050  -26.5951   20.1420 O   0  0  0  0  0  0
  -26.5619  -34.8922   22.4682 O   0  0  0  0  0  0
  -23.5389  -32.1398   23.7383 O   0  0  0  0  0  0
  -29.9734  -20.3523   21.3717 C   0  0  0  0  0  0
  -28.2995  -21.8172   19.6827 C   0  0  0  0  0  0
  -29.1247  -19.6156   20.5118 C   0  0  0  0  0  0
  -29.1112  -22.5528   20.5791 C   0  0  0  0  0  0
  -28.3032  -20.3903   19.6353 C   0  0  0  0  0  0
  -29.9753  -21.7767   21.4064 C   0  0  0  0  0  0
  -28.7968  -17.5086   22.0397 C   0  0  0  0  0  0
  -29.9217  -24.8661   19.6709 C   0  0  0  0  0  0
  -28.9608  -15.9851   21.8805 C   0  0  0  0  0  0
  -30.1403  -17.0890   20.1450 C   0  0  0  0  0  0
  -29.0084  -18.0495   20.6300 C   0  0  2  0  0  0
  -29.0930  -24.1071   20.6719 C   0  0  1  0  0  0
  -28.4451  -25.1838   19.7412 C   0  0  2  0  0  0
  -27.3811  -19.7177   18.6318 C   0  0  0  0  0  0
  -30.9227  -22.4658   22.3742 C   0  0  0  0  0  0
  -29.8671  -15.7434   20.7443 N   0  0  0  0  0  0
  -31.4760  -12.5203   19.1326 H   0  0  0  0  0  0
  -30.3828  -11.3849   19.8602 H   0  0  0  0  0  0
  -29.7607  -11.7732   17.4632 H   0  0  0  0  0  0
  -29.6529  -13.4920   17.7439 H   0  0  0  0  0  0
  -27.8409  -11.3119   18.8250 H   0  0  0  0  0  0
  -27.3713  -12.6339   17.7900 H   0  0  0  0  0  0
  -27.6919  -14.2564   19.5768 H   0  0  0  0  0  0
  -28.7313  -11.9389   21.2708 H   0  0  0  0  0  0
  -28.4570  -13.5007   21.9175 H   0  0  0  0  0  0
  -25.2741   -9.5681   22.4761 H   0  0  0  0  0  0
  -23.9985   -7.4631   22.7471 H   0  0  0  0  0  0
  -21.0825   -8.8766   19.8959 H   0  0  0  0  0  0
  -22.3672  -10.9667   19.6167 H   0  0  0  0  0  0
  -21.2007   -7.6140   23.9709 H   0  0  0  0  0  0
  -21.1486   -6.0519   25.9076 H   0  0  0  0  0  0
  -22.0597   -2.7601   23.2852 H   0  0  0  0  0  0
  -22.4080  -11.9905   22.4804 H   0  0  0  0  0  0
  -21.1097  -13.1288   22.2601 H   0  0  0  0  0  0
  -24.6617  -15.8430   20.5135 H   0  0  0  0  0  0
  -26.2806  -15.6226   20.0826 H   0  0  0  0  0  0
  -26.7142  -32.5463   23.1108 H   0  0  0  0  0  0
  -25.0020  -33.9736   25.0413 H   0  0  0  0  0  0
  -22.7067  -31.3025   21.4019 H   0  0  0  0  0  0
  -23.3740  -35.9643   23.3312 H   0  0  0  0  0  0
  -24.3570  -36.8918   22.2056 H   0  0  0  0  0  0
  -23.7245  -37.6513   23.6659 H   0  0  0  0  0  0
  -26.0808  -31.5670   20.6039 H   0  0  0  0  0  0
  -26.8319  -30.8476   21.9978 H   0  0  0  0  0  0
  -28.1103  -29.0298   21.1645 H   0  0  0  0  0  0
  -25.9931  -25.9190   19.0369 H   0  0  0  0  0  0
  -23.9733  -27.2817   19.0403 H   0  0  0  0  0  0
  -23.7435  -30.5875   19.4028 H   0  0  0  0  0  0
  -22.7480  -29.2389   19.8605 H   0  0  0  0  0  0
  -25.1289  -36.1949   25.0827 H   0  0  0  0  0  0
  -20.9967  -28.3244   24.1423 H   0  0  0  0  0  0
  -20.5673  -26.2284   23.3602 H   0  0  0  0  0  0
  -21.6638  -26.7444   22.1202 H   0  0  0  0  0  0
  -19.6903  -25.6301   21.1235 H   0  0  0  0  0  0
  -19.6685  -27.3206   20.6749 H   0  0  0  0  0  0
  -17.4194  -26.6683   21.4026 H   0  0  0  0  0  0
  -18.0322  -26.0074   22.9020 H   0  0  0  0  0  0
  -19.7932  -30.7270   24.2276 H   0  0  0  0  0  0
  -17.5012  -31.6270   24.5170 H   0  0  0  0  0  0
  -15.5349  -30.2996   23.7654 H   0  0  0  0  0  0
  -15.8665  -28.0833   22.7062 H   0  0  0  0  0  0
  -24.5887  -30.7087   25.7782 H   0  0  0  0  0  0
  -24.8936  -32.2880   26.4918 H   0  0  0  0  0  0
  -25.8061  -30.8863   27.0211 H   0  0  0  0  0  0
  -26.2898  -29.6769   24.1196 H   0  0  0  0  0  0
  -27.4055  -29.7285   25.4656 H   0  0  0  0  0  0
  -27.8755  -30.4329   23.9361 H   0  0  0  0  0  0
  -27.2660  -33.3622   26.2072 H   0  0  0  0  0  0
  -28.3837  -32.6906   25.0288 H   0  0  0  0  0  0
  -28.0740  -31.8449   26.5376 H   0  0  0  0  0  0
  -28.2602  -38.0098   24.7499 H   0  0  0  0  0  0
  -28.1066  -36.2629   24.6300 H   0  0  0  0  0  0
  -27.2295  -37.1471   25.8868 H   0  0  0  0  0  0
  -20.9345  -29.8757   21.6917 H   0  0  0  0  0  0
  -26.0174  -38.2859   24.1402 H   0  0  0  0  0  0
  -30.6207  -19.8105   22.0474 H   0  0  0  0  0  0
  -27.6443  -22.3642   19.0184 H   0  0  0  0  0  0
  -29.5653  -17.8823   22.7174 H   0  0  0  0  0  0
  -27.8268  -17.7859   22.4551 H   0  0  0  0  0  0
  -30.2612  -24.3332   18.7852 H   0  0  0  0  0  0
  -30.6283  -25.5922   20.0679 H   0  0  0  0  0  0
  -27.9786  -15.5718   21.6562 H   0  0  0  0  0  0
  -29.3249  -15.5242   22.8003 H   0  0  0  0  0  0
  -31.1135  -17.4371   20.4943 H   0  0  0  0  0  0
  -30.1799  -17.0363   19.0564 H   0  0  0  0  0  0
  -28.1163  -17.7527   20.0806 H   0  0  0  0  0  0
  -29.1606  -24.4083   21.7150 H   0  0  0  0  0  0
  -27.8801  -24.9143   18.8519 H   0  0  0  0  0  0
  -26.9762  -20.4347   17.9165 H   0  0  0  0  0  0
  -26.5412  -19.2425   19.1391 H   0  0  0  0  0  0
  -27.9191  -18.9603   18.0607 H   0  0  0  0  0  0
  -31.6382  -21.7643   22.8047 H   0  0  0  0  0  0
  -30.3668  -22.9200   23.1946 H   0  0  0  0  0  0
  -31.4928  -23.2458   21.8682 H   0  0  0  0  0  0
  1 25  1  0  0  0
  1 30  2  0  0  0
  1 86  1  0  0  0
  2  3  1  0  0  0
  2 25  1  0  0  0
  2 87  1  0  0  0
  2 88  1  0  0  0
  3  4  1  0  0  0
  3 89  1  0  0  0
  3 90  1  0  0  0
  4  5  1  0  0  0
  4 91  1  0  0  0
  4 92  1  0  0  0
  5  6  1  0  0  0
  5 26  1  0  0  0
  5 93  1  0  0  0
  6 25  1  0  0  0
  6 94  1  0  0  0
  6 95  1  0  0  0
  7  8  2  0  0  0
  7 26  1  0  0  0
  7 29  1  0  0  0
  8  9  1  0  0  0
  8 22  1  0  0  0
  9 10  1  0  0  0
  9 27  2  0  0  0
 10 11  2  0  0  0
 10 15  1  0  0  0
 11 12  1  0  0  0
 11 96  1  0  0  0
 12 13  2  0  0  0
 12 97  1  0  0  0
 13 14  1  0  0  0
 13 31  1  0  0  0
 14 15  2  0  0  0
 14 98  1  0  0  0
 15 99  1  0  0  0
 16 17  2  0  0  0
 16 21  1  0  0  0
 16 31  1  0  0  0
 17 18  1  0  0  0
 17100  1  0  0  0
 18 19  2  0  0  0
 18101  1  0  0  0
 19 20  1  0  0  0
 19 24  1  0  0  0
 20 21  2  0  0  0
 20102  1  0  0  0
 21 23  1  0  0  0
 22 28  1  0  0  0
 22 32  2  0  0  0
 26 27  1  0  0  0
 28103  1  0  0  0
 28104  1  0  0  0
 29105  1  0  0  0
 29106  1  0  0  0
 33 34  1  0  0  0
 33 66  1  0  0  0
 33 70  2  0  0  0
 34 36  1  0  0  0
 34 59  1  0  0  0
 34107  1  0  0  0
 35 44  2  0  0  0
 35 45  1  0  0  0
 35 68  1  0  0  0
 36 56  1  0  0  0
 36108  1  0  0  0
 37 39  1  0  0  0
 37 47  1  0  0  0
 37 66  1  0  0  0
 37109  1  0  0  0
 38 43  2  0  0  0
 38 46  1  0  0  0
 38 47  1  0  0  0
 39 64  1  0  0  0
 39 67  2  0  0  0
 40 52  1  0  0  0
 40 53  2  0  0  0
 40 58  1  0  0  0
 41110  1  0  0  0
 41111  1  0  0  0
 41112  1  0  0  0
 41 48  1  0  0  0
 42 43  1  0  0  0
 42 66  1  0  0  0
 42113  1  0  0  0
 42114  1  0  0  0
 43 44  1  0  0  0
 44115  1  0  0  0
 45 46  2  0  0  0
 45116  1  0  0  0
 46117  1  0  0  0
 47118  1  0  0  0
 47119  1  0  0  0
 48 56  1  0  0  0
 48 65  1  0  0  0
 48120  1  0  0  0
 49 50  1  0  0  0
 49 53  1  0  0  0
 49 64  1  0  0  0
 49121  1  0  0  0
 50 51  1  0  0  0
 50122  1  0  0  0
 50123  1  0  0  0
 51 52  1  0  0  0
 51124  1  0  0  0
 51125  1  0  0  0
 52126  1  0  0  0
 52127  1  0  0  0
 53 54  1  0  0  0
 54 55  2  0  0  0
 54128  1  0  0  0
 55 57  1  0  0  0
 55129  1  0  0  0
 56 69  2  0  0  0
 57 58  2  0  0  0
 57130  1  0  0  0
 58131  1  0  0  0
 59 60  1  0  0  0
 59 61  1  0  0  0
 59 62  1  0  0  0
 60132  1  0  0  0
 60133  1  0  0  0
 60134  1  0  0  0
 61135  1  0  0  0
 61136  1  0  0  0
 61137  1  0  0  0
 62138  1  0  0  0
 62139  1  0  0  0
 62140  1  0  0  0
 63 65  1  0  0  0
 63141  1  0  0  0
 63142  1  0  0  0
 63143  1  0  0  0
 64144  1  0  0  0
 65145  1  0  0  0
 68 83  1  0  0  0
 71 73  2  0  0  0
 71 76  1  0  0  0
 71146  1  0  0  0
 72 74  1  0  0  0
 72 75  2  0  0  0
 72147  1  0  0  0
 73 75  1  0  0  0
 73 81  1  0  0  0
 74 76  2  0  0  0
 74 82  1  0  0  0
 75 84  1  0  0  0
 76 85  1  0  0  0
 77 79  1  0  0  0
 77 81  1  0  0  0
 77148  1  0  0  0
 77149  1  0  0  0
 78 82  1  0  0  0
 78 83  1  0  0  0
 78150  1  0  0  0
 78151  1  0  0  0
 79 86  1  0  0  0
 79152  1  0  0  0
 79153  1  0  0  0
 80 81  1  0  0  0
 80 86  1  0  0  0
 80154  1  0  0  0
 80155  1  0  0  0
 81156  1  0  0  0
 82 83  1  0  0  0
 82157  1  0  0  0
 83158  1  0  0  0
 84159  1  0  0  0
 84160  1  0  0  0
 84161  1  0  0  0
 85162  1  0  0  0
 85163  1  0  0  0
 85164  1  0  0  0
M  ISO  4   1 100  68 101  83 101  86 100
M  END
> <chiral flag>
0

> <version>
0

> <s_m_source_file>
/data/baiqing/PycharmProjects/Reinvent-master-3.2/result/LINK_invent/BTK/process_docking_weight1_custom_sum_contain_oxygen_bond_distance_aromatic_linkinvent_7_9_3/rearranged_h_0166.sdf

> <i_m_source_file_index>
19

> <r_mmod_Potential_Energy-OPLS-2005>
255.693893432617

> <r_mmod_Stretch_Energy-OPLS-2005>
71.6061401367188

> <r_mmod_Bend_Energy-OPLS-2005>
181.371948242188

> <r_mmod_Torsional_Energy-OPLS-2005>
327.939422607422

> <r_mmod_Improper_Torsional_Energy-OPLS-2005>
11.9342527389526

> <r_mmod_Van_der_Waal_Energy-OPLS-2005>
142.143585205078

> <r_mmod_Electrostatic_Energy-OPLS-2005>
-314.140167236328

> <r_mmod_Solvation_Energy-OPLS-2005>
-198.032455444336

> <b_mmod_Minimization_Converged-OPLS-2005>
0

> <r_mmod_RMS_Derivative-OPLS-2005>
0.943814277648926

$$$$
19
                    3D
 Structure written by MMmdl.
160169  0  0  1  0            999 V2000
  -30.4892  -15.3704   20.3783 C   0  0  0  0  0  0
  -30.4140  -12.9112   19.4936 C   0  0  0  0  0  0
  -29.5222  -12.5937   18.2721 C   0  0  0  0  0  0
  -28.0870  -12.2914   18.7285 C   0  0  0  0  0  0
  -27.5983  -13.2897   19.8076 C   0  0  2  0  0  0
  -28.6376  -13.5611   20.9185 C   0  0  0  0  0  0
  -25.2354  -13.8273   20.5801 C   0  0  0  0  0  0
  -24.1715  -13.0440   20.9291 C   0  0  0  0  0  0
  -24.6391  -11.6941   20.8786 C   0  0  0  0  0  0
  -23.9096  -10.4288   21.0408 C   0  0  0  0  0  0
  -24.3636   -9.4202   21.9184 C   0  0  0  0  0  0
  -23.6307   -8.2242   22.0755 C   0  0  0  0  0  0
  -22.4288   -8.0283   21.3550 C   0  0  0  0  0  0
  -21.9938   -9.0247   20.4644 C   0  0  0  0  0  0
  -22.7272  -10.2121   20.3055 C   0  0  0  0  0  0
  -21.6857   -6.0732   22.5267 C   0  0  0  0  0  0
  -21.4031   -6.5638   23.8200 C   0  0  0  0  0  0
  -21.3676   -5.6789   24.9164 C   0  0  0  0  0  0
  -21.6048   -4.3046   24.7217 C   0  0  0  0  0  0
  -21.8806   -3.8142   23.4331 C   0  0  0  0  0  0
  -21.9184   -4.6959   22.3391 C   0  0  0  0  0  0
  -22.7722  -13.5181   21.1896 C   0  0  0  0  0  0
  -22.1645   -4.2142   21.0967 F   0  0  0  0  0  0
  -21.5638   -3.4534   25.7736 F   0  0  0  0  0  0
  -29.8279  -14.1042   20.2323 N   0  0  0  0  0  0
  -26.2787  -12.9574   20.3236 N   0  0  0  0  0  0
  -25.9339  -11.6658   20.5737 N   0  0  0  0  0  0
  -22.0368  -12.8180   22.0455 N   0  0  0  0  0  0
  -25.3949  -15.2017   20.4273 N   0  0  0  0  0  0
  -31.7173  -15.1732   20.3277 O   0  0  0  0  0  0
  -21.6658   -6.8878   21.4233 O   0  0  0  0  0  0
  -22.3414  -14.5468   20.6698 O   0  0  0  0  0  0
  -24.6691  -31.8171   23.1651 C   0  0  0  0  0  0
  -25.9350  -32.4551   23.8136 C   0  0  1  0  0  0
  -27.2147  -26.8605   20.1866 C   0  0  0  0  0  0
  -25.5979  -33.8370   24.2040 N   0  0  0  0  0  0
  -23.4878  -30.4275   21.5151 C   0  0  2  0  0  0
  -24.9413  -28.8010   20.1146 C   0  0  0  0  0  0
  -22.7700  -29.4413   22.4747 C   0  0  0  0  0  0
  -18.0325  -28.1415   22.8459 C   0  0  0  0  0  0
  -24.1493  -36.7193   23.2648 C   0  0  0  0  0  0
  -26.0612  -30.6028   21.4043 C   0  0  0  0  0  0
  -26.1282  -29.1844   20.7502 C   0  0  0  0  0  0
  -27.2591  -28.2369   20.7598 C   0  0  0  0  0  0
  -25.9972  -26.6475   19.5019 C   0  0  0  0  0  0
  -24.9037  -27.5551   19.4694 C   0  0  0  0  0  0
  -23.7324  -29.7384   20.1442 C   0  0  0  0  0  0
  -25.4133  -36.2947   24.0296 C   0  0  1  0  0  0
  -20.5963  -28.3763   23.1169 C   0  0  2  0  0  0
  -20.6803  -26.9436   22.5400 C   0  0  0  0  0  0
  -19.5775  -26.6375   21.5209 C   0  0  0  0  0  0
  -18.1956  -26.7942   22.1623 C   0  0  0  0  0  0
  -19.1593  -28.8904   23.2805 C   0  0  0  0  0  0
  -18.9502  -30.1495   23.8847 C   0  0  0  0  0  0
  -17.6491  -30.6601   24.0554 C   0  0  0  0  0  0
  -25.9103  -34.9333   23.4996 C   0  0  0  0  0  0
  -16.5380  -29.9088   23.6348 C   0  0  0  0  0  0
  -16.7302  -28.6513   23.0353 C   0  0  0  0  0  0
  -26.4566  -31.6520   25.0696 C   0  0  0  0  0  0
  -25.3664  -31.3794   26.1331 C   0  0  0  0  0  0
  -27.0461  -30.2874   24.6466 C   0  0  0  0  0  0
  -27.6055  -32.4330   25.7505 C   0  0  0  0  0  0
  -27.5571  -37.1746   24.8458 C   0  0  0  0  0  0
  -21.4364  -29.3045   22.3507 N   0  0  0  0  0  0
  -26.4267  -37.3700   23.9420 N   0  0  0  0  0  0
  -24.7615  -30.9776   22.0814 N   0  0  0  0  0  0
  -23.4218  -28.7980   23.3012 O   0  0  0  0  0  0
  -28.1972  -25.7132   20.2465 O   0  0  0  0  0  0
  -26.5725  -34.8882   22.4600 O   0  0  0  0  0  0
  -23.5750  -32.1167   23.6708 O   0  0  0  0  0  0
  -30.6257  -20.0739   19.9135 C   0  0  0  0  0  0
  -29.3025  -19.7799   20.2734 C   0  0  0  0  0  0
  -31.0788  -21.4334   19.7561 C   0  0  0  0  0  0
  -28.4440  -21.0694   20.3843 C   0  0  0  0  0  0
  -30.2220  -22.6029   19.8078 C   0  0  0  0  0  0
  -28.8367  -22.5575   20.1578 C   0  0  0  0  0  0
  -31.5579  -18.8513   19.7167 C   0  0  0  0  0  0
  -29.0483  -18.0620   20.5384 C   0  0  0  0  0  0
  -30.8843  -17.5555   19.1349 C   0  0  0  0  0  0
  -32.5831  -21.6319   19.5458 C   0  0  0  0  0  0
  -26.9928  -20.8414   20.7545 C   0  0  0  0  0  0
  -30.8034  -23.9672   19.4413 C   0  0  0  0  0  0
  -27.8736  -24.0651   20.1599 C   0  0  0  0  0  0
  -30.0090  -16.7853   20.0638 N   0  0  0  0  0  0
  -31.4248  -13.1085   19.1341 H   0  0  0  0  0  0
  -30.5034  -12.0412   20.1472 H   0  0  0  0  0  0
  -29.9278  -11.7558   17.7038 H   0  0  0  0  0  0
  -29.5180  -13.4518   17.5978 H   0  0  0  0  0  0
  -28.0778  -11.2808   19.1394 H   0  0  0  0  0  0
  -27.4063  -12.2817   17.8762 H   0  0  0  0  0  0
  -27.4809  -14.2306   19.2689 H   0  0  0  0  0  0
  -28.8533  -12.6653   21.5016 H   0  0  0  0  0  0
  -28.2570  -14.3078   21.6176 H   0  0  0  0  0  0
  -25.2764   -9.5709   22.4770 H   0  0  0  0  0  0
  -24.0011   -7.4653   22.7493 H   0  0  0  0  0  0
  -21.0861   -8.8770   19.8956 H   0  0  0  0  0  0
  -22.3714  -10.9664   19.6174 H   0  0  0  0  0  0
  -21.2039   -7.6150   23.9705 H   0  0  0  0  0  0
  -21.1522   -6.0524   25.9068 H   0  0  0  0  0  0
  -22.0578   -2.7607   23.2820 H   0  0  0  0  0  0
  -22.4017  -11.9895   22.4912 H   0  0  0  0  0  0
  -21.0963  -13.1179   22.2612 H   0  0  0  0  0  0
  -24.6273  -15.8515   20.5607 H   0  0  0  0  0  0
  -26.2414  -15.6494   20.1006 H   0  0  0  0  0  0
  -26.7418  -32.5079   23.0851 H   0  0  0  0  0  0
  -25.0057  -33.9430   25.0132 H   0  0  0  0  0  0
  -22.8046  -31.2621   21.3387 H   0  0  0  0  0  0
  -23.3782  -35.9496   23.3251 H   0  0  0  0  0  0
  -24.3574  -36.8908   22.2076 H   0  0  0  0  0  0
  -23.7222  -37.6345   23.6747 H   0  0  0  0  0  0
  -26.2447  -31.3386   20.6203 H   0  0  0  0  0  0
  -26.9205  -30.6652   22.0603 H   0  0  0  0  0  0
  -28.1574  -28.5295   21.2847 H   0  0  0  0  0  0
  -25.8514  -25.6998   19.0048 H   0  0  0  0  0  0
  -24.0019  -27.2553   18.9527 H   0  0  0  0  0  0
  -23.9003  -30.5047   19.3861 H   0  0  0  0  0  0
  -22.8398  -29.1998   19.8202 H   0  0  0  0  0  0
  -25.1336  -36.1725   25.0784 H   0  0  0  0  0  0
  -21.0049  -28.3381   24.1293 H   0  0  0  0  0  0
  -20.5676  -26.2381   23.3649 H   0  0  0  0  0  0
  -21.6665  -26.7399   22.1217 H   0  0  0  0  0  0
  -19.6933  -25.6266   21.1280 H   0  0  0  0  0  0
  -19.6718  -27.3154   20.6712 H   0  0  0  0  0  0
  -17.4226  -26.6679   21.4026 H   0  0  0  0  0  0
  -18.0361  -26.0100   22.9040 H   0  0  0  0  0  0
  -19.7979  -30.7319   24.2206 H   0  0  0  0  0  0
  -17.5042  -31.6272   24.5177 H   0  0  0  0  0  0
  -15.5375  -30.2965   23.7701 H   0  0  0  0  0  0
  -15.8713  -28.0808   22.7085 H   0  0  0  0  0  0
  -24.5837  -30.7164   25.7624 H   0  0  0  0  0  0
  -24.8855  -32.3002   26.4645 H   0  0  0  0  0  0
  -25.7858  -30.9010   27.0189 H   0  0  0  0  0  0
  -26.3116  -29.6525   24.1492 H   0  0  0  0  0  0
  -27.3985  -29.7283   25.5145 H   0  0  0  0  0  0
  -27.9074  -30.4047   23.9890 H   0  0  0  0  0  0
  -27.2615  -33.3666   26.1977 H   0  0  0  0  0  0
  -28.3923  -32.6830   25.0374 H   0  0  0  0  0  0
  -28.0654  -31.8514   26.5507 H   0  0  0  0  0  0
  -28.2543  -38.0088   24.7548 H   0  0  0  0  0  0
  -28.1112  -36.2613   24.6225 H   0  0  0  0  0  0
  -27.2294  -37.1326   25.8861 H   0  0  0  0  0  0
  -20.9622  -29.8711   21.6607 H   0  0  0  0  0  0
  -26.0107  -38.2750   24.1447 H   0  0  0  0  0  0
  -32.0489  -18.6205   20.6631 H   0  0  0  0  0  0
  -32.3540  -19.1160   19.0218 H   0  0  0  0  0  0
  -28.0590  -17.8426   20.1354 H   0  0  0  0  0  0
  -28.9358  -17.9519   21.6181 H   0  0  0  0  0  0
  -31.6732  -16.9306   18.7164 H   0  0  0  0  0  0
  -30.2920  -17.8318   18.2619 H   0  0  0  0  0  0
  -33.1583  -20.9121   20.1288 H   0  0  0  0  0  0
  -32.9388  -22.6019   19.8890 H   0  0  0  0  0  0
  -32.8493  -21.5135   18.4951 H   0  0  0  0  0  0
  -26.8120  -19.8069   21.0475 H   0  0  0  0  0  0
  -26.3440  -21.0703   19.9093 H   0  0  0  0  0  0
  -26.7055  -21.4778   21.5917 H   0  0  0  0  0  0
  -31.6091  -23.8913   18.7118 H   0  0  0  0  0  0
  -31.1800  -24.4776   20.3274 H   0  0  0  0  0  0
  -30.0669  -24.6088   18.9603 H   0  0  0  0  0  0
  -27.1144  -23.9016   20.9254 H   0  0  0  0  0  0
  -27.3256  -23.9720   19.2222 H   0  0  0  0  0  0
  1 25  1  0  0  0
  1 30  2  0  0  0
  1 84  1  0  0  0
  2  3  1  0  0  0
  2 25  1  0  0  0
  2 85  1  0  0  0
  2 86  1  0  0  0
  3  4  1  0  0  0
  3 87  1  0  0  0
  3 88  1  0  0  0
  4  5  1  0  0  0
  4 89  1  0  0  0
  4 90  1  0  0  0
  5  6  1  0  0  0
  5 26  1  0  0  0
  5 91  1  0  0  0
  6 25  1  0  0  0
  6 92  1  0  0  0
  6 93  1  0  0  0
  7  8  2  0  0  0
  7 26  1  0  0  0
  7 29  1  0  0  0
  8  9  1  0  0  0
  8 22  1  0  0  0
  9 10  1  0  0  0
  9 27  2  0  0  0
 10 11  2  0  0  0
 10 15  1  0  0  0
 11 12  1  0  0  0
 11 94  1  0  0  0
 12 13  2  0  0  0
 12 95  1  0  0  0
 13 14  1  0  0  0
 13 31  1  0  0  0
 14 15  2  0  0  0
 14 96  1  0  0  0
 15 97  1  0  0  0
 16 17  2  0  0  0
 16 21  1  0  0  0
 16 31  1  0  0  0
 17 18  1  0  0  0
 17 98  1  0  0  0
 18 19  2  0  0  0
 18 99  1  0  0  0
 19 20  1  0  0  0
 19 24  1  0  0  0
 20 21  2  0  0  0
 20100  1  0  0  0
 21 23  1  0  0  0
 22 28  1  0  0  0
 22 32  2  0  0  0
 26 27  1  0  0  0
 28101  1  0  0  0
 28102  1  0  0  0
 29103  1  0  0  0
 29104  1  0  0  0
 33 34  1  0  0  0
 33 66  1  0  0  0
 33 70  2  0  0  0
 34 36  1  0  0  0
 34 59  1  0  0  0
 34105  1  0  0  0
 35 44  2  0  0  0
 35 45  1  0  0  0
 35 68  1  0  0  0
 36 56  1  0  0  0
 36106  1  0  0  0
 37 39  1  0  0  0
 37 47  1  0  0  0
 37 66  1  0  0  0
 37107  1  0  0  0
 38 43  2  0  0  0
 38 46  1  0  0  0
 38 47  1  0  0  0
 39 64  1  0  0  0
 39 67  2  0  0  0
 40 52  1  0  0  0
 40 53  2  0  0  0
 40 58  1  0  0  0
 41108  1  0  0  0
 41109  1  0  0  0
 41110  1  0  0  0
 41 48  1  0  0  0
 42 43  1  0  0  0
 42 66  1  0  0  0
 42111  1  0  0  0
 42112  1  0  0  0
 43 44  1  0  0  0
 44113  1  0  0  0
 45 46  2  0  0  0
 45114  1  0  0  0
 46115  1  0  0  0
 47116  1  0  0  0
 47117  1  0  0  0
 48 56  1  0  0  0
 48 65  1  0  0  0
 48118  1  0  0  0
 49 50  1  0  0  0
 49 53  1  0  0  0
 49 64  1  0  0  0
 49119  1  0  0  0
 50 51  1  0  0  0
 50120  1  0  0  0
 50121  1  0  0  0
 51 52  1  0  0  0
 51122  1  0  0  0
 51123  1  0  0  0
 52124  1  0  0  0
 52125  1  0  0  0
 53 54  1  0  0  0
 54 55  2  0  0  0
 54126  1  0  0  0
 55 57  1  0  0  0
 55127  1  0  0  0
 56 69  2  0  0  0
 57 58  2  0  0  0
 57128  1  0  0  0
 58129  1  0  0  0
 59 60  1  0  0  0
 59 61  1  0  0  0
 59 62  1  0  0  0
 60130  1  0  0  0
 60131  1  0  0  0
 60132  1  0  0  0
 61133  1  0  0  0
 61134  1  0  0  0
 61135  1  0  0  0
 62136  1  0  0  0
 62137  1  0  0  0
 62138  1  0  0  0
 63 65  1  0  0  0
 63139  1  0  0  0
 63140  1  0  0  0
 63141  1  0  0  0
 64142  1  0  0  0
 65143  1  0  0  0
 68 83  1  0  0  0
 71 72  1  0  0  0
 71 73  2  0  0  0
 71 77  1  0  0  0
 72 74  2  0  0  0
 72 78  1  0  0  0
 73 75  1  0  0  0
 73 80  1  0  0  0
 74 76  1  0  0  0
 74 81  1  0  0  0
 75 76  2  0  0  0
 75 82  1  0  0  0
 76 83  1  0  0  0
 77 79  1  0  0  0
 77144  1  0  0  0
 77145  1  0  0  0
 78 84  1  0  0  0
 78146  1  0  0  0
 78147  1  0  0  0
 79 84  1  0  0  0
 79148  1  0  0  0
 79149  1  0  0  0
 80150  1  0  0  0
 80151  1  0  0  0
 80152  1  0  0  0
 81153  1  0  0  0
 81154  1  0  0  0
 81155  1  0  0  0
 82156  1  0  0  0
 82157  1  0  0  0
 82158  1  0  0  0
 83159  1  0  0  0
 83160  1  0  0  0
M  ISO  4   1 100  68 101  83 101  84 100
M  END
> <chiral flag>
0

> <version>
0

> <s_m_source_file>
/data/baiqing/PycharmProjects/Reinvent-master-3.2/result/LINK_invent/BTK/process_docking_weight1_custom_sum_contain_oxygen_bond_distance_aromatic_linkinvent_7_9_3/rearranged_h_0166.sdf

> <i_m_source_file_index>
20

> <r_mmod_Potential_Energy-OPLS-2005>
1668.14367675781

> <r_mmod_Stretch_Energy-OPLS-2005>
672.881958007812

> <r_mmod_Bend_Energy-OPLS-2005>
480.705444335938

> <r_mmod_Torsional_Energy-OPLS-2005>
301.033233642578

> <r_mmod_Improper_Torsional_Energy-OPLS-2005>
21.5810661315918

> <r_mmod_Van_der_Waal_Energy-OPLS-2005>
152.519348144531

> <r_mmod_Electrostatic_Energy-OPLS-2005>
-327.938629150391

> <r_mmod_Solvation_Energy-OPLS-2005>
-203.409484863281

> <b_mmod_Minimization_Converged-OPLS-2005>
0

> <r_mmod_RMS_Derivative-OPLS-2005>
2.33322858810425

$$$$
20
                    3D
 Structure written by MMmdl.
164174  0  0  1  0            999 V2000
  -30.6548  -14.5983   20.4993 C   0  0  0  0  0  0
  -30.4211  -12.3683   19.4482 C   0  0  0  0  0  0
  -29.4972  -12.4901   18.2186 C   0  0  0  0  0  0
  -28.0144  -12.3585   18.6218 C   0  0  0  0  0  0
  -27.6441  -13.2201   19.8610 C   0  0  2  0  0  0
  -28.6899  -13.0841   20.9882 C   0  0  0  0  0  0
  -25.2514  -13.8166   20.5700 C   0  0  0  0  0  0
  -24.1802  -13.0444   20.9215 C   0  0  0  0  0  0
  -24.6364  -11.6901   20.8758 C   0  0  0  0  0  0
  -23.9032  -10.4296   21.0395 C   0  0  0  0  0  0
  -24.3583   -9.4211   21.9166 C   0  0  0  0  0  0
  -23.6280   -8.2239   22.0749 C   0  0  0  0  0  0
  -22.4262   -8.0261   21.3543 C   0  0  0  0  0  0
  -21.9877   -9.0226   20.4647 C   0  0  0  0  0  0
  -22.7198  -10.2119   20.3046 C   0  0  0  0  0  0
  -21.6861   -6.0719   22.5286 C   0  0  0  0  0  0
  -21.4023   -6.5629   23.8222 C   0  0  0  0  0  0
  -21.3675   -5.6785   24.9180 C   0  0  0  0  0  0
  -21.6048   -4.3042   24.7222 C   0  0  0  0  0  0
  -21.8826   -3.8143   23.4350 C   0  0  0  0  0  0
  -21.9198   -4.6957   22.3409 C   0  0  0  0  0  0
  -22.7829  -13.5247   21.1845 C   0  0  0  0  0  0
  -22.1655   -4.2154   21.0980 F   0  0  0  0  0  0
  -21.5633   -3.4516   25.7725 F   0  0  0  0  0  0
  -30.0000  -13.4017   20.4112 N   0  0  0  0  0  0
  -26.2943  -12.9366   20.3340 N   0  0  0  0  0  0
  -25.9295  -11.6522   20.5779 N   0  0  0  0  0  0
  -22.0445  -12.8282   22.0422 N   0  0  0  0  0  0
  -25.4162  -15.1902   20.4089 N   0  0  0  0  0  0
  -31.8602  -14.6815   20.2348 O   0  0  0  0  0  0
  -21.6651   -6.8850   21.4236 O   0  0  0  0  0  0
  -22.3533  -14.5539   20.6657 O   0  0  0  0  0  0
  -24.6258  -31.8642   23.2071 C   0  0  0  0  0  0
  -25.9105  -32.4807   23.8405 C   0  0  1  0  0  0
  -27.1909  -27.3144   20.0997 C   0  0  0  0  0  0
  -25.5914  -33.8616   24.2323 N   0  0  0  0  0  0
  -23.4152  -30.4929   21.5525 C   0  0  2  0  0  0
  -24.8532  -28.9570   20.1075 C   0  0  0  0  0  0
  -22.7491  -29.4640   22.4959 C   0  0  0  0  0  0
  -18.0281  -28.1386   22.8484 C   0  0  0  0  0  0
  -24.1490  -36.7297   23.2630 C   0  0  0  0  0  0
  -25.9613  -30.7891   21.3823 C   0  0  0  0  0  0
  -26.0267  -29.4198   20.7173 C   0  0  0  0  0  0
  -27.2008  -28.6096   20.7036 C   0  0  0  0  0  0
  -25.9935  -26.9128   19.4625 C   0  0  0  0  0  0
  -24.8399  -27.7119   19.4686 C   0  0  0  0  0  0
  -23.6257  -29.8405   20.1639 C   0  0  0  0  0  0
  -25.4110  -36.3095   24.0332 C   0  0  1  0  0  0
  -20.5894  -28.3684   23.1286 C   0  0  2  0  0  0
  -20.6778  -26.9415   22.5402 C   0  0  0  0  0  0
  -19.5739  -26.6382   21.5219 C   0  0  0  0  0  0
  -18.1925  -26.7924   22.1635 C   0  0  0  0  0  0
  -19.1540  -28.8856   23.2877 C   0  0  0  0  0  0
  -18.9467  -30.1457   23.8901 C   0  0  0  0  0  0
  -17.6470  -30.6594   24.0562 C   0  0  0  0  0  0
  -25.9053  -34.9460   23.5122 C   0  0  0  0  0  0
  -16.5357  -29.9099   23.6323 C   0  0  0  0  0  0
  -16.7273  -28.6505   23.0366 C   0  0  0  0  0  0
  -26.4501  -31.6602   25.0760 C   0  0  0  0  0  0
  -25.3731  -31.3746   26.1480 C   0  0  0  0  0  0
  -27.0350  -30.3017   24.6221 C   0  0  0  0  0  0
  -27.6082  -32.4331   25.7510 C   0  0  0  0  0  0
  -27.5579  -37.1795   24.8463 C   0  0  0  0  0  0
  -21.4210  -29.3030   22.3696 N   0  0  0  0  0  0
  -26.4287  -37.3781   23.9414 N   0  0  0  0  0  0
  -24.6862  -31.0671   22.1019 N   0  0  0  0  0  0
  -23.4230  -28.8166   23.3013 O   0  0  0  0  0  0
  -28.3048  -26.4649   20.1240 O   0  0  0  0  0  0
  -26.5640  -34.8911   22.4703 O   0  0  0  0  0  0
  -23.5419  -32.1444   23.7392 O   0  0  0  0  0  0
  -29.1669  -21.3432   20.0634 C   0  0  0  0  0  0
  -28.7153  -20.3330   17.8995 C   0  0  0  0  0  0
  -29.0233  -20.1414   19.2701 C   0  0  0  0  0  0
  -29.0755  -22.6136   19.3882 C   0  0  0  0  0  0
  -28.8876  -22.6012   18.0192 C   0  0  0  0  0  0
  -30.1281  -17.8020   18.8635 C   0  0  0  0  0  0
  -29.4142  -18.1738   21.1578 C   0  0  0  0  0  0
  -29.8310  -16.2878   18.9442 C   0  0  0  0  0  0
  -29.3101  -16.6009   21.3734 C   0  0  0  0  0  0
  -29.8124  -24.5941   18.3746 C   0  0  0  0  0  0
  -29.1208  -18.6245   19.7020 C   0  0  0  0  0  0
  -29.3412  -24.1011   19.7742 C   0  0  2  0  0  0
  -30.4223  -24.2579   20.8498 C   0  0  0  0  0  0
  -28.0888  -24.9957   20.1407 C   0  0  0  0  0  0
  -28.6624  -21.5216   17.2654 N   0  0  0  0  0  0
  -29.8754  -15.7163   20.3065 N   0  0  0  0  0  0
  -29.1071  -23.8006   17.4126 O   0  0  0  0  0  0
  -31.4643  -12.4835   19.1466 H   0  0  0  0  0  0
  -30.3418  -11.3749   19.8931 H   0  0  0  0  0  0
  -29.7475  -11.7257   17.4823 H   0  0  0  0  0  0
  -29.6631  -13.4517   17.7313 H   0  0  0  0  0  0
  -27.8238  -11.3053   18.8297 H   0  0  0  0  0  0
  -27.3699  -12.6242   17.7811 H   0  0  0  0  0  0
  -27.6510  -14.2545   19.5247 H   0  0  0  0  0  0
  -28.6899  -12.0710   21.3924 H   0  0  0  0  0  0
  -28.4512  -13.7524   21.8181 H   0  0  0  0  0  0
  -25.2702   -9.5734   22.4764 H   0  0  0  0  0  0
  -24.0006   -7.4647   22.7476 H   0  0  0  0  0  0
  -21.0810   -8.8720   19.8959 H   0  0  0  0  0  0
  -22.3605  -10.9644   19.6182 H   0  0  0  0  0  0
  -21.2000   -7.6134   23.9729 H   0  0  0  0  0  0
  -21.1504   -6.0501   25.9088 H   0  0  0  0  0  0
  -22.0590   -2.7604   23.2842 H   0  0  0  0  0  0
  -22.4006  -11.9942   22.4857 H   0  0  0  0  0  0
  -21.1073  -13.1365   22.2576 H   0  0  0  0  0  0
  -24.6380  -15.8335   20.5045 H   0  0  0  0  0  0
  -26.2635  -15.6367   20.0849 H   0  0  0  0  0  0
  -26.7184  -32.5477   23.1169 H   0  0  0  0  0  0
  -25.0034  -33.9819   25.0442 H   0  0  0  0  0  0
  -22.7010  -31.3088   21.4197 H   0  0  0  0  0  0
  -23.3751  -35.9628   23.3294 H   0  0  0  0  0  0
  -24.3563  -36.8923   22.2040 H   0  0  0  0  0  0
  -23.7259  -37.6500   23.6660 H   0  0  0  0  0  0
  -26.1068  -31.5525   20.6160 H   0  0  0  0  0  0
  -26.8365  -30.8280   22.0195 H   0  0  0  0  0  0
  -28.1039  -28.9562   21.1866 H   0  0  0  0  0  0
  -25.8968  -25.9835   18.9289 H   0  0  0  0  0  0
  -23.9458  -27.3635   18.9680 H   0  0  0  0  0  0
  -23.7418  -30.6203   19.4110 H   0  0  0  0  0  0
  -22.7429  -29.2755   19.8629 H   0  0  0  0  0  0
  -25.1293  -36.1933   25.0826 H   0  0  0  0  0  0
  -20.9992  -28.3255   24.1405 H   0  0  0  0  0  0
  -20.5697  -26.2312   23.3612 H   0  0  0  0  0  0
  -21.6647  -26.7464   22.1183 H   0  0  0  0  0  0
  -19.6901  -25.6295   21.1245 H   0  0  0  0  0  0
  -19.6658  -27.3201   20.6756 H   0  0  0  0  0  0
  -17.4201  -26.6678   21.4036 H   0  0  0  0  0  0
  -18.0307  -26.0078   22.9039 H   0  0  0  0  0  0
  -19.7952  -30.7259   24.2285 H   0  0  0  0  0  0
  -17.5033  -31.6270   24.5164 H   0  0  0  0  0  0
  -15.5364  -30.3014   23.7635 H   0  0  0  0  0  0
  -15.8667  -28.0817   22.7116 H   0  0  0  0  0  0
  -24.5906  -30.7109   25.7787 H   0  0  0  0  0  0
  -24.8927  -32.2925   26.4875 H   0  0  0  0  0  0
  -25.8023  -30.8924   27.0271 H   0  0  0  0  0  0
  -26.2939  -29.6755   24.1244 H   0  0  0  0  0  0
  -27.4046  -29.7275   25.4724 H   0  0  0  0  0  0
  -27.8807  -30.4292   23.9466 H   0  0  0  0  0  0
  -27.2727  -33.3651   26.2066 H   0  0  0  0  0  0
  -28.3885  -32.6863   25.0325 H   0  0  0  0  0  0
  -28.0758  -31.8473   26.5430 H   0  0  0  0  0  0
  -28.2598  -38.0092   24.7520 H   0  0  0  0  0  0
  -28.1088  -36.2630   24.6281 H   0  0  0  0  0  0
  -27.2305  -37.1426   25.8869 H   0  0  0  0  0  0
  -20.9393  -29.8761   21.6916 H   0  0  0  0  0  0
  -26.0166  -38.2850   24.1422 H   0  0  0  0  0  0
  -29.3788  -21.2875   21.1208 H   0  0  0  0  0  0
  -28.5332  -19.4837   17.2575 H   0  0  0  0  0  0
  -30.1039  -18.0716   17.8095 H   0  0  0  0  0  0
  -31.1506  -18.0023   19.1902 H   0  0  0  0  0  0
  -30.4104  -18.5124   21.4458 H   0  0  0  0  0  0
  -28.7237  -18.6699   21.8410 H   0  0  0  0  0  0
  -30.5229  -15.7621   18.2818 H   0  0  0  0  0  0
  -28.8398  -16.0907   18.5362 H   0  0  0  0  0  0
  -28.2525  -16.3429   21.4622 H   0  0  0  0  0  0
  -29.7452  -16.3385   22.3404 H   0  0  0  0  0  0
  -30.8747  -24.3858   18.2330 H   0  0  0  0  0  0
  -29.6749  -25.6601   18.1992 H   0  0  0  0  0  0
  -28.1272  -18.2420   19.4619 H   0  0  0  0  0  0
  -31.3580  -23.7846   20.5543 H   0  0  0  0  0  0
  -30.1026  -23.8258   21.7976 H   0  0  0  0  0  0
  -30.6289  -25.3153   21.0220 H   0  0  0  0  0  0
  -27.7177  -24.7163   21.1271 H   0  0  0  0  0  0
  -27.3212  -24.6910   19.4372 H   0  0  0  0  0  0
  1 25  1  0  0  0
  1 30  2  0  0  0
  1 86  1  0  0  0
  2  3  1  0  0  0
  2 25  1  0  0  0
  2 88  1  0  0  0
  2 89  1  0  0  0
  3  4  1  0  0  0
  3 90  1  0  0  0
  3 91  1  0  0  0
  4  5  1  0  0  0
  4 92  1  0  0  0
  4 93  1  0  0  0
  5  6  1  0  0  0
  5 26  1  0  0  0
  5 94  1  0  0  0
  6 25  1  0  0  0
  6 95  1  0  0  0
  6 96  1  0  0  0
  7  8  2  0  0  0
  7 26  1  0  0  0
  7 29  1  0  0  0
  8  9  1  0  0  0
  8 22  1  0  0  0
  9 10  1  0  0  0
  9 27  2  0  0  0
 10 11  2  0  0  0
 10 15  1  0  0  0
 11 12  1  0  0  0
 11 97  1  0  0  0
 12 13  2  0  0  0
 12 98  1  0  0  0
 13 14  1  0  0  0
 13 31  1  0  0  0
 14 15  2  0  0  0
 14 99  1  0  0  0
 15100  1  0  0  0
 16 17  2  0  0  0
 16 21  1  0  0  0
 16 31  1  0  0  0
 17 18  1  0  0  0
 17101  1  0  0  0
 18 19  2  0  0  0
 18102  1  0  0  0
 19 20  1  0  0  0
 19 24  1  0  0  0
 20 21  2  0  0  0
 20103  1  0  0  0
 21 23  1  0  0  0
 22 28  1  0  0  0
 22 32  2  0  0  0
 26 27  1  0  0  0
 28104  1  0  0  0
 28105  1  0  0  0
 29106  1  0  0  0
 29107  1  0  0  0
 33 34  1  0  0  0
 33 66  1  0  0  0
 33 70  2  0  0  0
 34 36  1  0  0  0
 34 59  1  0  0  0
 34108  1  0  0  0
 35 44  2  0  0  0
 35 45  1  0  0  0
 35 68  1  0  0  0
 36 56  1  0  0  0
 36109  1  0  0  0
 37 39  1  0  0  0
 37 47  1  0  0  0
 37 66  1  0  0  0
 37110  1  0  0  0
 38 43  2  0  0  0
 38 46  1  0  0  0
 38 47  1  0  0  0
 39 64  1  0  0  0
 39 67  2  0  0  0
 40 52  1  0  0  0
 40 53  2  0  0  0
 40 58  1  0  0  0
 41111  1  0  0  0
 41112  1  0  0  0
 41113  1  0  0  0
 41 48  1  0  0  0
 42 43  1  0  0  0
 42 66  1  0  0  0
 42114  1  0  0  0
 42115  1  0  0  0
 43 44  1  0  0  0
 44116  1  0  0  0
 45 46  2  0  0  0
 45117  1  0  0  0
 46118  1  0  0  0
 47119  1  0  0  0
 47120  1  0  0  0
 48 56  1  0  0  0
 48 65  1  0  0  0
 48121  1  0  0  0
 49 50  1  0  0  0
 49 53  1  0  0  0
 49 64  1  0  0  0
 49122  1  0  0  0
 50 51  1  0  0  0
 50123  1  0  0  0
 50124  1  0  0  0
 51 52  1  0  0  0
 51125  1  0  0  0
 51126  1  0  0  0
 52127  1  0  0  0
 52128  1  0  0  0
 53 54  1  0  0  0
 54 55  2  0  0  0
 54129  1  0  0  0
 55 57  1  0  0  0
 55130  1  0  0  0
 56 69  2  0  0  0
 57 58  2  0  0  0
 57131  1  0  0  0
 58132  1  0  0  0
 59 60  1  0  0  0
 59 61  1  0  0  0
 59 62  1  0  0  0
 60133  1  0  0  0
 60134  1  0  0  0
 60135  1  0  0  0
 61136  1  0  0  0
 61137  1  0  0  0
 61138  1  0  0  0
 62139  1  0  0  0
 62140  1  0  0  0
 62141  1  0  0  0
 63 65  1  0  0  0
 63142  1  0  0  0
 63143  1  0  0  0
 63144  1  0  0  0
 64145  1  0  0  0
 65146  1  0  0  0
 68 84  1  0  0  0
 71 73  2  0  0  0
 71 74  1  0  0  0
 71147  1  0  0  0
 72 73  1  0  0  0
 72 85  2  0  0  0
 72148  1  0  0  0
 73 81  1  0  0  0
 74 75  2  0  0  0
 74 82  1  0  0  0
 75 85  1  0  0  0
 75 87  1  0  0  0
 76 78  1  0  0  0
 76 81  1  0  0  0
 76149  1  0  0  0
 76150  1  0  0  0
 77 79  1  0  0  0
 77 81  1  0  0  0
 77151  1  0  0  0
 77152  1  0  0  0
 78 86  1  0  0  0
 78153  1  0  0  0
 78154  1  0  0  0
 79 86  1  0  0  0
 79155  1  0  0  0
 79156  1  0  0  0
 80 82  1  0  0  0
 80 87  1  0  0  0
 80157  1  0  0  0
 80158  1  0  0  0
 81159  1  0  0  0
 82 83  1  0  0  0
 82 84  1  0  0  0
 83160  1  0  0  0
 83161  1  0  0  0
 83162  1  0  0  0
 84163  1  0  0  0
 84164  1  0  0  0
M  ISO  4   1 100  68 101  84 101  86 100
M  END
> <chiral flag>
0

> <version>
0

> <s_m_source_file>
/data/baiqing/PycharmProjects/Reinvent-master-3.2/result/LINK_invent/BTK/process_docking_weight1_custom_sum_contain_oxygen_bond_distance_aromatic_linkinvent_7_9_3/rearranged_h_0166.sdf

> <i_m_source_file_index>
21

> <r_mmod_Potential_Energy-OPLS-2005>
226.029190063477

> <r_mmod_Stretch_Energy-OPLS-2005>
80.4538803100586

> <r_mmod_Bend_Energy-OPLS-2005>
217.783966064453

> <r_mmod_Torsional_Energy-OPLS-2005>
359.293426513672

> <r_mmod_Improper_Torsional_Energy-OPLS-2005>
21.5820941925049

> <r_mmod_Van_der_Waal_Energy-OPLS-2005>
148.224365234375

> <r_mmod_Electrostatic_Energy-OPLS-2005>
-438.083801269531

> <r_mmod_Solvation_Energy-OPLS-2005>
-211.282653808594

> <b_mmod_Minimization_Converged-OPLS-2005>
0

> <r_mmod_RMS_Derivative-OPLS-2005>
3.67447447776794

$$$$
21
                    3D
 Structure written by MMmdl.
164174  0  0  1  0            999 V2000
  -30.6010  -14.8801   20.4633 C   0  0  0  0  0  0
  -30.4374  -12.5533   19.4886 C   0  0  0  0  0  0
  -29.5146  -12.5343   18.2481 C   0  0  0  0  0  0
  -28.0448  -12.3326   18.6640 C   0  0  0  0  0  0
  -27.6366  -13.2434   19.8516 C   0  0  2  0  0  0
  -28.6857  -13.2104   20.9843 C   0  0  0  0  0  0
  -25.2450  -13.8201   20.5670 C   0  0  0  0  0  0
  -24.1776  -13.0429   20.9218 C   0  0  0  0  0  0
  -24.6402  -11.6918   20.8770 C   0  0  0  0  0  0
  -23.9086  -10.4292   21.0418 C   0  0  0  0  0  0
  -24.3634   -9.4203   21.9194 C   0  0  0  0  0  0
  -23.6302   -8.2242   22.0756 C   0  0  0  0  0  0
  -22.4281   -8.0289   21.3547 C   0  0  0  0  0  0
  -21.9921   -9.0267   20.4652 C   0  0  0  0  0  0
  -22.7257  -10.2142   20.3064 C   0  0  0  0  0  0
  -21.6850   -6.0747   22.5281 C   0  0  0  0  0  0
  -21.4014   -6.5645   23.8218 C   0  0  0  0  0  0
  -21.3658   -5.6793   24.9175 C   0  0  0  0  0  0
  -21.6042   -4.3059   24.7221 C   0  0  0  0  0  0
  -21.8819   -3.8154   23.4341 C   0  0  0  0  0  0
  -21.9190   -4.6975   22.3398 C   0  0  0  0  0  0
  -22.7796  -13.5208   21.1869 C   0  0  0  0  0  0
  -22.1657   -4.2166   21.0976 F   0  0  0  0  0  0
  -21.5629   -3.4541   25.7734 F   0  0  0  0  0  0
  -29.9624  -13.6409   20.3931 N   0  0  0  0  0  0
  -26.2916  -12.9444   20.3309 N   0  0  0  0  0  0
  -25.9344  -11.6573   20.5794 N   0  0  0  0  0  0
  -22.0448  -12.8206   22.0437 N   0  0  0  0  0  0
  -25.4026  -15.1919   20.3972 N   0  0  0  0  0  0
  -31.7866  -14.9130   20.1146 O   0  0  0  0  0  0
  -21.6636   -6.8891   21.4244 O   0  0  0  0  0  0
  -22.3478  -14.5508   20.6712 O   0  0  0  0  0  0
  -24.6415  -31.8483   23.1947 C   0  0  0  0  0  0
  -25.9206  -32.4715   23.8314 C   0  0  1  0  0  0
  -27.2107  -27.1663   20.1318 C   0  0  0  0  0  0
  -25.5977  -33.8522   24.2234 N   0  0  0  0  0  0
  -23.4430  -30.4726   21.5402 C   0  0  2  0  0  0
  -24.8911  -28.9155   20.1084 C   0  0  0  0  0  0
  -22.7565  -29.4568   22.4878 C   0  0  0  0  0  0
  -18.0304  -28.1391   22.8472 C   0  0  0  0  0  0
  -24.1492  -36.7255   23.2634 C   0  0  0  0  0  0
  -26.0002  -30.7285   21.3945 C   0  0  0  0  0  0
  -26.0696  -29.3460   20.7314 C   0  0  0  0  0  0
  -27.2299  -28.4854   20.7343 C   0  0  0  0  0  0
  -26.0082  -26.8519   19.4513 C   0  0  0  0  0  0
  -24.8721  -27.6800   19.4544 C   0  0  0  0  0  0
  -23.6675  -29.8128   20.1564 C   0  0  0  0  0  0
  -25.4118  -36.3040   24.0320 C   0  0  1  0  0  0
  -20.5916  -28.3718   23.1233 C   0  0  2  0  0  0
  -20.6789  -26.9421   22.5399 C   0  0  0  0  0  0
  -19.5764  -26.6380   21.5207 C   0  0  0  0  0  0
  -18.1943  -26.7932   22.1613 C   0  0  0  0  0  0
  -19.1560  -28.8874   23.2844 C   0  0  0  0  0  0
  -18.9477  -30.1470   23.8873 C   0  0  0  0  0  0
  -17.6473  -30.6587   24.0556 C   0  0  0  0  0  0
  -25.9076  -34.9416   23.5078 C   0  0  0  0  0  0
  -16.5365  -29.9078   23.6337 C   0  0  0  0  0  0
  -16.7286  -28.6496   23.0356 C   0  0  0  0  0  0
  -26.4532  -31.6566   25.0740 C   0  0  0  0  0  0
  -25.3724  -31.3768   26.1444 C   0  0  0  0  0  0
  -27.0375  -30.2949   24.6320 C   0  0  0  0  0  0
  -27.6083  -32.4317   25.7504 C   0  0  0  0  0  0
  -27.5590  -37.1767   24.8449 C   0  0  0  0  0  0
  -21.4259  -29.3052   22.3617 N   0  0  0  0  0  0
  -26.4279  -37.3757   23.9428 N   0  0  0  0  0  0
  -24.7144  -31.0369   22.0976 N   0  0  0  0  0  0
  -23.4224  -28.8104   23.3006 O   0  0  0  0  0  0
  -28.2405  -26.1598   20.2196 O   0  0  0  0  0  0
  -26.5642  -34.8904   22.4646 O   0  0  0  0  0  0
  -23.5539  -32.1354   23.7181 O   0  0  0  0  0  0
  -28.9115  -21.1207   21.4546 C   0  0  0  0  0  0
  -28.9658  -22.4240   19.0328 C   0  0  0  0  0  0
  -29.1796  -20.2546   20.3387 C   0  0  0  0  0  0
  -28.6204  -22.5472   21.3755 C   0  0  0  0  0  0
  -29.2357  -21.0014   19.1151 C   0  0  0  0  0  0
  -28.6013  -23.2696   20.1325 C   0  0  0  0  0  0
  -27.5389  -22.6371   23.7908 C   0  0  0  0  0  0
  -26.8414  -23.6731   22.9443 C   0  0  0  0  0  0
  -28.6492  -17.9582   21.7143 C   0  0  0  0  0  0
  -28.8090  -16.4086   21.5426 C   0  0  0  0  0  0
  -30.2940  -17.5212   20.0999 C   0  0  0  0  0  0
  -28.2699  -23.2882   22.6353 C   0  0  0  0  0  0
  -29.1370  -18.6081   20.4161 C   0  0  2  0  0  0
  -29.5093  -20.2597   17.8193 C   0  0  0  0  0  0
  -27.8587  -24.7093   19.8645 C   0  0  0  0  0  0
  -29.8953  -16.1123   20.5898 N   0  0  0  0  0  0
  -31.4728  -12.6932   19.1736 H   0  0  0  0  0  0
  -30.4201  -11.5892   19.9996 H   0  0  0  0  0  0
  -29.8209  -11.7464   17.5588 H   0  0  0  0  0  0
  -29.6169  -13.4741   17.7025 H   0  0  0  0  0  0
  -27.9233  -11.2858   18.9449 H   0  0  0  0  0  0
  -27.3827  -12.4970   17.8133 H   0  0  0  0  0  0
  -27.6170  -14.2586   19.4551 H   0  0  0  0  0  0
  -28.7683  -12.2052   21.4000 H   0  0  0  0  0  0
  -28.3904  -13.8418   21.8188 H   0  0  0  0  0  0
  -25.2779   -9.5678   22.4771 H   0  0  0  0  0  0
  -24.0017   -7.4625   22.7461 H   0  0  0  0  0  0
  -21.0857   -8.8790   19.8951 H   0  0  0  0  0  0
  -22.3722  -10.9688   19.6176 H   0  0  0  0  0  0
  -21.2006   -7.6153   23.9732 H   0  0  0  0  0  0
  -21.1477   -6.0518   25.9083 H   0  0  0  0  0  0
  -22.0598   -2.7619   23.2834 H   0  0  0  0  0  0
  -22.4070  -11.9875   22.4840 H   0  0  0  0  0  0
  -21.1070  -13.1235   22.2652 H   0  0  0  0  0  0
  -24.6243  -15.8354   20.4904 H   0  0  0  0  0  0
  -26.2371  -15.6303   20.0310 H   0  0  0  0  0  0
  -26.7271  -32.5328   23.1042 H   0  0  0  0  0  0
  -25.0142  -33.9650   25.0392 H   0  0  0  0  0  0
  -22.7433  -31.2977   21.3922 H   0  0  0  0  0  0
  -23.3780  -35.9556   23.3234 H   0  0  0  0  0  0
  -24.3598  -36.8942   22.2061 H   0  0  0  0  0  0
  -23.7210  -37.6420   23.6701 H   0  0  0  0  0  0
  -26.1586  -31.4858   20.6254 H   0  0  0  0  0  0
  -26.8696  -30.7724   22.0384 H   0  0  0  0  0  0
  -28.1216  -28.8065   21.2540 H   0  0  0  0  0  0
  -25.8859  -25.9237   18.9167 H   0  0  0  0  0  0
  -23.9766  -27.3495   18.9460 H   0  0  0  0  0  0
  -23.8023  -30.5917   19.4052 H   0  0  0  0  0  0
  -22.7832  -29.2548   19.8440 H   0  0  0  0  0  0
  -25.1294  -36.1862   25.0808 H   0  0  0  0  0  0
  -21.0001  -28.3299   24.1354 H   0  0  0  0  0  0
  -20.5669  -26.2334   23.3622 H   0  0  0  0  0  0
  -21.6655  -26.7420   22.1206 H   0  0  0  0  0  0
  -19.6927  -25.6283   21.1256 H   0  0  0  0  0  0
  -19.6706  -27.3173   20.6720 H   0  0  0  0  0  0
  -17.4216  -26.6678   21.4011 H   0  0  0  0  0  0
  -18.0338  -26.0072   22.9007 H   0  0  0  0  0  0
  -19.7951  -30.7292   24.2235 H   0  0  0  0  0  0
  -17.5023  -31.6264   24.5157 H   0  0  0  0  0  0
  -15.5365  -30.2971   23.7675 H   0  0  0  0  0  0
  -15.8684  -28.0807   22.7088 H   0  0  0  0  0  0
  -24.5929  -30.7071   25.7789 H   0  0  0  0  0  0
  -24.8882  -32.2951   26.4777 H   0  0  0  0  0  0
  -25.8019  -30.9029   27.0279 H   0  0  0  0  0  0
  -26.2984  -29.6690   24.1308 H   0  0  0  0  0  0
  -27.3947  -29.7233   25.4895 H   0  0  0  0  0  0
  -27.8915  -30.4161   23.9655 H   0  0  0  0  0  0
  -27.2699  -33.3633   26.2045 H   0  0  0  0  0  0
  -28.3905  -32.6849   25.0336 H   0  0  0  0  0  0
  -28.0739  -31.8470   26.5446 H   0  0  0  0  0  0
  -28.2546  -38.0126   24.7582 H   0  0  0  0  0  0
  -28.1152  -36.2664   24.6152 H   0  0  0  0  0  0
  -27.2333  -37.1257   25.8855 H   0  0  0  0  0  0
  -20.9470  -29.8786   21.6813 H   0  0  0  0  0  0
  -26.0143  -38.2809   24.1496 H   0  0  0  0  0  0
  -28.8469  -20.6545   22.4267 H   0  0  0  0  0  0
  -28.9444  -22.8714   18.0484 H   0  0  0  0  0  0
  -27.1878  -21.6124   23.6898 H   0  0  0  0  0  0
  -27.8195  -22.9347   24.7993 H   0  0  0  0  0  0
  -26.6650  -24.6468   23.3973 H   0  0  0  0  0  0
  -26.0574  -23.3170   22.2785 H   0  0  0  0  0  0
  -29.2745  -18.2936   22.5427 H   0  0  0  0  0  0
  -27.6223  -18.2367   21.9531 H   0  0  0  0  0  0
  -27.8832  -15.9978   21.1469 H   0  0  0  0  0  0
  -28.9948  -15.9372   22.5087 H   0  0  0  0  0  0
  -31.2144  -17.8059   20.6118 H   0  0  0  0  0  0
  -30.5231  -17.4943   19.0346 H   0  0  0  0  0  0
  -29.0475  -24.0096   22.8818 H   0  0  0  0  0  0
  -28.3573  -18.3785   19.6879 H   0  0  0  0  0  0
  -29.6334  -20.9463   16.9816 H   0  0  0  0  0  0
  -28.6870  -19.5856   17.5789 H   0  0  0  0  0  0
  -30.4242  -19.6739   17.9008 H   0  0  0  0  0  0
  -26.8737  -24.5384   20.2978 H   0  0  0  0  0  0
  -27.7018  -24.7232   18.7856 H   0  0  0  0  0  0
  1 25  1  0  0  0
  1 30  2  0  0  0
  1 86  1  0  0  0
  2  3  1  0  0  0
  2 25  1  0  0  0
  2 87  1  0  0  0
  2 88  1  0  0  0
  3  4  1  0  0  0
  3 89  1  0  0  0
  3 90  1  0  0  0
  4  5  1  0  0  0
  4 91  1  0  0  0
  4 92  1  0  0  0
  5  6  1  0  0  0
  5 26  1  0  0  0
  5 93  1  0  0  0
  6 25  1  0  0  0
  6 94  1  0  0  0
  6 95  1  0  0  0
  7  8  2  0  0  0
  7 26  1  0  0  0
  7 29  1  0  0  0
  8  9  1  0  0  0
  8 22  1  0  0  0
  9 10  1  0  0  0
  9 27  2  0  0  0
 10 11  2  0  0  0
 10 15  1  0  0  0
 11 12  1  0  0  0
 11 96  1  0  0  0
 12 13  2  0  0  0
 12 97  1  0  0  0
 13 14  1  0  0  0
 13 31  1  0  0  0
 14 15  2  0  0  0
 14 98  1  0  0  0
 15 99  1  0  0  0
 16 17  2  0  0  0
 16 21  1  0  0  0
 16 31  1  0  0  0
 17 18  1  0  0  0
 17100  1  0  0  0
 18 19  2  0  0  0
 18101  1  0  0  0
 19 20  1  0  0  0
 19 24  1  0  0  0
 20 21  2  0  0  0
 20102  1  0  0  0
 21 23  1  0  0  0
 22 28  1  0  0  0
 22 32  2  0  0  0
 26 27  1  0  0  0
 28103  1  0  0  0
 28104  1  0  0  0
 29105  1  0  0  0
 29106  1  0  0  0
 33 34  1  0  0  0
 33 66  1  0  0  0
 33 70  2  0  0  0
 34 36  1  0  0  0
 34 59  1  0  0  0
 34107  1  0  0  0
 35 44  2  0  0  0
 35 45  1  0  0  0
 35 68  1  0  0  0
 36 56  1  0  0  0
 36108  1  0  0  0
 37 39  1  0  0  0
 37 47  1  0  0  0
 37 66  1  0  0  0
 37109  1  0  0  0
 38 43  2  0  0  0
 38 46  1  0  0  0
 38 47  1  0  0  0
 39 64  1  0  0  0
 39 67  2  0  0  0
 40 52  1  0  0  0
 40 53  2  0  0  0
 40 58  1  0  0  0
 41110  1  0  0  0
 41111  1  0  0  0
 41112  1  0  0  0
 41 48  1  0  0  0
 42 43  1  0  0  0
 42 66  1  0  0  0
 42113  1  0  0  0
 42114  1  0  0  0
 43 44  1  0  0  0
 44115  1  0  0  0
 45 46  2  0  0  0
 45116  1  0  0  0
 46117  1  0  0  0
 47118  1  0  0  0
 47119  1  0  0  0
 48 56  1  0  0  0
 48 65  1  0  0  0
 48120  1  0  0  0
 49 50  1  0  0  0
 49 53  1  0  0  0
 49 64  1  0  0  0
 49121  1  0  0  0
 50 51  1  0  0  0
 50122  1  0  0  0
 50123  1  0  0  0
 51 52  1  0  0  0
 51124  1  0  0  0
 51125  1  0  0  0
 52126  1  0  0  0
 52127  1  0  0  0
 53 54  1  0  0  0
 54 55  2  0  0  0
 54128  1  0  0  0
 55 57  1  0  0  0
 55129  1  0  0  0
 56 69  2  0  0  0
 57 58  2  0  0  0
 57130  1  0  0  0
 58131  1  0  0  0
 59 60  1  0  0  0
 59 61  1  0  0  0
 59 62  1  0  0  0
 60132  1  0  0  0
 60133  1  0  0  0
 60134  1  0  0  0
 61135  1  0  0  0
 61136  1  0  0  0
 61137  1  0  0  0
 62138  1  0  0  0
 62139  1  0  0  0
 62140  1  0  0  0
 63 65  1  0  0  0
 63141  1  0  0  0
 63142  1  0  0  0
 63143  1  0  0  0
 64144  1  0  0  0
 65145  1  0  0  0
 68 85  1  0  0  0
 71 73  2  0  0  0
 71 74  1  0  0  0
 71146  1  0  0  0
 72 75  2  0  0  0
 72 76  1  0  0  0
 72147  1  0  0  0
 73 75  1  0  0  0
 73 83  1  0  0  0
 74 76  2  0  0  0
 74 82  1  0  0  0
 75 84  1  0  0  0
 76 85  1  0  0  0
 77 78  1  0  0  0
 77 82  1  0  0  0
 77148  1  0  0  0
 77149  1  0  0  0
 78 82  1  0  0  0
 78150  1  0  0  0
 78151  1  0  0  0
 79 80  1  0  0  0
 79 83  1  0  0  0
 79152  1  0  0  0
 79153  1  0  0  0
 80 86  1  0  0  0
 80154  1  0  0  0
 80155  1  0  0  0
 81 83  1  0  0  0
 81 86  1  0  0  0
 81156  1  0  0  0
 81157  1  0  0  0
 82158  1  0  0  0
 83159  1  0  0  0
 84160  1  0  0  0
 84161  1  0  0  0
 84162  1  0  0  0
 85163  1  0  0  0
 85164  1  0  0  0
M  ISO  4   1 100  68 101  85 101  86 100
M  END
> <chiral flag>
0

> <version>
0

> <s_m_source_file>
/data/baiqing/PycharmProjects/Reinvent-master-3.2/result/LINK_invent/BTK/process_docking_weight1_custom_sum_contain_oxygen_bond_distance_aromatic_linkinvent_7_9_3/rearranged_h_0166.sdf

> <i_m_source_file_index>
22

> <r_mmod_Potential_Energy-OPLS-2005>
647.177612304688

> <r_mmod_Stretch_Energy-OPLS-2005>
195.700698852539

> <r_mmod_Bend_Energy-OPLS-2005>
283.61328125

> <r_mmod_Torsional_Energy-OPLS-2005>
356.923431396484

> <r_mmod_Improper_Torsional_Energy-OPLS-2005>
14.602912902832

> <r_mmod_Van_der_Waal_Energy-OPLS-2005>
134.896926879883

> <r_mmod_Electrostatic_Energy-OPLS-2005>
-296.642669677734

> <r_mmod_Solvation_Energy-OPLS-2005>
-198.057266235352

> <b_mmod_Minimization_Converged-OPLS-2005>
0

> <r_mmod_RMS_Derivative-OPLS-2005>
0.917496621608734

$$$$
22
                    3D
 Structure written by MMmdl.
170180  0  0  1  0            999 V2000
  -30.6150  -14.8259   20.3915 C   0  0  0  0  0  0
  -30.4186  -12.5028   19.4682 C   0  0  0  0  0  0
  -29.4966  -12.4819   18.2299 C   0  0  0  0  0  0
  -28.0267  -12.3141   18.6556 C   0  0  0  0  0  0
  -27.6255  -13.2458   19.8307 C   0  0  2  0  0  0
  -28.6767  -13.2563   20.9586 C   0  0  0  0  0  0
  -25.2448  -13.8211   20.5712 C   0  0  0  0  0  0
  -24.1764  -13.0442   20.9232 C   0  0  0  0  0  0
  -24.6384  -11.6929   20.8773 C   0  0  0  0  0  0
  -23.9073  -10.4294   21.0418 C   0  0  0  0  0  0
  -24.3622   -9.4208   21.9195 C   0  0  0  0  0  0
  -23.6295   -8.2243   22.0765 C   0  0  0  0  0  0
  -22.4276   -8.0282   21.3552 C   0  0  0  0  0  0
  -21.9916   -9.0257   20.4653 C   0  0  0  0  0  0
  -22.7246  -10.2136   20.3065 C   0  0  0  0  0  0
  -21.6848   -6.0735   22.5280 C   0  0  0  0  0  0
  -21.4014   -6.5641   23.8215 C   0  0  0  0  0  0
  -21.3662   -5.6790   24.9178 C   0  0  0  0  0  0
  -21.6047   -4.3056   24.7221 C   0  0  0  0  0  0
  -21.8816   -3.8147   23.4345 C   0  0  0  0  0  0
  -21.9190   -4.6964   22.3400 C   0  0  0  0  0  0
  -22.7786  -13.5212   21.1893 C   0  0  0  0  0  0
  -22.1656   -4.2147   21.0976 F   0  0  0  0  0  0
  -21.5629   -3.4538   25.7736 F   0  0  0  0  0  0
  -29.9547  -13.6116   20.3379 N   0  0  0  0  0  0
  -26.2879  -12.9456   20.3261 N   0  0  0  0  0  0
  -25.9318  -11.6588   20.5783 N   0  0  0  0  0  0
  -22.0445  -12.8186   22.0443 N   0  0  0  0  0  0
  -25.4115  -15.1929   20.4124 N   0  0  0  0  0  0
  -31.8459  -14.8089   20.3012 O   0  0  0  0  0  0
  -21.6639   -6.8882   21.4242 O   0  0  0  0  0  0
  -22.3467  -14.5515   20.6735 O   0  0  0  0  0  0
  -24.6360  -31.8512   23.1955 C   0  0  0  0  0  0
  -25.9157  -32.4725   23.8326 C   0  0  1  0  0  0
  -27.2115  -27.2084   20.1466 C   0  0  0  0  0  0
  -25.5936  -33.8532   24.2236 N   0  0  0  0  0  0
  -23.4361  -30.4740   21.5398 C   0  0  2  0  0  0
  -24.8818  -28.9114   20.1166 C   0  0  0  0  0  0
  -22.7528  -29.4593   22.4893 C   0  0  0  0  0  0
  -18.0300  -28.1390   22.8493 C   0  0  0  0  0  0
  -24.1491  -36.7277   23.2645 C   0  0  0  0  0  0
  -25.9872  -30.7489   21.3830 C   0  0  0  0  0  0
  -26.0585  -29.3675   20.7256 C   0  0  0  0  0  0
  -27.2282  -28.5315   20.7216 C   0  0  0  0  0  0
  -26.0085  -26.8325   19.5130 C   0  0  0  0  0  0
  -24.8654  -27.6547   19.4967 C   0  0  0  0  0  0
  -23.6566  -29.8044   20.1593 C   0  0  0  0  0  0
  -25.4122  -36.3050   24.0316 C   0  0  1  0  0  0
  -20.5913  -28.3713   23.1245 C   0  0  2  0  0  0
  -20.6789  -26.9424   22.5400 C   0  0  0  0  0  0
  -19.5762  -26.6383   21.5212 C   0  0  0  0  0  0
  -18.1940  -26.7936   22.1621 C   0  0  0  0  0  0
  -19.1557  -28.8873   23.2860 C   0  0  0  0  0  0
  -18.9474  -30.1472   23.8880 C   0  0  0  0  0  0
  -17.6472  -30.6586   24.0566 C   0  0  0  0  0  0
  -25.9066  -34.9420   23.5081 C   0  0  0  0  0  0
  -16.5364  -29.9079   23.6334 C   0  0  0  0  0  0
  -16.7287  -28.6496   23.0361 C   0  0  0  0  0  0
  -26.4508  -31.6575   25.0742 C   0  0  0  0  0  0
  -25.3718  -31.3731   26.1457 C   0  0  0  0  0  0
  -27.0357  -30.2973   24.6281 C   0  0  0  0  0  0
  -27.6063  -32.4334   25.7495 C   0  0  0  0  0  0
  -27.5573  -37.1794   24.8466 C   0  0  0  0  0  0
  -21.4233  -29.3057   22.3625 N   0  0  0  0  0  0
  -26.4294  -37.3747   23.9396 N   0  0  0  0  0  0
  -24.7059  -31.0443   22.0951 N   0  0  0  0  0  0
  -23.4203  -28.8132   23.3012 O   0  0  0  0  0  0
  -28.2947  -26.2842   20.1739 O   0  0  0  0  0  0
  -26.5643  -34.8893   22.4652 O   0  0  0  0  0  0
  -23.5490  -32.1366   23.7201 O   0  0  0  0  0  0
  -28.2211  -20.9096   20.0006 C   0  0  0  0  0  0
  -29.1241  -21.9868   20.2743 C   0  0  0  0  0  0
  -29.8330  -19.0108   20.4857 C   0  0  0  0  0  0
  -28.5219  -19.4924   20.1210 C   0  0  0  0  0  0
  -30.3693  -21.5073   20.7884 C   0  0  0  0  0  0
  -30.7124  -20.0946   20.8775 C   0  0  0  0  0  0
  -31.0038  -17.3554   18.9148 C   0  0  0  0  0  0
  -27.5897  -24.0061   19.2671 C   0  0  0  0  0  0
  -29.8793  -16.3524   18.6962 C   0  0  0  0  0  0
  -28.8938  -23.5479   19.8736 C   0  0  1  0  0  0
  -30.4806  -17.4952   20.3389 C   0  0  2  0  0  0
  -28.0511  -24.8026   20.4697 C   0  0  1  0  0  0
  -31.3949  -22.5595   21.2084 C   0  0  0  0  0  0
  -32.1071  -19.7186   21.3943 C   0  0  0  0  0  0
  -26.8517  -18.6009   18.4098 C   0  0  0  0  0  0
  -26.2183  -18.7437   20.8497 C   0  0  0  0  0  0
  -27.3720  -18.5206   19.8566 C   0  0  0  0  0  0
  -29.9192  -16.0393   20.1425 N   0  0  0  0  0  0
  -31.4572  -12.6251   19.1578 H   0  0  0  0  0  0
  -30.3734  -11.5519   20.0017 H   0  0  0  0  0  0
  -29.7822  -11.6728   17.5559 H   0  0  0  0  0  0
  -29.6097  -13.4020   17.6579 H   0  0  0  0  0  0
  -27.8963  -11.2728   18.9514 H   0  0  0  0  0  0
  -27.3620  -12.4709   17.8048 H   0  0  0  0  0  0
  -27.5938  -14.2520   19.4121 H   0  0  0  0  0  0
  -28.7383  -12.2859   21.4540 H   0  0  0  0  0  0
  -28.4141  -13.9877   21.7239 H   0  0  0  0  0  0
  -25.2762   -9.5679   22.4781 H   0  0  0  0  0  0
  -23.9995   -7.4635   22.7492 H   0  0  0  0  0  0
  -21.0846   -8.8783   19.8961 H   0  0  0  0  0  0
  -22.3702  -10.9681   19.6183 H   0  0  0  0  0  0
  -21.2008   -7.6149   23.9714 H   0  0  0  0  0  0
  -21.1488   -6.0525   25.9078 H   0  0  0  0  0  0
  -22.0589   -2.7608   23.2842 H   0  0  0  0  0  0
  -22.4064  -11.9829   22.4786 H   0  0  0  0  0  0
  -21.1083  -13.1232   22.2700 H   0  0  0  0  0  0
  -24.6451  -15.8452   20.5326 H   0  0  0  0  0  0
  -26.2704  -15.6352   20.1135 H   0  0  0  0  0  0
  -26.7218  -32.5351   23.1059 H   0  0  0  0  0  0
  -25.0065  -33.9670   25.0369 H   0  0  0  0  0  0
  -22.7351  -31.2979   21.3882 H   0  0  0  0  0  0
  -23.3754  -35.9610   23.3317 H   0  0  0  0  0  0
  -24.3566  -36.8911   22.2058 H   0  0  0  0  0  0
  -23.7254  -37.6472   23.6686 H   0  0  0  0  0  0
  -26.1353  -31.5050   20.6108 H   0  0  0  0  0  0
  -26.8595  -30.7961   22.0235 H   0  0  0  0  0  0
  -28.1301  -28.8759   21.2077 H   0  0  0  0  0  0
  -25.9193  -25.8745   19.0283 H   0  0  0  0  0  0
  -23.9648  -27.2982   19.0140 H   0  0  0  0  0  0
  -23.7854  -30.5758   19.3994 H   0  0  0  0  0  0
  -22.7734  -29.2383   19.8563 H   0  0  0  0  0  0
  -25.1309  -36.1893   25.0808 H   0  0  0  0  0  0
  -21.0010  -28.3308   24.1364 H   0  0  0  0  0  0
  -20.5706  -26.2328   23.3616 H   0  0  0  0  0  0
  -21.6650  -26.7448   22.1192 H   0  0  0  0  0  0
  -19.6928  -25.6291   21.1250 H   0  0  0  0  0  0
  -19.6691  -27.3180   20.6736 H   0  0  0  0  0  0
  -17.4215  -26.6694   21.4014 H   0  0  0  0  0  0
  -18.0329  -26.0069   22.9008 H   0  0  0  0  0  0
  -19.7950  -30.7292   24.2240 H   0  0  0  0  0  0
  -17.5024  -31.6267   24.5164 H   0  0  0  0  0  0
  -15.5359  -30.2971   23.7677 H   0  0  0  0  0  0
  -15.8693  -28.0805   22.7093 H   0  0  0  0  0  0
  -24.5870  -30.7118   25.7770 H   0  0  0  0  0  0
  -24.8940  -32.2901   26.4909 H   0  0  0  0  0  0
  -25.8012  -30.8866   27.0224 H   0  0  0  0  0  0
  -26.2956  -29.6692   24.1306 H   0  0  0  0  0  0
  -27.4003  -29.7269   25.4836 H   0  0  0  0  0  0
  -27.8855  -30.4226   23.9568 H   0  0  0  0  0  0
  -27.2704  -33.3684   26.1984 H   0  0  0  0  0  0
  -28.3891  -32.6808   25.0317 H   0  0  0  0  0  0
  -28.0703  -31.8519   26.5468 H   0  0  0  0  0  0
  -28.2595  -38.0084   24.7485 H   0  0  0  0  0  0
  -28.1060  -36.2603   24.6338 H   0  0  0  0  0  0
  -27.2280  -37.1508   25.8868 H   0  0  0  0  0  0
  -20.9427  -29.8756   21.6801 H   0  0  0  0  0  0
  -26.0173  -38.2821   24.1383 H   0  0  0  0  0  0
  -27.2392  -21.1793   19.6411 H   0  0  0  0  0  0
  -30.9265  -18.2505   18.2959 H   0  0  0  0  0  0
  -32.0036  -16.9231   18.8485 H   0  0  0  0  0  0
  -26.6961  -23.4075   19.4258 H   0  0  0  0  0  0
  -27.6561  -24.4741   18.2877 H   0  0  0  0  0  0
  -30.1768  -15.5576   18.0106 H   0  0  0  0  0  0
  -28.9506  -16.7947   18.3500 H   0  0  0  0  0  0
  -29.7716  -23.8387   19.2996 H   0  0  0  0  0  0
  -31.2976  -17.4106   21.0516 H   0  0  0  0  0  0
  -27.5237  -24.6578   21.4116 H   0  0  0  0  0  0
  -32.2475  -22.5519   20.5280 H   0  0  0  0  0  0
  -31.7488  -22.3756   22.2229 H   0  0  0  0  0  0
  -31.0023  -23.5739   21.2265 H   0  0  0  0  0  0
  -32.6608  -19.1553   20.6436 H   0  0  0  0  0  0
  -32.0143  -19.1087   22.2938 H   0  0  0  0  0  0
  -32.7558  -20.5450   21.6688 H   0  0  0  0  0  0
  -27.6497  -18.4772   17.6792 H   0  0  0  0  0  0
  -26.3697  -19.5564   18.2031 H   0  0  0  0  0  0
  -26.1138  -17.8201   18.2214 H   0  0  0  0  0  0
  -26.5582  -18.6501   21.8814 H   0  0  0  0  0  0
  -25.4249  -18.0121   20.6997 H   0  0  0  0  0  0
  -25.7687  -19.7303   20.7370 H   0  0  0  0  0  0
  -27.7226  -17.5086   20.0399 H   0  0  0  0  0  0
  1 25  1  0  0  0
  1 30  2  0  0  0
  1 88  1  0  0  0
  2  3  1  0  0  0
  2 25  1  0  0  0
  2 89  1  0  0  0
  2 90  1  0  0  0
  3  4  1  0  0  0
  3 91  1  0  0  0
  3 92  1  0  0  0
  4  5  1  0  0  0
  4 93  1  0  0  0
  4 94  1  0  0  0
  5  6  1  0  0  0
  5 26  1  0  0  0
  5 95  1  0  0  0
  6 25  1  0  0  0
  6 96  1  0  0  0
  6 97  1  0  0  0
  7  8  2  0  0  0
  7 26  1  0  0  0
  7 29  1  0  0  0
  8  9  1  0  0  0
  8 22  1  0  0  0
  9 10  1  0  0  0
  9 27  2  0  0  0
 10 11  2  0  0  0
 10 15  1  0  0  0
 11 12  1  0  0  0
 11 98  1  0  0  0
 12 13  2  0  0  0
 12 99  1  0  0  0
 13 14  1  0  0  0
 13 31  1  0  0  0
 14 15  2  0  0  0
 14100  1  0  0  0
 15101  1  0  0  0
 16 17  2  0  0  0
 16 21  1  0  0  0
 16 31  1  0  0  0
 17 18  1  0  0  0
 17102  1  0  0  0
 18 19  2  0  0  0
 18103  1  0  0  0
 19 20  1  0  0  0
 19 24  1  0  0  0
 20 21  2  0  0  0
 20104  1  0  0  0
 21 23  1  0  0  0
 22 28  1  0  0  0
 22 32  2  0  0  0
 26 27  1  0  0  0
 28105  1  0  0  0
 28106  1  0  0  0
 29107  1  0  0  0
 29108  1  0  0  0
 33 34  1  0  0  0
 33 66  1  0  0  0
 33 70  2  0  0  0
 34 36  1  0  0  0
 34 59  1  0  0  0
 34109  1  0  0  0
 35 44  2  0  0  0
 35 45  1  0  0  0
 35 68  1  0  0  0
 36 56  1  0  0  0
 36110  1  0  0  0
 37 39  1  0  0  0
 37 47  1  0  0  0
 37 66  1  0  0  0
 37111  1  0  0  0
 38 43  2  0  0  0
 38 46  1  0  0  0
 38 47  1  0  0  0
 39 64  1  0  0  0
 39 67  2  0  0  0
 40 52  1  0  0  0
 40 53  2  0  0  0
 40 58  1  0  0  0
 41112  1  0  0  0
 41113  1  0  0  0
 41114  1  0  0  0
 41 48  1  0  0  0
 42 43  1  0  0  0
 42 66  1  0  0  0
 42115  1  0  0  0
 42116  1  0  0  0
 43 44  1  0  0  0
 44117  1  0  0  0
 45 46  2  0  0  0
 45118  1  0  0  0
 46119  1  0  0  0
 47120  1  0  0  0
 47121  1  0  0  0
 48 56  1  0  0  0
 48 65  1  0  0  0
 48122  1  0  0  0
 49 50  1  0  0  0
 49 53  1  0  0  0
 49 64  1  0  0  0
 49123  1  0  0  0
 50 51  1  0  0  0
 50124  1  0  0  0
 50125  1  0  0  0
 51 52  1  0  0  0
 51126  1  0  0  0
 51127  1  0  0  0
 52128  1  0  0  0
 52129  1  0  0  0
 53 54  1  0  0  0
 54 55  2  0  0  0
 54130  1  0  0  0
 55 57  1  0  0  0
 55131  1  0  0  0
 56 69  2  0  0  0
 57 58  2  0  0  0
 57132  1  0  0  0
 58133  1  0  0  0
 59 60  1  0  0  0
 59 61  1  0  0  0
 59 62  1  0  0  0
 60134  1  0  0  0
 60135  1  0  0  0
 60136  1  0  0  0
 61137  1  0  0  0
 61138  1  0  0  0
 61139  1  0  0  0
 62140  1  0  0  0
 62141  1  0  0  0
 62142  1  0  0  0
 63 65  1  0  0  0
 63143  1  0  0  0
 63144  1  0  0  0
 63145  1  0  0  0
 64146  1  0  0  0
 65147  1  0  0  0
 68 82  1  0  0  0
 71 72  2  0  0  0
 71 74  1  0  0  0
 71148  1  0  0  0
 72 75  1  0  0  0
 72 80  1  0  0  0
 73 74  2  0  0  0
 73 76  1  0  0  0
 73 81  1  0  0  0
 74 87  1  0  0  0
 75 76  2  0  0  0
 75 83  1  0  0  0
 76 84  1  0  0  0
 77 79  1  0  0  0
 77 81  1  0  0  0
 77149  1  0  0  0
 77150  1  0  0  0
 78 80  1  0  0  0
 78 82  1  0  0  0
 78151  1  0  0  0
 78152  1  0  0  0
 79 88  1  0  0  0
 79153  1  0  0  0
 79154  1  0  0  0
 80 82  1  0  0  0
 80155  1  0  0  0
 81 88  1  0  0  0
 81156  1  0  0  0
 82157  1  0  0  0
 83158  1  0  0  0
 83159  1  0  0  0
 83160  1  0  0  0
 84161  1  0  0  0
 84162  1  0  0  0
 84163  1  0  0  0
 85164  1  0  0  0
 85165  1  0  0  0
 85166  1  0  0  0
 85 87  1  0  0  0
 86 87  1  0  0  0
 86167  1  0  0  0
 86168  1  0  0  0
 86169  1  0  0  0
 87170  1  0  0  0
M  ISO  4   1 100  68 101  82 101  88 100
M  END
> <chiral flag>
0

> <version>
0

> <s_m_source_file>
/data/baiqing/PycharmProjects/Reinvent-master-3.2/result/LINK_invent/BTK/process_docking_weight1_custom_sum_contain_oxygen_bond_distance_aromatic_linkinvent_7_9_3/rearranged_h_0166.sdf

> <i_m_source_file_index>
23

> <r_mmod_Potential_Energy-OPLS-2005>
527.00732421875

> <r_mmod_Stretch_Energy-OPLS-2005>
196.414627075195

> <r_mmod_Bend_Energy-OPLS-2005>
272.865631103516

> <r_mmod_Torsional_Energy-OPLS-2005>
322.179718017578

> <r_mmod_Improper_Torsional_Energy-OPLS-2005>
20.6306819915771

> <r_mmod_Van_der_Waal_Energy-OPLS-2005>
156.632095336914

> <r_mmod_Electrostatic_Energy-OPLS-2005>
-384.193389892578

> <r_mmod_Solvation_Energy-OPLS-2005>
-188.469528198242

> <b_mmod_Minimization_Converged-OPLS-2005>
0

> <r_mmod_RMS_Derivative-OPLS-2005>
1.79615116119385

$$$$
23
                    3D
 Structure written by MMmdl.
167177  0  0  1  0            999 V2000
  -30.7293  -14.7012   20.4882 C   0  0  0  0  0  0
  -30.4063  -12.4564   19.4514 C   0  0  0  0  0  0
  -29.4864  -12.5099   18.2175 C   0  0  0  0  0  0
  -28.0179  -12.3413   18.6454 C   0  0  0  0  0  0
  -27.6363  -13.2415   19.8525 C   0  0  2  0  0  0
  -28.6956  -13.1831   20.9751 C   0  0  0  0  0  0
  -25.2481  -13.8222   20.5770 C   0  0  0  0  0  0
  -24.1786  -13.0451   20.9247 C   0  0  0  0  0  0
  -24.6394  -11.6927   20.8778 C   0  0  0  0  0  0
  -23.9092  -10.4290   21.0410 C   0  0  0  0  0  0
  -24.3637   -9.4196   21.9185 C   0  0  0  0  0  0
  -23.6308   -8.2232   22.0743 C   0  0  0  0  0  0
  -22.4290   -8.0282   21.3535 C   0  0  0  0  0  0
  -21.9931   -9.0266   20.4644 C   0  0  0  0  0  0
  -22.7261  -10.2140   20.3056 C   0  0  0  0  0  0
  -21.6842   -6.0748   22.5296 C   0  0  0  0  0  0
  -21.4006   -6.5648   23.8235 C   0  0  0  0  0  0
  -21.3655   -5.6793   24.9188 C   0  0  0  0  0  0
  -21.6044   -4.3066   24.7230 C   0  0  0  0  0  0
  -21.8812   -3.8161   23.4352 C   0  0  0  0  0  0
  -21.9185   -4.6979   22.3418 C   0  0  0  0  0  0
  -22.7804  -13.5225   21.1892 C   0  0  0  0  0  0
  -22.1644   -4.2169   21.0989 F   0  0  0  0  0  0
  -21.5638   -3.4541   25.7741 F   0  0  0  0  0  0
  -29.9761  -13.5496   20.3595 N   0  0  0  0  0  0
  -26.2929  -12.9458   20.3373 N   0  0  0  0  0  0
  -25.9339  -11.6586   20.5831 N   0  0  0  0  0  0
  -22.0422  -12.8209   22.0418 N   0  0  0  0  0  0
  -25.4135  -15.1945   20.4204 N   0  0  0  0  0  0
  -31.9358  -14.6009   20.2458 O   0  0  0  0  0  0
  -21.6638   -6.8893   21.4260 O   0  0  0  0  0  0
  -22.3486  -14.5536   20.6736 O   0  0  0  0  0  0
  -24.6324  -31.8616   23.2068 C   0  0  0  0  0  0
  -25.9164  -32.4779   23.8394 C   0  0  1  0  0  0
  -27.1847  -27.2700   20.1002 C   0  0  0  0  0  0
  -25.5976  -33.8591   24.2311 N   0  0  0  0  0  0
  -23.4237  -30.4941   21.5540 C   0  0  2  0  0  0
  -24.8615  -28.9656   20.1057 C   0  0  0  0  0  0
  -22.7506  -29.4642   22.4948 C   0  0  0  0  0  0
  -18.0288  -28.1400   22.8470 C   0  0  0  0  0  0
  -24.1495  -36.7280   23.2623 C   0  0  0  0  0  0
  -25.9751  -30.7744   21.3903 C   0  0  0  0  0  0
  -26.0405  -29.4029   20.7246 C   0  0  0  0  0  0
  -27.2047  -28.5667   20.7213 C   0  0  0  0  0  0
  -25.9821  -26.9380   19.4195 C   0  0  0  0  0  0
  -24.8387  -27.7406   19.4438 C   0  0  0  0  0  0
  -23.6364  -29.8506   20.1643 C   0  0  0  0  0  0
  -25.4114  -36.3083   24.0323 C   0  0  1  0  0  0
  -20.5891  -28.3706   23.1274 C   0  0  2  0  0  0
  -20.6792  -26.9437   22.5393 C   0  0  0  0  0  0
  -19.5763  -26.6398   21.5209 C   0  0  0  0  0  0
  -18.1939  -26.7943   22.1618 C   0  0  0  0  0  0
  -19.1540  -28.8864   23.2872 C   0  0  0  0  0  0
  -18.9461  -30.1464   23.8891 C   0  0  0  0  0  0
  -17.6459  -30.6589   24.0561 C   0  0  0  0  0  0
  -25.9061  -34.9450   23.5101 C   0  0  0  0  0  0
  -16.5351  -29.9081   23.6346 C   0  0  0  0  0  0
  -16.7273  -28.6511   23.0342 C   0  0  0  0  0  0
  -26.4519  -31.6570   25.0757 C   0  0  0  0  0  0
  -25.3735  -31.3757   26.1470 C   0  0  0  0  0  0
  -27.0308  -30.2959   24.6240 C   0  0  0  0  0  0
  -27.6110  -32.4266   25.7521 C   0  0  0  0  0  0
  -27.5585  -37.1805   24.8459 C   0  0  0  0  0  0
  -21.4215  -29.3063   22.3677 N   0  0  0  0  0  0
  -26.4292  -37.3776   23.9405 N   0  0  0  0  0  0
  -24.6966  -31.0588   22.1056 N   0  0  0  0  0  0
  -23.4214  -28.8143   23.3009 O   0  0  0  0  0  0
  -28.2268  -26.3075   20.1793 O   0  0  0  0  0  0
  -26.5619  -34.8914   22.4663 O   0  0  0  0  0  0
  -23.5476  -32.1460   23.7355 O   0  0  0  0  0  0
  -28.4786  -22.5591   19.0138 C   0  0  0  0  0  0
  -28.8944  -23.0336   21.3119 C   0  0  0  0  0  0
  -28.7689  -21.1678   19.1872 C   0  0  0  0  0  0
  -29.1701  -20.6597   20.4740 C   0  0  0  0  0  0
  -28.5206  -23.5355   20.0445 C   0  0  0  0  0  0
  -29.2117  -21.6481   21.5246 C   0  0  0  0  0  0
  -29.6488  -20.3381   16.8659 C   0  0  0  0  0  0
  -28.2034  -20.6612   16.5638 C   0  0  0  0  0  0
  -28.5194  -18.0214   20.9338 C   0  0  0  0  0  0
  -30.6033  -18.5116   19.7514 C   0  0  0  0  0  0
  -29.0361  -16.5447   21.2638 C   0  0  0  0  0  0
  -31.1539  -17.1085   20.1585 C   0  0  0  0  0  0
  -28.6196  -20.2599   17.9787 C   0  0  0  0  0  0
  -29.6062  -19.1313   20.7476 C   0  0  0  0  0  0
  -29.5744  -21.2531   22.9498 C   0  0  0  0  0  0
  -27.8164  -24.9244   19.7707 C   0  0  0  0  0  0
  -30.1903  -16.0023   20.4820 N   0  0  0  0  0  0
  -31.4455  -12.5403   19.1296 H   0  0  0  0  0  0
  -30.3342  -11.4872   19.9476 H   0  0  0  0  0  0
  -29.7637  -11.7375   17.4984 H   0  0  0  0  0  0
  -29.6134  -13.4641   17.7037 H   0  0  0  0  0  0
  -27.8736  -11.2919   18.9046 H   0  0  0  0  0  0
  -27.3548  -12.5379   17.8024 H   0  0  0  0  0  0
  -27.6245  -14.2628   19.4714 H   0  0  0  0  0  0
  -28.7468  -12.1781   21.3970 H   0  0  0  0  0  0
  -28.4468  -13.8392   21.8081 H   0  0  0  0  0  0
  -25.2761   -9.5678   22.4779 H   0  0  0  0  0  0
  -24.0018   -7.4619   22.7446 H   0  0  0  0  0  0
  -21.0860   -8.8786   19.8949 H   0  0  0  0  0  0
  -22.3710  -10.9692   19.6181 H   0  0  0  0  0  0
  -21.1981   -7.6151   23.9751 H   0  0  0  0  0  0
  -21.1483   -6.0515   25.9098 H   0  0  0  0  0  0
  -22.0592   -2.7627   23.2851 H   0  0  0  0  0  0
  -22.4040  -11.9878   22.4827 H   0  0  0  0  0  0
  -21.1034  -13.1238   22.2590 H   0  0  0  0  0  0
  -24.6484  -15.8473   20.5546 H   0  0  0  0  0  0
  -26.2693  -15.6443   20.1237 H   0  0  0  0  0  0
  -26.7208  -32.5426   23.1121 H   0  0  0  0  0  0
  -25.0145  -33.9747   25.0467 H   0  0  0  0  0  0
  -22.7188  -31.3181   21.4218 H   0  0  0  0  0  0
  -23.3758  -35.9615   23.3296 H   0  0  0  0  0  0
  -24.3598  -36.8882   22.2038 H   0  0  0  0  0  0
  -23.7246  -37.6484   23.6630 H   0  0  0  0  0  0
  -26.1128  -31.5380   20.6231 H   0  0  0  0  0  0
  -26.8541  -30.8192   22.0215 H   0  0  0  0  0  0
  -28.1001  -28.8894   21.2342 H   0  0  0  0  0  0
  -25.8489  -26.0267   18.8599 H   0  0  0  0  0  0
  -23.9408  -27.4092   18.9398 H   0  0  0  0  0  0
  -23.7602  -30.6375   19.4197 H   0  0  0  0  0  0
  -22.7521  -29.2900   19.8529 H   0  0  0  0  0  0
  -25.1292  -36.1938   25.0815 H   0  0  0  0  0  0
  -20.9972  -28.3280   24.1399 H   0  0  0  0  0  0
  -20.5717  -26.2323   23.3597 H   0  0  0  0  0  0
  -21.6663  -26.7479   22.1175 H   0  0  0  0  0  0
  -19.6930  -25.6305   21.1251 H   0  0  0  0  0  0
  -19.6703  -27.3212   20.6742 H   0  0  0  0  0  0
  -17.4215  -26.6682   21.4017 H   0  0  0  0  0  0
  -18.0339  -26.0086   22.9014 H   0  0  0  0  0  0
  -19.7931  -30.7293   24.2268 H   0  0  0  0  0  0
  -17.5000  -31.6279   24.5145 H   0  0  0  0  0  0
  -15.5347  -30.2965   23.7685 H   0  0  0  0  0  0
  -15.8679  -28.0828   22.7045 H   0  0  0  0  0  0
  -24.5890  -30.7127   25.7798 H   0  0  0  0  0  0
  -24.8942  -32.2932   26.4880 H   0  0  0  0  0  0
  -25.8015  -30.8925   27.0255 H   0  0  0  0  0  0
  -26.2859  -29.6738   24.1241 H   0  0  0  0  0  0
  -27.3929  -29.7198   25.4769 H   0  0  0  0  0  0
  -27.8797  -30.4190   23.9508 H   0  0  0  0  0  0
  -27.2780  -33.3611   26.2055 H   0  0  0  0  0  0
  -28.3956  -32.6728   25.0347 H   0  0  0  0  0  0
  -28.0721  -31.8378   26.5465 H   0  0  0  0  0  0
  -28.2587  -38.0119   24.7501 H   0  0  0  0  0  0
  -28.1098  -36.2641   24.6274 H   0  0  0  0  0  0
  -27.2308  -37.1429   25.8867 H   0  0  0  0  0  0
  -20.9404  -29.8804   21.6890 H   0  0  0  0  0  0
  -26.0170  -38.2850   24.1402 H   0  0  0  0  0  0
  -28.1420  -22.8978   18.0465 H   0  0  0  0  0  0
  -28.8848  -23.7159   22.1511 H   0  0  0  0  0  0
  -30.3377  -21.1816   16.8523 H   0  0  0  0  0  0
  -30.0625  -19.4029   16.4904 H   0  0  0  0  0  0
  -27.6742  -19.9220   15.9637 H   0  0  0  0  0  0
  -27.9640  -21.6917   16.3027 H   0  0  0  0  0  0
  -27.8416  -18.3290   21.7320 H   0  0  0  0  0  0
  -27.8998  -17.9736   20.0402 H   0  0  0  0  0  0
  -30.1688  -18.4132   18.7626 H   0  0  0  0  0  0
  -31.4465  -19.1955   19.6405 H   0  0  0  0  0  0
  -28.1842  -15.8807   21.1615 H   0  0  0  0  0  0
  -29.3232  -16.4974   22.3157 H   0  0  0  0  0  0
  -31.8205  -17.2276   21.0148 H   0  0  0  0  0  0
  -31.7883  -16.8092   19.3216 H   0  0  0  0  0  0
  -28.2040  -19.3002   18.2758 H   0  0  0  0  0  0
  -30.1575  -19.1435   21.6856 H   0  0  0  0  0  0
  -29.3466  -22.0497   23.6595 H   0  0  0  0  0  0
  -30.6409  -21.0418   23.0285 H   0  0  0  0  0  0
  -29.0161  -20.3743   23.2746 H   0  0  0  0  0  0
  -26.8416  -24.7243   20.2171 H   0  0  0  0  0  0
  -27.6840  -24.9686   18.6885 H   0  0  0  0  0  0
  1 25  1  0  0  0
  1 30  2  0  0  0
  1 87  1  0  0  0
  2  3  1  0  0  0
  2 25  1  0  0  0
  2 88  1  0  0  0
  2 89  1  0  0  0
  3  4  1  0  0  0
  3 90  1  0  0  0
  3 91  1  0  0  0
  4  5  1  0  0  0
  4 92  1  0  0  0
  4 93  1  0  0  0
  5  6  1  0  0  0
  5 26  1  0  0  0
  5 94  1  0  0  0
  6 25  1  0  0  0
  6 95  1  0  0  0
  6 96  1  0  0  0
  7  8  2  0  0  0
  7 26  1  0  0  0
  7 29  1  0  0  0
  8  9  1  0  0  0
  8 22  1  0  0  0
  9 10  1  0  0  0
  9 27  2  0  0  0
 10 11  2  0  0  0
 10 15  1  0  0  0
 11 12  1  0  0  0
 11 97  1  0  0  0
 12 13  2  0  0  0
 12 98  1  0  0  0
 13 14  1  0  0  0
 13 31  1  0  0  0
 14 15  2  0  0  0
 14 99  1  0  0  0
 15100  1  0  0  0
 16 17  2  0  0  0
 16 21  1  0  0  0
 16 31  1  0  0  0
 17 18  1  0  0  0
 17101  1  0  0  0
 18 19  2  0  0  0
 18102  1  0  0  0
 19 20  1  0  0  0
 19 24  1  0  0  0
 20 21  2  0  0  0
 20103  1  0  0  0
 21 23  1  0  0  0
 22 28  1  0  0  0
 22 32  2  0  0  0
 26 27  1  0  0  0
 28104  1  0  0  0
 28105  1  0  0  0
 29106  1  0  0  0
 29107  1  0  0  0
 33 34  1  0  0  0
 33 66  1  0  0  0
 33 70  2  0  0  0
 34 36  1  0  0  0
 34 59  1  0  0  0
 34108  1  0  0  0
 35 44  2  0  0  0
 35 45  1  0  0  0
 35 68  1  0  0  0
 36 56  1  0  0  0
 36109  1  0  0  0
 37 39  1  0  0  0
 37 47  1  0  0  0
 37 66  1  0  0  0
 37110  1  0  0  0
 38 43  2  0  0  0
 38 46  1  0  0  0
 38 47  1  0  0  0
 39 64  1  0  0  0
 39 67  2  0  0  0
 40 52  1  0  0  0
 40 53  2  0  0  0
 40 58  1  0  0  0
 41111  1  0  0  0
 41112  1  0  0  0
 41113  1  0  0  0
 41 48  1  0  0  0
 42 43  1  0  0  0
 42 66  1  0  0  0
 42114  1  0  0  0
 42115  1  0  0  0
 43 44  1  0  0  0
 44116  1  0  0  0
 45 46  2  0  0  0
 45117  1  0  0  0
 46118  1  0  0  0
 47119  1  0  0  0
 47120  1  0  0  0
 48 56  1  0  0  0
 48 65  1  0  0  0
 48121  1  0  0  0
 49 50  1  0  0  0
 49 53  1  0  0  0
 49 64  1  0  0  0
 49122  1  0  0  0
 50 51  1  0  0  0
 50123  1  0  0  0
 50124  1  0  0  0
 51 52  1  0  0  0
 51125  1  0  0  0
 51126  1  0  0  0
 52127  1  0  0  0
 52128  1  0  0  0
 53 54  1  0  0  0
 54 55  2  0  0  0
 54129  1  0  0  0
 55 57  1  0  0  0
 55130  1  0  0  0
 56 69  2  0  0  0
 57 58  2  0  0  0
 57131  1  0  0  0
 58132  1  0  0  0
 59 60  1  0  0  0
 59 61  1  0  0  0
 59 62  1  0  0  0
 60133  1  0  0  0
 60134  1  0  0  0
 60135  1  0  0  0
 61136  1  0  0  0
 61137  1  0  0  0
 61138  1  0  0  0
 62139  1  0  0  0
 62140  1  0  0  0
 62141  1  0  0  0
 63 65  1  0  0  0
 63142  1  0  0  0
 63143  1  0  0  0
 63144  1  0  0  0
 64145  1  0  0  0
 65146  1  0  0  0
 68 86  1  0  0  0
 71 73  2  0  0  0
 71 75  1  0  0  0
 71147  1  0  0  0
 72 75  2  0  0  0
 72 76  1  0  0  0
 72148  1  0  0  0
 73 74  1  0  0  0
 73 83  1  0  0  0
 74 76  2  0  0  0
 74 84  1  0  0  0
 75 86  1  0  0  0
 76 85  1  0  0  0
 77 78  1  0  0  0
 77 83  1  0  0  0
 77149  1  0  0  0
 77150  1  0  0  0
 78 83  1  0  0  0
 78151  1  0  0  0
 78152  1  0  0  0
 79 81  1  0  0  0
 79 84  1  0  0  0
 79153  1  0  0  0
 79154  1  0  0  0
 80 82  1  0  0  0
 80 84  1  0  0  0
 80155  1  0  0  0
 80156  1  0  0  0
 81 87  1  0  0  0
 81157  1  0  0  0
 81158  1  0  0  0
 82 87  1  0  0  0
 82159  1  0  0  0
 82160  1  0  0  0
 83161  1  0  0  0
 84162  1  0  0  0
 85163  1  0  0  0
 85164  1  0  0  0
 85165  1  0  0  0
 86166  1  0  0  0
 86167  1  0  0  0
M  ISO  4   1 100  68 101  86 101  87 100
M  END
> <chiral flag>
0

> <version>
0

> <s_m_source_file>
/data/baiqing/PycharmProjects/Reinvent-master-3.2/result/LINK_invent/BTK/process_docking_weight1_custom_sum_contain_oxygen_bond_distance_aromatic_linkinvent_7_9_3/rearranged_h_0166.sdf

> <i_m_source_file_index>
24

> <r_mmod_Potential_Energy-OPLS-2005>
489.676879882812

> <r_mmod_Stretch_Energy-OPLS-2005>
117.211540222168

> <r_mmod_Bend_Energy-OPLS-2005>
230.736587524414

> <r_mmod_Torsional_Energy-OPLS-2005>
341.686248779297

> <r_mmod_Improper_Torsional_Energy-OPLS-2005>
15.9646644592285

> <r_mmod_Van_der_Waal_Energy-OPLS-2005>
177.176498413086

> <r_mmod_Electrostatic_Energy-OPLS-2005>
-289.626312255859

> <r_mmod_Solvation_Energy-OPLS-2005>
-196.124069213867

> <b_mmod_Minimization_Converged-OPLS-2005>
0

> <r_mmod_RMS_Derivative-OPLS-2005>
3.50519561767578

$$$$
24
                    3D
 Structure written by MMmdl.
170180  0  0  1  0            999 V2000
  -30.5779  -14.8821   20.4060 C   0  0  0  0  0  0
  -30.4372  -12.5271   19.5144 C   0  0  0  0  0  0
  -29.5235  -12.4922   18.2664 C   0  0  0  0  0  0
  -28.0517  -12.3159   18.6756 C   0  0  0  0  0  0
  -27.6389  -13.2399   19.8511 C   0  0  2  0  0  0
  -28.6824  -13.2494   20.9903 C   0  0  0  0  0  0
  -25.2488  -13.8189   20.5693 C   0  0  0  0  0  0
  -24.1796  -13.0451   20.9202 C   0  0  0  0  0  0
  -24.6397  -11.6930   20.8765 C   0  0  0  0  0  0
  -23.9065  -10.4307   21.0410 C   0  0  0  0  0  0
  -24.3634   -9.4220   21.9181 C   0  0  0  0  0  0
  -23.6323   -8.2247   22.0750 C   0  0  0  0  0  0
  -22.4302   -8.0284   21.3541 C   0  0  0  0  0  0
  -21.9927   -9.0246   20.4639 C   0  0  0  0  0  0
  -22.7230  -10.2139   20.3045 C   0  0  0  0  0  0
  -21.6845   -6.0743   22.5271 C   0  0  0  0  0  0
  -21.4041   -6.5649   23.8207 C   0  0  0  0  0  0
  -21.3664   -5.6802   24.9167 C   0  0  0  0  0  0
  -21.6025   -4.3061   24.7225 C   0  0  0  0  0  0
  -21.8821   -3.8150   23.4351 C   0  0  0  0  0  0
  -21.9214   -4.6973   22.3406 C   0  0  0  0  0  0
  -22.7802  -13.5223   21.1863 C   0  0  0  0  0  0
  -22.1654   -4.2139   21.0985 F   0  0  0  0  0  0
  -21.5625   -3.4551   25.7753 F   0  0  0  0  0  0
  -29.9776  -13.6272   20.4091 N   0  0  0  0  0  0
  -26.2946  -12.9417   20.3329 N   0  0  0  0  0  0
  -25.9340  -11.6559   20.5781 N   0  0  0  0  0  0
  -22.0471  -12.8219   22.0432 N   0  0  0  0  0  0
  -25.4140  -15.1933   20.4061 N   0  0  0  0  0  0
  -31.7562  -14.9526   20.0393 O   0  0  0  0  0  0
  -21.6647   -6.8889   21.4244 O   0  0  0  0  0  0
  -22.3456  -14.5515   20.6684 O   0  0  0  0  0  0
  -24.6402  -31.8437   23.1919 C   0  0  0  0  0  0
  -25.9185  -32.4692   23.8279 C   0  0  1  0  0  0
  -27.2491  -27.1827   20.1637 C   0  0  0  0  0  0
  -25.5944  -33.8496   24.2214 N   0  0  0  0  0  0
  -23.4441  -30.4652   21.5291 C   0  0  2  0  0  0
  -24.9006  -28.8858   20.1132 C   0  0  0  0  0  0
  -22.7563  -29.4562   22.4831 C   0  0  0  0  0  0
  -18.0314  -28.1423   22.8463 C   0  0  0  0  0  0
  -24.1473  -36.7268   23.2650 C   0  0  0  0  0  0
  -25.9908  -30.7322   21.3811 C   0  0  0  0  0  0
  -26.0703  -29.3443   20.7303 C   0  0  0  0  0  0
  -27.2423  -28.5096   20.7399 C   0  0  0  0  0  0
  -26.0568  -26.8108   19.5025 C   0  0  0  0  0  0
  -24.9025  -27.6284   19.4842 C   0  0  0  0  0  0
  -23.6742  -29.7872   20.1511 C   0  0  0  0  0  0
  -25.4092  -36.3039   24.0330 C   0  0  1  0  0  0
  -20.5929  -28.3760   23.1211 C   0  0  2  0  0  0
  -20.6807  -26.9450   22.5413 C   0  0  0  0  0  0
  -19.5781  -26.6393   21.5218 C   0  0  0  0  0  0
  -18.1944  -26.7960   22.1603 C   0  0  0  0  0  0
  -19.1571  -28.8892   23.2832 C   0  0  0  0  0  0
  -18.9496  -30.1476   23.8875 C   0  0  0  0  0  0
  -17.6502  -30.6609   24.0549 C   0  0  0  0  0  0
  -25.9059  -34.9412   23.5075 C   0  0  0  0  0  0
  -16.5388  -29.9111   23.6321 C   0  0  0  0  0  0
  -16.7299  -28.6524   23.0338 C   0  0  0  0  0  0
  -26.4538  -31.6548   25.0694 C   0  0  0  0  0  0
  -25.3749  -31.3694   26.1421 C   0  0  0  0  0  0
  -27.0422  -30.2969   24.6221 C   0  0  0  0  0  0
  -27.6079  -32.4316   25.7459 C   0  0  0  0  0  0
  -27.5564  -37.1778   24.8464 C   0  0  0  0  0  0
  -21.4254  -29.3080   22.3583 N   0  0  0  0  0  0
  -26.4263  -37.3743   23.9432 N   0  0  0  0  0  0
  -24.7101  -31.0359   22.0905 N   0  0  0  0  0  0
  -23.4207  -28.8086   23.2956 O   0  0  0  0  0  0
  -28.3416  -26.2591   20.2572 O   0  0  0  0  0  0
  -26.5657  -34.8919   22.4679 O   0  0  0  0  0  0
  -23.5533  -32.1286   23.7191 O   0  0  0  0  0  0
  -30.2363  -21.3810   19.5642 C   0  0  0  0  0  0
  -28.6451  -21.0051   21.2837 C   0  0  0  0  0  0
  -29.3117  -21.9884   20.4582 C   0  0  0  0  0  0
  -30.4628  -19.9645   19.4205 C   0  0  0  0  0  0
  -28.7961  -19.5531   21.0832 C   0  0  0  0  0  0
  -29.7352  -18.9502   20.1572 C   0  0  0  0  0  0
  -28.5340  -21.8638   23.7235 C   0  0  0  0  0  0
  -27.3185  -20.9840   23.7069 C   0  0  0  0  0  0
  -28.7014  -17.6851   17.3201 C   0  0  0  0  0  0
  -28.5784  -16.2226   17.6469 C   0  0  0  0  0  0
  -27.8202  -21.6105   22.4080 C   0  0  0  0  0  0
  -28.6206  -17.2317   18.7585 C   0  0  0  0  0  0
  -31.5209  -19.6337   18.3654 C   0  0  0  0  0  0
  -27.8703  -18.6075   21.8357 C   0  0  0  0  0  0
  -29.2873  -23.6247   20.6573 C   0  0  0  0  0  0
  -28.1901  -24.7345   20.0786 C   0  0  0  0  0  0
  -29.7930  -17.3536   19.7242 C   0  0  2  0  0  0
  -29.8245  -16.0578   20.5936 N   0  0  0  0  0  0
  -31.4730  -12.6579   19.2017 H   0  0  0  0  0  0
  -30.4013  -11.5720   20.0427 H   0  0  0  0  0  0
  -29.8224  -11.6769   17.6072 H   0  0  0  0  0  0
  -29.6407  -13.4010   17.6782 H   0  0  0  0  0  0
  -27.9193  -11.2741   18.9670 H   0  0  0  0  0  0
  -27.3932  -12.4666   17.8196 H   0  0  0  0  0  0
  -27.6093  -14.2451   19.4384 H   0  0  0  0  0  0
  -28.7492  -12.2739   21.4735 H   0  0  0  0  0  0
  -28.3935  -13.9571   21.7675 H   0  0  0  0  0  0
  -25.2779   -9.5706   22.4750 H   0  0  0  0  0  0
  -24.0027   -7.4646   22.7487 H   0  0  0  0  0  0
  -21.0835   -8.8761   19.8954 H   0  0  0  0  0  0
  -22.3665  -10.9692   19.6161 H   0  0  0  0  0  0
  -21.2021   -7.6145   23.9704 H   0  0  0  0  0  0
  -21.1469   -6.0523   25.9059 H   0  0  0  0  0  0
  -22.0603   -2.7603   23.2846 H   0  0  0  0  0  0
  -22.4126  -11.9931   22.4897 H   0  0  0  0  0  0
  -21.1070  -13.1209   22.2591 H   0  0  0  0  0  0
  -24.6425  -15.8431   20.5149 H   0  0  0  0  0  0
  -26.2455  -15.6312   20.0360 H   0  0  0  0  0  0
  -26.7228  -32.5331   23.0986 H   0  0  0  0  0  0
  -25.0041  -33.9590   25.0326 H   0  0  0  0  0  0
  -22.7421  -31.2855   21.3705 H   0  0  0  0  0  0
  -23.3752  -35.9585   23.3285 H   0  0  0  0  0  0
  -24.3542  -36.8941   22.2068 H   0  0  0  0  0  0
  -23.7217  -37.6453   23.6703 H   0  0  0  0  0  0
  -26.1363  -31.4786   20.6003 H   0  0  0  0  0  0
  -26.8667  -30.7946   22.0120 H   0  0  0  0  0  0
  -28.1345  -28.8523   21.2472 H   0  0  0  0  0  0
  -26.0021  -25.8520   19.0082 H   0  0  0  0  0  0
  -24.0097  -27.2732   18.9851 H   0  0  0  0  0  0
  -23.8163  -30.5580   19.3927 H   0  0  0  0  0  0
  -22.7884  -29.2315   19.8414 H   0  0  0  0  0  0
  -25.1266  -36.1851   25.0816 H   0  0  0  0  0  0
  -21.0013  -28.3397   24.1338 H   0  0  0  0  0  0
  -20.5688  -26.2379   23.3662 H   0  0  0  0  0  0
  -21.6668  -26.7442   22.1200 H   0  0  0  0  0  0
  -19.6944  -25.6289   21.1274 H   0  0  0  0  0  0
  -19.6737  -27.3177   20.6733 H   0  0  0  0  0  0
  -17.4228  -26.6712   21.4000 H   0  0  0  0  0  0
  -18.0322  -26.0101   22.8994 H   0  0  0  0  0  0
  -19.7969  -30.7283   24.2253 H   0  0  0  0  0  0
  -17.5057  -31.6286   24.5192 H   0  0  0  0  0  0
  -15.5381  -30.3012   23.7676 H   0  0  0  0  0  0
  -15.8682  -28.0846   22.7065 H   0  0  0  0  0  0
  -24.5918  -30.7053   25.7732 H   0  0  0  0  0  0
  -24.8961  -32.2872   26.4863 H   0  0  0  0  0  0
  -25.8072  -30.8836   27.0189 H   0  0  0  0  0  0
  -26.3030  -29.6663   24.1275 H   0  0  0  0  0  0
  -27.4146  -29.7264   25.4742 H   0  0  0  0  0  0
  -27.8880  -30.4246   23.9457 H   0  0  0  0  0  0
  -27.2693  -33.3640   26.2001 H   0  0  0  0  0  0
  -28.3916  -32.6870   25.0301 H   0  0  0  0  0  0
  -28.0748  -31.8476   26.5410 H   0  0  0  0  0  0
  -28.2566  -38.0083   24.7532 H   0  0  0  0  0  0
  -28.1077  -36.2635   24.6247 H   0  0  0  0  0  0
  -27.2314  -37.1381   25.8872 H   0  0  0  0  0  0
  -20.9485  -29.8793   21.6743 H   0  0  0  0  0  0
  -26.0145  -38.2808   24.1473 H   0  0  0  0  0  0
  -30.8426  -22.0472   18.9652 H   0  0  0  0  0  0
  -29.4747  -21.3461   23.9172 H   0  0  0  0  0  0
  -28.4297  -22.8302   24.2090 H   0  0  0  0  0  0
  -26.4059  -21.4062   24.1298 H   0  0  0  0  0  0
  -27.4989  -19.9503   23.9774 H   0  0  0  0  0  0
  -27.8281  -18.1987   16.9245 H   0  0  0  0  0  0
  -29.6561  -18.0153   16.9217 H   0  0  0  0  0  0
  -29.4542  -15.6066   17.4730 H   0  0  0  0  0  0
  -27.6177  -15.7459   17.4740 H   0  0  0  0  0  0
  -27.2124  -22.4219   22.0125 H   0  0  0  0  0  0
  -27.6595  -17.4237   19.2212 H   0  0  0  0  0  0
  -32.3578  -20.3270   18.4623 H   0  0  0  0  0  0
  -31.1185  -19.7874   17.3627 H   0  0  0  0  0  0
  -31.9532  -18.6382   18.4097 H   0  0  0  0  0  0
  -28.2822  -18.3216   22.8013 H   0  0  0  0  0  0
  -27.6885  -17.6821   21.3044 H   0  0  0  0  0  0
  -26.8865  -19.0576   21.9757 H   0  0  0  0  0  0
  -30.2509  -23.9610   20.2684 H   0  0  0  0  0  0
  -29.3785  -23.7923   21.7326 H   0  0  0  0  0  0
  -27.2086  -24.4531   20.4598 H   0  0  0  0  0  0
  -28.1322  -24.5834   19.0001 H   0  0  0  0  0  0
  -30.6859  -17.2245   19.1222 H   0  0  0  0  0  0
  -28.9502  -15.8823   21.0651 H   0  0  0  0  0  0
  1 25  1  0  0  0
  1 30  2  0  0  0
  1 88  1  0  0  0
  2  3  1  0  0  0
  2 25  1  0  0  0
  2 89  1  0  0  0
  2 90  1  0  0  0
  3  4  1  0  0  0
  3 91  1  0  0  0
  3 92  1  0  0  0
  4  5  1  0  0  0
  4 93  1  0  0  0
  4 94  1  0  0  0
  5  6  1  0  0  0
  5 26  1  0  0  0
  5 95  1  0  0  0
  6 25  1  0  0  0
  6 96  1  0  0  0
  6 97  1  0  0  0
  7  8  2  0  0  0
  7 26  1  0  0  0
  7 29  1  0  0  0
  8  9  1  0  0  0
  8 22  1  0  0  0
  9 10  1  0  0  0
  9 27  2  0  0  0
 10 11  2  0  0  0
 10 15  1  0  0  0
 11 12  1  0  0  0
 11 98  1  0  0  0
 12 13  2  0  0  0
 12 99  1  0  0  0
 13 14  1  0  0  0
 13 31  1  0  0  0
 14 15  2  0  0  0
 14100  1  0  0  0
 15101  1  0  0  0
 16 17  2  0  0  0
 16 21  1  0  0  0
 16 31  1  0  0  0
 17 18  1  0  0  0
 17102  1  0  0  0
 18 19  2  0  0  0
 18103  1  0  0  0
 19 20  1  0  0  0
 19 24  1  0  0  0
 20 21  2  0  0  0
 20104  1  0  0  0
 21 23  1  0  0  0
 22 28  1  0  0  0
 22 32  2  0  0  0
 26 27  1  0  0  0
 28105  1  0  0  0
 28106  1  0  0  0
 29107  1  0  0  0
 29108  1  0  0  0
 33 34  1  0  0  0
 33 66  1  0  0  0
 33 70  2  0  0  0
 34 36  1  0  0  0
 34 59  1  0  0  0
 34109  1  0  0  0
 35 44  2  0  0  0
 35 45  1  0  0  0
 35 68  1  0  0  0
 36 56  1  0  0  0
 36110  1  0  0  0
 37 39  1  0  0  0
 37 47  1  0  0  0
 37 66  1  0  0  0
 37111  1  0  0  0
 38 43  2  0  0  0
 38 46  1  0  0  0
 38 47  1  0  0  0
 39 64  1  0  0  0
 39 67  2  0  0  0
 40 52  1  0  0  0
 40 53  2  0  0  0
 40 58  1  0  0  0
 41112  1  0  0  0
 41113  1  0  0  0
 41114  1  0  0  0
 41 48  1  0  0  0
 42 43  1  0  0  0
 42 66  1  0  0  0
 42115  1  0  0  0
 42116  1  0  0  0
 43 44  1  0  0  0
 44117  1  0  0  0
 45 46  2  0  0  0
 45118  1  0  0  0
 46119  1  0  0  0
 47120  1  0  0  0
 47121  1  0  0  0
 48 56  1  0  0  0
 48 65  1  0  0  0
 48122  1  0  0  0
 49 50  1  0  0  0
 49 53  1  0  0  0
 49 64  1  0  0  0
 49123  1  0  0  0
 50 51  1  0  0  0
 50124  1  0  0  0
 50125  1  0  0  0
 51 52  1  0  0  0
 51126  1  0  0  0
 51127  1  0  0  0
 52128  1  0  0  0
 52129  1  0  0  0
 53 54  1  0  0  0
 54 55  2  0  0  0
 54130  1  0  0  0
 55 57  1  0  0  0
 55131  1  0  0  0
 56 69  2  0  0  0
 57 58  2  0  0  0
 57132  1  0  0  0
 58133  1  0  0  0
 59 60  1  0  0  0
 59 61  1  0  0  0
 59 62  1  0  0  0
 60134  1  0  0  0
 60135  1  0  0  0
 60136  1  0  0  0
 61137  1  0  0  0
 61138  1  0  0  0
 61139  1  0  0  0
 62140  1  0  0  0
 62141  1  0  0  0
 62142  1  0  0  0
 63 65  1  0  0  0
 63143  1  0  0  0
 63144  1  0  0  0
 63145  1  0  0  0
 64146  1  0  0  0
 65147  1  0  0  0
 68 86  1  0  0  0
 71 73  2  0  0  0
 71 74  1  0  0  0
 71148  1  0  0  0
 72 73  1  0  0  0
 72 75  2  0  0  0
 72 81  1  0  0  0
 73 85  1  0  0  0
 74 76  2  0  0  0
 74 83  1  0  0  0
 75 76  1  0  0  0
 75 84  1  0  0  0
 76 87  1  0  0  0
 77 78  1  0  0  0
 77 81  1  0  0  0
 77149  1  0  0  0
 77150  1  0  0  0
 78 81  1  0  0  0
 78151  1  0  0  0
 78152  1  0  0  0
 79 80  1  0  0  0
 79153  1  0  0  0
 79154  1  0  0  0
 79 82  1  0  0  0
 80 82  1  0  0  0
 80155  1  0  0  0
 80156  1  0  0  0
 81157  1  0  0  0
 82 87  1  0  0  0
 82158  1  0  0  0
 83159  1  0  0  0
 83160  1  0  0  0
 83161  1  0  0  0
 84162  1  0  0  0
 84163  1  0  0  0
 84164  1  0  0  0
 85 86  1  0  0  0
 85165  1  0  0  0
 85166  1  0  0  0
 86167  1  0  0  0
 86168  1  0  0  0
 87 88  1  0  0  0
 87169  1  0  0  0
 88170  1  0  0  0
M  ISO  4   1 100  68 101  86 101  88 100
M  END
> <chiral flag>
0

> <version>
0

> <s_m_source_file>
/data/baiqing/PycharmProjects/Reinvent-master-3.2/result/LINK_invent/BTK/process_docking_weight1_custom_sum_contain_oxygen_bond_distance_aromatic_linkinvent_7_9_3/rearranged_h_0166.sdf

> <i_m_source_file_index>
25

> <r_mmod_Potential_Energy-OPLS-2005>
460.94482421875

> <r_mmod_Stretch_Energy-OPLS-2005>
213.585586547852

> <r_mmod_Bend_Energy-OPLS-2005>
275.195617675781

> <r_mmod_Torsional_Energy-OPLS-2005>
306.926574707031

> <r_mmod_Improper_Torsional_Energy-OPLS-2005>
10.5301322937012

> <r_mmod_Van_der_Waal_Energy-OPLS-2005>
132.619079589844

> <r_mmod_Electrostatic_Energy-OPLS-2005>
-418.943725585938

> <r_mmod_Solvation_Energy-OPLS-2005>
-208.299438476562

> <b_mmod_Minimization_Converged-OPLS-2005>
0

> <r_mmod_RMS_Derivative-OPLS-2005>
5.86509037017822

$$$$
25
                    3D
 Structure written by MMmdl.
162171  0  0  1  0            999 V2000
  -30.6616  -14.7451   20.4640 C   0  0  0  0  0  0
  -30.4103  -12.4643   19.4778 C   0  0  0  0  0  0
  -29.4957  -12.5269   18.2383 C   0  0  0  0  0  0
  -28.0309  -12.3232   18.6579 C   0  0  0  0  0  0
  -27.6304  -13.2262   19.8529 C   0  0  2  0  0  0
  -28.6769  -13.2231   20.9895 C   0  0  0  0  0  0
  -25.2497  -13.8149   20.5775 C   0  0  0  0  0  0
  -24.1777  -13.0417   20.9253 C   0  0  0  0  0  0
  -24.6373  -11.6888   20.8806 C   0  0  0  0  0  0
  -23.9062  -10.4290   21.0461 C   0  0  0  0  0  0
  -24.3629   -9.4195   21.9220 C   0  0  0  0  0  0
  -23.6295   -8.2239   22.0772 C   0  0  0  0  0  0
  -22.4278   -8.0289   21.3554 C   0  0  0  0  0  0
  -21.9932   -9.0262   20.4637 C   0  0  0  0  0  0
  -22.7263  -10.2130   20.3063 C   0  0  0  0  0  0
  -21.6850   -6.0745   22.5289 C   0  0  0  0  0  0
  -21.4024   -6.5649   23.8229 C   0  0  0  0  0  0
  -21.3669   -5.6804   24.9192 C   0  0  0  0  0  0
  -21.6050   -4.3065   24.7236 C   0  0  0  0  0  0
  -21.8812   -3.8154   23.4354 C   0  0  0  0  0  0
  -21.9189   -4.6975   22.3410 C   0  0  0  0  0  0
  -22.7796  -13.5198   21.1897 C   0  0  0  0  0  0
  -22.1645   -4.2162   21.0974 F   0  0  0  0  0  0
  -21.5638   -3.4542   25.7733 F   0  0  0  0  0  0
  -29.9787  -13.5479   20.3931 N   0  0  0  0  0  0
  -26.2889  -12.9346   20.3357 N   0  0  0  0  0  0
  -25.9293  -11.6497   20.5819 N   0  0  0  0  0  0
  -22.0444  -12.8146   22.0420 N   0  0  0  0  0  0
  -25.4219  -15.1889   20.4210 N   0  0  0  0  0  0
  -31.8581  -14.7667   20.1595 O   0  0  0  0  0  0
  -21.6632   -6.8897   21.4254 O   0  0  0  0  0  0
  -22.3470  -14.5517   20.6767 O   0  0  0  0  0  0
  -24.6287  -31.8571   23.1996 C   0  0  0  0  0  0
  -25.9112  -32.4756   23.8340 C   0  0  1  0  0  0
  -27.2130  -27.2739   20.1326 C   0  0  0  0  0  0
  -25.5906  -33.8557   24.2272 N   0  0  0  0  0  0
  -23.4253  -30.4814   21.5439 C   0  0  2  0  0  0
  -24.8715  -28.9381   20.1069 C   0  0  0  0  0  0
  -22.7485  -29.4610   22.4911 C   0  0  0  0  0  0
  -18.0296  -28.1375   22.8492 C   0  0  0  0  0  0
  -24.1492  -36.7283   23.2635 C   0  0  0  0  0  0
  -25.9708  -30.7771   21.3774 C   0  0  0  0  0  0
  -26.0432  -29.4018   20.7178 C   0  0  0  0  0  0
  -27.2184  -28.5831   20.7193 C   0  0  0  0  0  0
  -26.0186  -26.8851   19.4795 C   0  0  0  0  0  0
  -24.8652  -27.6888   19.4730 C   0  0  0  0  0  0
  -23.6383  -29.8182   20.1598 C   0  0  0  0  0  0
  -25.4113  -36.3073   24.0332 C   0  0  1  0  0  0
  -20.5899  -28.3686   23.1274 C   0  0  2  0  0  0
  -20.6771  -26.9397   22.5420 C   0  0  0  0  0  0
  -19.5748  -26.6373   21.5212 C   0  0  0  0  0  0
  -18.1931  -26.7920   22.1618 C   0  0  0  0  0  0
  -19.1555  -28.8845   23.2874 C   0  0  0  0  0  0
  -18.9463  -30.1448   23.8889 C   0  0  0  0  0  0
  -17.6458  -30.6573   24.0560 C   0  0  0  0  0  0
  -25.9061  -34.9439   23.5118 C   0  0  0  0  0  0
  -16.5352  -29.9067   23.6329 C   0  0  0  0  0  0
  -16.7283  -28.6489   23.0357 C   0  0  0  0  0  0
  -26.4477  -31.6546   25.0709 C   0  0  0  0  0  0
  -25.3691  -31.3652   26.1411 C   0  0  0  0  0  0
  -27.0311  -30.2960   24.6170 C   0  0  0  0  0  0
  -27.6055  -32.4253   25.7477 C   0  0  0  0  0  0
  -27.5604  -37.1769   24.8444 C   0  0  0  0  0  0
  -21.4198  -29.3027   22.3646 N   0  0  0  0  0  0
  -26.4284  -37.3779   23.9434 N   0  0  0  0  0  0
  -24.6945  -31.0547   22.0971 N   0  0  0  0  0  0
  -23.4178  -28.8157   23.3020 O   0  0  0  0  0  0
  -28.2927  -26.3660   20.2175 O   0  0  0  0  0  0
  -26.5657  -34.8909   22.4703 O   0  0  0  0  0  0
  -23.5438  -32.1383   23.7298 O   0  0  0  0  0  0
  -30.9756  -21.9184   20.8983 C   0  0  0  0  0  0
  -31.1161  -23.2715   21.2708 C   0  0  0  0  0  0
  -29.7118  -21.4939   20.4470 C   0  0  0  0  0  0
  -29.0126  -23.7689   20.4891 C   0  0  0  0  0  0
  -28.3766  -17.8748   20.0711 C   0  0  0  0  0  0
  -29.9981  -18.3353   21.8661 C   0  0  0  0  0  0
  -29.2971  -16.6708   19.6299 C   0  0  0  0  0  0
  -30.7841  -17.0411   21.4082 C   0  0  0  0  0  0
  -29.0509  -19.0535   20.8482 C   0  0  0  0  0  0
  -32.1843  -20.9892   20.8906 C   0  0  0  0  0  0
  -32.3857  -23.7932   21.9222 C   0  0  0  0  0  0
  -27.9657  -24.8989   20.1211 C   0  0  0  0  0  0
  -30.1414  -24.1776   21.0614 N   0  0  0  0  0  0
  -28.7515  -22.4527   20.2103 N   0  0  0  0  0  0
  -30.0047  -15.9543   20.7307 N   0  0  0  0  0  0
  -29.5283  -20.1626   19.9886 O   0  0  0  0  0  0
  -31.4535  -12.5635   19.1737 H   0  0  0  0  0  0
  -30.3304  -11.4944   19.9717 H   0  0  0  0  0  0
  -29.7863  -11.7777   17.4996 H   0  0  0  0  0  0
  -29.6054  -13.4955   17.7488 H   0  0  0  0  0  0
  -27.9047  -11.2733   18.9256 H   0  0  0  0  0  0
  -27.3692  -12.5018   17.8108 H   0  0  0  0  0  0
  -27.5920  -14.2290   19.4439 H   0  0  0  0  0  0
  -28.7117  -12.2597   21.5003 H   0  0  0  0  0  0
  -28.4073  -13.9617   21.7442 H   0  0  0  0  0  0
  -25.2782   -9.5637   22.4791 H   0  0  0  0  0  0
  -24.0001   -7.4617   22.7462 H   0  0  0  0  0  0
  -21.0908   -8.8792   19.8882 H   0  0  0  0  0  0
  -22.3794  -10.9686   19.6155 H   0  0  0  0  0  0
  -21.2022   -7.6151   23.9742 H   0  0  0  0  0  0
  -21.1499   -6.0527   25.9099 H   0  0  0  0  0  0
  -22.0575   -2.7606   23.2858 H   0  0  0  0  0  0
  -22.4095  -11.9806   22.4766 H   0  0  0  0  0  0
  -21.1051  -13.1139   22.2631 H   0  0  0  0  0  0
  -24.6585  -15.8465   20.5331 H   0  0  0  0  0  0
  -26.2859  -15.6285   20.1346 H   0  0  0  0  0  0
  -26.7182  -32.5421   23.1091 H   0  0  0  0  0  0
  -24.9963  -33.9685   25.0357 H   0  0  0  0  0  0
  -22.7205  -31.3035   21.4016 H   0  0  0  0  0  0
  -23.3785  -35.9580   23.3215 H   0  0  0  0  0  0
  -24.3604  -36.8996   22.2068 H   0  0  0  0  0  0
  -23.7192  -37.6432   23.6721 H   0  0  0  0  0  0
  -26.1070  -31.5392   20.6081 H   0  0  0  0  0  0
  -26.8499  -30.8270   22.0088 H   0  0  0  0  0  0
  -28.1131  -28.9296   21.2158 H   0  0  0  0  0  0
  -25.9306  -25.9346   18.9763 H   0  0  0  0  0  0
  -23.9712  -27.3312   18.9801 H   0  0  0  0  0  0
  -23.7468  -30.5940   19.4016 H   0  0  0  0  0  0
  -22.7581  -29.2447   19.8632 H   0  0  0  0  0  0
  -25.1282  -36.1933   25.0823 H   0  0  0  0  0  0
  -21.0005  -28.3270   24.1386 H   0  0  0  0  0  0
  -20.5662  -26.2281   23.3617 H   0  0  0  0  0  0
  -21.6638  -26.7389   22.1232 H   0  0  0  0  0  0
  -19.6904  -25.6290   21.1224 H   0  0  0  0  0  0
  -19.6691  -27.3196   20.6756 H   0  0  0  0  0  0
  -17.4196  -26.6685   21.4018 H   0  0  0  0  0  0
  -18.0312  -26.0061   22.9009 H   0  0  0  0  0  0
  -19.7927  -30.7279   24.2244 H   0  0  0  0  0  0
  -17.4999  -31.6248   24.5166 H   0  0  0  0  0  0
  -15.5351  -30.2956   23.7645 H   0  0  0  0  0  0
  -15.8686  -28.0796   22.7071 H   0  0  0  0  0  0
  -24.5954  -30.6904   25.7724 H   0  0  0  0  0  0
  -24.8760  -32.2779   26.4756 H   0  0  0  0  0  0
  -25.8013  -30.8900   27.0225 H   0  0  0  0  0  0
  -26.2868  -29.6703   24.1225 H   0  0  0  0  0  0
  -27.4017  -29.7225   25.4675 H   0  0  0  0  0  0
  -27.8741  -30.4219   23.9377 H   0  0  0  0  0  0
  -27.2717  -33.3589   26.2012 H   0  0  0  0  0  0
  -28.3881  -32.6727   25.0296 H   0  0  0  0  0  0
  -28.0686  -31.8370   26.5408 H   0  0  0  0  0  0
  -28.2525  -38.0163   24.7643 H   0  0  0  0  0  0
  -28.1204  -36.2702   24.6095 H   0  0  0  0  0  0
  -27.2337  -37.1194   25.8841 H   0  0  0  0  0  0
  -20.9370  -29.8717   21.6839 H   0  0  0  0  0  0
  -26.0166  -38.2836   24.1518 H   0  0  0  0  0  0
  -27.6065  -17.4595   20.7233 H   0  0  0  0  0  0
  -27.8345  -18.2750   19.2140 H   0  0  0  0  0  0
  -30.6758  -19.0527   22.3267 H   0  0  0  0  0  0
  -29.3575  -18.0156   22.6906 H   0  0  0  0  0  0
  -30.0364  -17.0367   18.9171 H   0  0  0  0  0  0
  -28.6973  -15.9672   19.0602 H   0  0  0  0  0  0
  -31.2577  -16.6162   22.2965 H   0  0  0  0  0  0
  -31.6047  -17.3484   20.7559 H   0  0  0  0  0  0
  -28.2671  -19.5272   21.4393 H   0  0  0  0  0  0
  -32.9154  -21.3610   20.1707 H   0  0  0  0  0  0
  -31.9326  -19.9749   20.5829 H   0  0  0  0  0  0
  -32.6661  -20.9449   21.8689 H   0  0  0  0  0  0
  -32.5515  -23.2710   22.8647 H   0  0  0  0  0  0
  -32.3288  -24.8602   22.1428 H   0  0  0  0  0  0
  -33.2556  -23.6269   21.2867 H   0  0  0  0  0  0
  -27.0884  -24.7000   20.7403 H   0  0  0  0  0  0
  -27.6746  -24.6844   19.0927 H   0  0  0  0  0  0
  1 25  1  0  0  0
  1 30  2  0  0  0
  1 85  1  0  0  0
  2  3  1  0  0  0
  2 25  1  0  0  0
  2 87  1  0  0  0
  2 88  1  0  0  0
  3  4  1  0  0  0
  3 89  1  0  0  0
  3 90  1  0  0  0
  4  5  1  0  0  0
  4 91  1  0  0  0
  4 92  1  0  0  0
  5  6  1  0  0  0
  5 26  1  0  0  0
  5 93  1  0  0  0
  6 25  1  0  0  0
  6 94  1  0  0  0
  6 95  1  0  0  0
  7  8  2  0  0  0
  7 26  1  0  0  0
  7 29  1  0  0  0
  8  9  1  0  0  0
  8 22  1  0  0  0
  9 10  1  0  0  0
  9 27  2  0  0  0
 10 11  2  0  0  0
 10 15  1  0  0  0
 11 12  1  0  0  0
 11 96  1  0  0  0
 12 13  2  0  0  0
 12 97  1  0  0  0
 13 14  1  0  0  0
 13 31  1  0  0  0
 14 15  2  0  0  0
 14 98  1  0  0  0
 15 99  1  0  0  0
 16 17  2  0  0  0
 16 21  1  0  0  0
 16 31  1  0  0  0
 17 18  1  0  0  0
 17100  1  0  0  0
 18 19  2  0  0  0
 18101  1  0  0  0
 19 20  1  0  0  0
 19 24  1  0  0  0
 20 21  2  0  0  0
 20102  1  0  0  0
 21 23  1  0  0  0
 22 28  1  0  0  0
 22 32  2  0  0  0
 26 27  1  0  0  0
 28103  1  0  0  0
 28104  1  0  0  0
 29105  1  0  0  0
 29106  1  0  0  0
 33 34  1  0  0  0
 33 66  1  0  0  0
 33 70  2  0  0  0
 34 36  1  0  0  0
 34 59  1  0  0  0
 34107  1  0  0  0
 35 44  2  0  0  0
 35 45  1  0  0  0
 35 68  1  0  0  0
 36 56  1  0  0  0
 36108  1  0  0  0
 37 39  1  0  0  0
 37 47  1  0  0  0
 37 66  1  0  0  0
 37109  1  0  0  0
 38 43  2  0  0  0
 38 46  1  0  0  0
 38 47  1  0  0  0
 39 64  1  0  0  0
 39 67  2  0  0  0
 40 52  1  0  0  0
 40 53  2  0  0  0
 40 58  1  0  0  0
 41110  1  0  0  0
 41111  1  0  0  0
 41112  1  0  0  0
 41 48  1  0  0  0
 42 43  1  0  0  0
 42 66  1  0  0  0
 42113  1  0  0  0
 42114  1  0  0  0
 43 44  1  0  0  0
 44115  1  0  0  0
 45 46  2  0  0  0
 45116  1  0  0  0
 46117  1  0  0  0
 47118  1  0  0  0
 47119  1  0  0  0
 48 56  1  0  0  0
 48 65  1  0  0  0
 48120  1  0  0  0
 49 50  1  0  0  0
 49 53  1  0  0  0
 49 64  1  0  0  0
 49121  1  0  0  0
 50 51  1  0  0  0
 50122  1  0  0  0
 50123  1  0  0  0
 51 52  1  0  0  0
 51124  1  0  0  0
 51125  1  0  0  0
 52126  1  0  0  0
 52127  1  0  0  0
 53 54  1  0  0  0
 54 55  2  0  0  0
 54128  1  0  0  0
 55 57  1  0  0  0
 55129  1  0  0  0
 56 69  2  0  0  0
 57 58  2  0  0  0
 57130  1  0  0  0
 58131  1  0  0  0
 59 60  1  0  0  0
 59 61  1  0  0  0
 59 62  1  0  0  0
 60132  1  0  0  0
 60133  1  0  0  0
 60134  1  0  0  0
 61135  1  0  0  0
 61136  1  0  0  0
 61137  1  0  0  0
 62138  1  0  0  0
 62139  1  0  0  0
 62140  1  0  0  0
 63 65  1  0  0  0
 63141  1  0  0  0
 63142  1  0  0  0
 63143  1  0  0  0
 64144  1  0  0  0
 65145  1  0  0  0
 68 82  1  0  0  0
 71 72  2  0  0  0
 71 73  1  0  0  0
 71 80  1  0  0  0
 72 81  1  0  0  0
 72 83  1  0  0  0
 73 84  2  0  0  0
 73 86  1  0  0  0
 74 82  1  0  0  0
 74 83  2  0  0  0
 74 84  1  0  0  0
 75 77  1  0  0  0
 75 79  1  0  0  0
 75146  1  0  0  0
 75147  1  0  0  0
 76 78  1  0  0  0
 76 79  1  0  0  0
 76148  1  0  0  0
 76149  1  0  0  0
 77 85  1  0  0  0
 77150  1  0  0  0
 77151  1  0  0  0
 78 85  1  0  0  0
 78152  1  0  0  0
 78153  1  0  0  0
 79 86  1  0  0  0
 79154  1  0  0  0
 80155  1  0  0  0
 80156  1  0  0  0
 80157  1  0  0  0
 81158  1  0  0  0
 81159  1  0  0  0
 81160  1  0  0  0
 82161  1  0  0  0
 82162  1  0  0  0
M  ISO  4   1 100  68 101  82 101  85 100
M  END
> <chiral flag>
0

> <version>
0

> <s_m_source_file>
/data/baiqing/PycharmProjects/Reinvent-master-3.2/result/LINK_invent/BTK/process_docking_weight1_custom_sum_contain_oxygen_bond_distance_aromatic_linkinvent_7_9_3/rearranged_h_0166.sdf

> <i_m_source_file_index>
26

> <r_mmod_Potential_Energy-OPLS-2005>
29.8206081390381

> <r_mmod_Stretch_Energy-OPLS-2005>
106.973846435547

> <r_mmod_Bend_Energy-OPLS-2005>
198.621459960938

> <r_mmod_Torsional_Energy-OPLS-2005>
356.6103515625

> <r_mmod_Improper_Torsional_Energy-OPLS-2005>
10.0585660934448

> <r_mmod_Van_der_Waal_Energy-OPLS-2005>
153.607528686523

> <r_mmod_Electrostatic_Energy-OPLS-2005>
-658.49853515625

> <r_mmod_Solvation_Energy-OPLS-2005>
-225.617431640625

> <b_mmod_Minimization_Converged-OPLS-2005>
0

> <r_mmod_RMS_Derivative-OPLS-2005>
3.42359161376953

$$$$
26
                    3D
 Structure written by MMmdl.
175185  0  0  1  0            999 V2000
  -30.6760  -14.5410   20.5492 C   0  0  0  0  0  0
  -30.4268  -12.3445   19.4355 C   0  0  0  0  0  0
  -29.4984  -12.5063   18.2143 C   0  0  0  0  0  0
  -28.0212  -12.3558   18.6277 C   0  0  0  0  0  0
  -27.6569  -13.2120   19.8705 C   0  0  2  0  0  0
  -28.7001  -13.0348   20.9959 C   0  0  0  0  0  0
  -25.2578  -13.8168   20.5693 C   0  0  0  0  0  0
  -24.1832  -13.0441   20.9178 C   0  0  0  0  0  0
  -24.6396  -11.6908   20.8738 C   0  0  0  0  0  0
  -23.9063  -10.4297   21.0402 C   0  0  0  0  0  0
  -24.3619   -9.4214   21.9181 C   0  0  0  0  0  0
  -23.6299   -8.2247   22.0752 C   0  0  0  0  0  0
  -22.4281   -8.0279   21.3541 C   0  0  0  0  0  0
  -21.9913   -9.0250   20.4642 C   0  0  0  0  0  0
  -22.7235  -10.2134   20.3054 C   0  0  0  0  0  0
  -21.6853   -6.0739   22.5279 C   0  0  0  0  0  0
  -21.4011   -6.5642   23.8212 C   0  0  0  0  0  0
  -21.3664   -5.6795   24.9175 C   0  0  0  0  0  0
  -21.6043   -4.3057   24.7228 C   0  0  0  0  0  0
  -21.8817   -3.8150   23.4348 C   0  0  0  0  0  0
  -21.9194   -4.6966   22.3406 C   0  0  0  0  0  0
  -22.7855  -13.5232   21.1841 C   0  0  0  0  0  0
  -22.1657   -4.2155   21.0982 F   0  0  0  0  0  0
  -21.5638   -3.4537   25.7740 F   0  0  0  0  0  0
  -30.0226  -13.3488   20.4348 N   0  0  0  0  0  0
  -26.3008  -12.9339   20.3362 N   0  0  0  0  0  0
  -25.9324  -11.6496   20.5778 N   0  0  0  0  0  0
  -22.0504  -12.8227   22.0401 N   0  0  0  0  0  0
  -25.4308  -15.1890   20.4118 N   0  0  0  0  0  0
  -31.8221  -14.7065   20.1219 O   0  0  0  0  0  0
  -21.6641   -6.8880   21.4240 O   0  0  0  0  0  0
  -22.3540  -14.5538   20.6691 O   0  0  0  0  0  0
  -24.6200  -31.8651   23.2077 C   0  0  0  0  0  0
  -25.9077  -32.4805   23.8387 C   0  0  1  0  0  0
  -27.2233  -27.3863   20.1140 C   0  0  0  0  0  0
  -25.5923  -33.8606   24.2321 N   0  0  0  0  0  0
  -23.4109  -30.4885   21.5493 C   0  0  2  0  0  0
  -24.8574  -28.9537   20.1096 C   0  0  0  0  0  0
  -22.7448  -29.4642   22.4981 C   0  0  0  0  0  0
  -18.0285  -28.1381   22.8494 C   0  0  0  0  0  0
  -24.1486  -36.7298   23.2636 C   0  0  0  0  0  0
  -25.9449  -30.8171   21.3679 C   0  0  0  0  0  0
  -26.0214  -29.4497   20.7113 C   0  0  0  0  0  0
  -27.2113  -28.6766   20.7051 C   0  0  0  0  0  0
  -26.0474  -26.9283   19.4810 C   0  0  0  0  0  0
  -24.8678  -27.6948   19.4870 C   0  0  0  0  0  0
  -23.6202  -29.8234   20.1628 C   0  0  0  0  0  0
  -25.4113  -36.3102   24.0329 C   0  0  1  0  0  0
  -20.5879  -28.3670   23.1312 C   0  0  2  0  0  0
  -20.6774  -26.9403   22.5421 C   0  0  0  0  0  0
  -19.5743  -26.6387   21.5228 C   0  0  0  0  0  0
  -18.1923  -26.7928   22.1630 C   0  0  0  0  0  0
  -19.1535  -28.8846   23.2898 C   0  0  0  0  0  0
  -18.9456  -30.1453   23.8904 C   0  0  0  0  0  0
  -17.6453  -30.6584   24.0561 C   0  0  0  0  0  0
  -25.9044  -34.9464   23.5124 C   0  0  0  0  0  0
  -16.5348  -29.9079   23.6333 C   0  0  0  0  0  0
  -16.7271  -28.6497   23.0358 C   0  0  0  0  0  0
  -26.4493  -31.6593   25.0730 C   0  0  0  0  0  0
  -25.3744  -31.3697   26.1470 C   0  0  0  0  0  0
  -27.0336  -30.3027   24.6133 C   0  0  0  0  0  0
  -27.6075  -32.4317   25.7477 C   0  0  0  0  0  0
  -27.5585  -37.1802   24.8466 C   0  0  0  0  0  0
  -21.4173  -29.3030   22.3718 N   0  0  0  0  0  0
  -26.4295  -37.3792   23.9414 N   0  0  0  0  0  0
  -24.6773  -31.0715   22.0995 N   0  0  0  0  0  0
  -23.4206  -28.8184   23.3033 O   0  0  0  0  0  0
  -28.3375  -26.5607   20.1618 O   0  0  0  0  0  0
  -26.5600  -34.8915   22.4683 O   0  0  0  0  0  0
  -23.5380  -32.1430   23.7447 O   0  0  0  0  0  0
  -33.1716  -19.9037   23.0199 C   0  0  0  0  0  0
  -32.3154  -19.2438   22.1345 C   0  0  0  0  0  0
  -30.8103  -21.1800   22.0782 C   0  0  0  0  0  0
  -32.8265  -21.1606   23.5246 C   0  0  0  0  0  0
  -31.0832  -19.8063   21.7065 C   0  0  0  0  0  0
  -31.6705  -21.8179   23.0303 C   0  0  0  0  0  0
  -28.6698  -21.5034   20.5076 C   0  0  0  0  0  0
  -27.8361  -22.7411   20.1091 C   0  0  0  0  0  0
  -29.9885  -23.4310   20.9435 C   0  0  0  0  0  0
  -30.5101  -16.6266   21.9220 C   0  0  0  0  0  0
  -29.4553  -16.6941   20.1606 C   0  0  0  0  0  0
  -29.6138  -22.0505   21.5748 C   0  0  2  0  0  0
  -30.5436  -17.6061   20.7352 C   0  0  0  0  0  0
  -28.7804  -23.9793   20.1225 C   0  0  1  0  0  0
  -33.6949  -21.7380   24.6307 C   0  0  0  0  0  0
  -29.2145  -24.3040   18.6805 C   0  0  0  0  0  0
  -32.2662  -24.1034   23.4338 C   0  0  0  0  0  0
  -28.1028  -25.2541   20.7747 C   0  0  0  0  0  0
  -29.9483  -15.5913   21.0267 N   0  0  0  0  0  0
  -30.1861  -19.0005   20.9952 O   0  0  0  0  0  0
  -31.3066  -23.0499   23.5324 O   0  0  0  0  0  0
  -31.4701  -12.4523   19.1334 H   0  0  0  0  0  0
  -30.3404  -11.3414   19.8561 H   0  0  0  0  0  0
  -29.7504  -11.7715   17.4482 H   0  0  0  0  0  0
  -29.6535  -13.4866   17.7616 H   0  0  0  0  0  0
  -27.8445  -11.3006   18.8404 H   0  0  0  0  0  0
  -27.3674  -12.6083   17.7916 H   0  0  0  0  0  0
  -27.6881  -14.2538   19.5514 H   0  0  0  0  0  0
  -28.6917  -12.0109   21.3715 H   0  0  0  0  0  0
  -28.4576  -13.6686   21.8508 H   0  0  0  0  0  0
  -25.2762   -9.5694   22.4757 H   0  0  0  0  0  0
  -24.0010   -7.4639   22.7471 H   0  0  0  0  0  0
  -21.0845   -8.8757   19.8951 H   0  0  0  0  0  0
  -22.3680  -10.9670   19.6167 H   0  0  0  0  0  0
  -21.1989   -7.6147   23.9717 H   0  0  0  0  0  0
  -21.1493   -6.0525   25.9080 H   0  0  0  0  0  0
  -22.0595   -2.7613   23.2845 H   0  0  0  0  0  0
  -22.4112  -11.9885   22.4787 H   0  0  0  0  0  0
  -21.1121  -13.1251   22.2608 H   0  0  0  0  0  0
  -24.6705  -15.8500   20.5295 H   0  0  0  0  0  0
  -26.2960  -15.6268   20.1218 H   0  0  0  0  0  0
  -26.7152  -32.5492   23.1149 H   0  0  0  0  0  0
  -25.0101  -33.9767   25.0483 H   0  0  0  0  0  0
  -22.7021  -31.3074   21.4100 H   0  0  0  0  0  0
  -23.3752  -35.9625   23.3304 H   0  0  0  0  0  0
  -24.3582  -36.8918   22.2054 H   0  0  0  0  0  0
  -23.7228  -37.6497   23.6648 H   0  0  0  0  0  0
  -26.0659  -31.5832   20.6009 H   0  0  0  0  0  0
  -26.8309  -30.8666   21.9897 H   0  0  0  0  0  0
  -28.1058  -29.0494   21.1844 H   0  0  0  0  0  0
  -26.0359  -25.9603   19.0000 H   0  0  0  0  0  0
  -23.9748  -27.3104   19.0144 H   0  0  0  0  0  0
  -23.7273  -30.6001   19.4050 H   0  0  0  0  0  0
  -22.7428  -29.2455   19.8671 H   0  0  0  0  0  0
  -25.1287  -36.1966   25.0817 H   0  0  0  0  0  0
  -20.9976  -28.3238   24.1432 H   0  0  0  0  0  0
  -20.5703  -26.2276   23.3614 H   0  0  0  0  0  0
  -21.6638  -26.7451   22.1197 H   0  0  0  0  0  0
  -19.6897  -25.6306   21.1244 H   0  0  0  0  0  0
  -19.6677  -27.3212   20.6772 H   0  0  0  0  0  0
  -17.4205  -26.6709   21.4022 H   0  0  0  0  0  0
  -18.0292  -26.0064   22.9015 H   0  0  0  0  0  0
  -19.7926  -30.7282   24.2271 H   0  0  0  0  0  0
  -17.4994  -31.6260   24.5168 H   0  0  0  0  0  0
  -15.5341  -30.2971   23.7650 H   0  0  0  0  0  0
  -15.8678  -28.0810   22.7067 H   0  0  0  0  0  0
  -24.5920  -30.7045   25.7794 H   0  0  0  0  0  0
  -24.8921  -32.2843   26.4927 H   0  0  0  0  0  0
  -25.8087  -30.8853   27.0225 H   0  0  0  0  0  0
  -26.2891  -29.6779   24.1188 H   0  0  0  0  0  0
  -27.4102  -29.7277   25.4604 H   0  0  0  0  0  0
  -27.8722  -30.4346   23.9293 H   0  0  0  0  0  0
  -27.2719  -33.3624   26.2065 H   0  0  0  0  0  0
  -28.3868  -32.6885   25.0285 H   0  0  0  0  0  0
  -28.0761  -31.8432   26.5380 H   0  0  0  0  0  0
  -28.2607  -38.0097   24.7533 H   0  0  0  0  0  0
  -28.1079  -36.2637   24.6270 H   0  0  0  0  0  0
  -27.2298  -37.1426   25.8864 H   0  0  0  0  0  0
  -20.9354  -29.8734   21.6915 H   0  0  0  0  0  0
  -26.0183  -38.2861   24.1430 H   0  0  0  0  0  0
  -34.0695  -19.4046   23.3582 H   0  0  0  0  0  0
  -32.6415  -18.2589   21.8417 H   0  0  0  0  0  0
  -29.2334  -21.1452   19.6454 H   0  0  0  0  0  0
  -28.0517  -20.6823   20.8733 H   0  0  0  0  0  0
  -27.0447  -22.8584   20.8508 H   0  0  0  0  0  0
  -27.3340  -22.6012   19.1511 H   0  0  0  0  0  0
  -30.8458  -23.2818   20.2861 H   0  0  0  0  0  0
  -30.3039  -24.1663   21.6757 H   0  0  0  0  0  0
  -29.8252  -16.9299   22.7160 H   0  0  0  0  0  0
  -31.4923  -16.3920   22.3347 H   0  0  0  0  0  0
  -29.5578  -16.5252   19.0871 H   0  0  0  0  0  0
  -28.4426  -17.0183   20.4067 H   0  0  0  0  0  0
  -29.0042  -22.2464   22.4587 H   0  0  0  0  0  0
  -31.4525  -17.5189   20.1348 H   0  0  0  0  0  0
  -34.2906  -20.9637   25.1159 H   0  0  0  0  0  0
  -33.0777  -22.1934   25.4056 H   0  0  0  0  0  0
  -34.3836  -22.4849   24.2360 H   0  0  0  0  0  0
  -29.6221  -23.4267   18.1774 H   0  0  0  0  0  0
  -29.9838  -25.0762   18.6682 H   0  0  0  0  0  0
  -28.3771  -24.6669   18.0840 H   0  0  0  0  0  0
  -31.7608  -25.0426   23.2088 H   0  0  0  0  0  0
  -32.9998  -23.9284   22.6448 H   0  0  0  0  0  0
  -32.7860  -24.2581   24.3780 H   0  0  0  0  0  0
  -28.4246  -25.3441   21.8122 H   0  0  0  0  0  0
  -27.0351  -25.0611   20.8750 H   0  0  0  0  0  0
  1 25  1  0  0  0
  1 30  2  0  0  0
  1 89  1  0  0  0
  2  3  1  0  0  0
  2 25  1  0  0  0
  2 92  1  0  0  0
  2 93  1  0  0  0
  3  4  1  0  0  0
  3 94  1  0  0  0
  3 95  1  0  0  0
  4  5  1  0  0  0
  4 96  1  0  0  0
  4 97  1  0  0  0
  5  6  1  0  0  0
  5 26  1  0  0  0
  5 98  1  0  0  0
  6 25  1  0  0  0
  6 99  1  0  0  0
  6100  1  0  0  0
  7  8  2  0  0  0
  7 26  1  0  0  0
  7 29  1  0  0  0
  8  9  1  0  0  0
  8 22  1  0  0  0
  9 10  1  0  0  0
  9 27  2  0  0  0
 10 11  2  0  0  0
 10 15  1  0  0  0
 11 12  1  0  0  0
 11101  1  0  0  0
 12 13  2  0  0  0
 12102  1  0  0  0
 13 14  1  0  0  0
 13 31  1  0  0  0
 14 15  2  0  0  0
 14103  1  0  0  0
 15104  1  0  0  0
 16 17  2  0  0  0
 16 21  1  0  0  0
 16 31  1  0  0  0
 17 18  1  0  0  0
 17105  1  0  0  0
 18 19  2  0  0  0
 18106  1  0  0  0
 19 20  1  0  0  0
 19 24  1  0  0  0
 20 21  2  0  0  0
 20107  1  0  0  0
 21 23  1  0  0  0
 22 28  1  0  0  0
 22 32  2  0  0  0
 26 27  1  0  0  0
 28108  1  0  0  0
 28109  1  0  0  0
 29110  1  0  0  0
 29111  1  0  0  0
 33 34  1  0  0  0
 33 66  1  0  0  0
 33 70  2  0  0  0
 34 36  1  0  0  0
 34 59  1  0  0  0
 34112  1  0  0  0
 35 44  2  0  0  0
 35 45  1  0  0  0
 35 68  1  0  0  0
 36 56  1  0  0  0
 36113  1  0  0  0
 37 39  1  0  0  0
 37 47  1  0  0  0
 37 66  1  0  0  0
 37114  1  0  0  0
 38 43  2  0  0  0
 38 46  1  0  0  0
 38 47  1  0  0  0
 39 64  1  0  0  0
 39 67  2  0  0  0
 40 52  1  0  0  0
 40 53  2  0  0  0
 40 58  1  0  0  0
 41115  1  0  0  0
 41116  1  0  0  0
 41117  1  0  0  0
 41 48  1  0  0  0
 42 43  1  0  0  0
 42 66  1  0  0  0
 42118  1  0  0  0
 42119  1  0  0  0
 43 44  1  0  0  0
 44120  1  0  0  0
 45 46  2  0  0  0
 45121  1  0  0  0
 46122  1  0  0  0
 47123  1  0  0  0
 47124  1  0  0  0
 48 56  1  0  0  0
 48 65  1  0  0  0
 48125  1  0  0  0
 49 50  1  0  0  0
 49 53  1  0  0  0
 49 64  1  0  0  0
 49126  1  0  0  0
 50 51  1  0  0  0
 50127  1  0  0  0
 50128  1  0  0  0
 51 52  1  0  0  0
 51129  1  0  0  0
 51130  1  0  0  0
 52131  1  0  0  0
 52132  1  0  0  0
 53 54  1  0  0  0
 54 55  2  0  0  0
 54133  1  0  0  0
 55 57  1  0  0  0
 55134  1  0  0  0
 56 69  2  0  0  0
 57 58  2  0  0  0
 57135  1  0  0  0
 58136  1  0  0  0
 59 60  1  0  0  0
 59 61  1  0  0  0
 59 62  1  0  0  0
 60137  1  0  0  0
 60138  1  0  0  0
 60139  1  0  0  0
 61140  1  0  0  0
 61141  1  0  0  0
 61142  1  0  0  0
 62143  1  0  0  0
 62144  1  0  0  0
 62145  1  0  0  0
 63 65  1  0  0  0
 63146  1  0  0  0
 63147  1  0  0  0
 63148  1  0  0  0
 64149  1  0  0  0
 65150  1  0  0  0
 68 88  1  0  0  0
 71 72  2  0  0  0
 71 74  1  0  0  0
 71151  1  0  0  0
 72 75  1  0  0  0
 72152  1  0  0  0
 73 75  2  0  0  0
 73 76  1  0  0  0
 73 82  1  0  0  0
 74 76  2  0  0  0
 74 85  1  0  0  0
 75 90  1  0  0  0
 76 91  1  0  0  0
 77 78  1  0  0  0
 77 82  1  0  0  0
 77153  1  0  0  0
 77154  1  0  0  0
 78 84  1  0  0  0
 78155  1  0  0  0
 78156  1  0  0  0
 79 82  1  0  0  0
 79 84  1  0  0  0
 79157  1  0  0  0
 79158  1  0  0  0
 80 83  1  0  0  0
 80 89  1  0  0  0
 80159  1  0  0  0
 80160  1  0  0  0
 81 83  1  0  0  0
 81 89  1  0  0  0
 81161  1  0  0  0
 81162  1  0  0  0
 82163  1  0  0  0
 83 90  1  0  0  0
 83164  1  0  0  0
 84 86  1  0  0  0
 84 88  1  0  0  0
 85165  1  0  0  0
 85166  1  0  0  0
 85167  1  0  0  0
 86168  1  0  0  0
 86169  1  0  0  0
 86170  1  0  0  0
 87 91  1  0  0  0
 87171  1  0  0  0
 87172  1  0  0  0
 87173  1  0  0  0
 88174  1  0  0  0
 88175  1  0  0  0
M  ISO  4   1 100  68 101  88 101  89 100
M  END
> <chiral flag>
0

> <version>
0

> <s_m_source_file>
/data/baiqing/PycharmProjects/Reinvent-master-3.2/result/LINK_invent/BTK/process_docking_weight1_custom_sum_contain_oxygen_bond_distance_aromatic_linkinvent_7_9_3/rearranged_h_0166.sdf

> <i_m_source_file_index>
27

> <r_mmod_Potential_Energy-OPLS-2005>
238.939926147461

> <r_mmod_Stretch_Energy-OPLS-2005>
67.0690155029297

> <r_mmod_Bend_Energy-OPLS-2005>
170.257995605469

> <r_mmod_Torsional_Energy-OPLS-2005>
371.967864990234

> <r_mmod_Improper_Torsional_Energy-OPLS-2005>
10.743577003479

> <r_mmod_Van_der_Waal_Energy-OPLS-2005>
171.673690795898

> <r_mmod_Electrostatic_Energy-OPLS-2005>
-377.759643554688

> <r_mmod_Solvation_Energy-OPLS-2005>
-200.599914550781

> <b_mmod_Minimization_Converged-OPLS-2005>
0

> <r_mmod_RMS_Derivative-OPLS-2005>
1.19399905204773

$$$$
27
                    3D
 Structure written by MMmdl.
179189  0  0  1  0            999 V2000
  -30.6792  -14.5079   20.5687 C   0  0  0  0  0  0
  -30.4287  -12.3289   19.4306 C   0  0  0  0  0  0
  -29.4978  -12.5008   18.2114 C   0  0  0  0  0  0
  -28.0206  -12.3508   18.6261 C   0  0  0  0  0  0
  -27.6588  -13.2046   19.8707 C   0  0  2  0  0  0
  -28.6995  -13.0065   20.9962 C   0  0  0  0  0  0
  -25.2581  -13.8152   20.5671 C   0  0  0  0  0  0
  -24.1829  -13.0433   20.9180 C   0  0  0  0  0  0
  -24.6380  -11.6901   20.8734 C   0  0  0  0  0  0
  -23.9041  -10.4293   21.0408 C   0  0  0  0  0  0
  -24.3602   -9.4213   21.9183 C   0  0  0  0  0  0
  -23.6286   -8.2240   22.0753 C   0  0  0  0  0  0
  -22.4266   -8.0276   21.3544 C   0  0  0  0  0  0
  -21.9899   -9.0244   20.4641 C   0  0  0  0  0  0
  -22.7217  -10.2128   20.3053 C   0  0  0  0  0  0
  -21.6852   -6.0727   22.5277 C   0  0  0  0  0  0
  -21.4013   -6.5634   23.8208 C   0  0  0  0  0  0
  -21.3659   -5.6792   24.9172 C   0  0  0  0  0  0
  -21.6047   -4.3052   24.7229 C   0  0  0  0  0  0
  -21.8817   -3.8141   23.4350 C   0  0  0  0  0  0
  -21.9195   -4.6955   22.3404 C   0  0  0  0  0  0
  -22.7857  -13.5237   21.1846 C   0  0  0  0  0  0
  -22.1661   -4.2144   21.0980 F   0  0  0  0  0  0
  -21.5632   -3.4537   25.7740 F   0  0  0  0  0  0
  -30.0268  -13.3198   20.4428 N   0  0  0  0  0  0
  -26.3005  -12.9309   20.3334 N   0  0  0  0  0  0
  -25.9306  -11.6478   20.5760 N   0  0  0  0  0  0
  -22.0490  -12.8229   22.0399 N   0  0  0  0  0  0
  -25.4319  -15.1867   20.4067 N   0  0  0  0  0  0
  -31.8111  -14.7005   20.1165 O   0  0  0  0  0  0
  -21.6635   -6.8870   21.4236 O   0  0  0  0  0  0
  -22.3553  -14.5553   20.6706 O   0  0  0  0  0  0
  -24.6161  -31.8671   23.2103 C   0  0  0  0  0  0
  -25.9055  -32.4820   23.8393 C   0  0  1  0  0  0
  -27.2229  -27.4121   20.1099 C   0  0  0  0  0  0
  -25.5908  -33.8616   24.2326 N   0  0  0  0  0  0
  -23.4046  -30.4924   21.5505 C   0  0  2  0  0  0
  -24.8506  -28.9564   20.1185 C   0  0  0  0  0  0
  -22.7427  -29.4652   22.4982 C   0  0  0  0  0  0
  -18.0275  -28.1381   22.8478 C   0  0  0  0  0  0
  -24.1494  -36.7316   23.2641 C   0  0  0  0  0  0
  -25.9366  -30.8245   21.3699 C   0  0  0  0  0  0
  -26.0114  -29.4547   20.7255 C   0  0  0  0  0  0
  -27.2027  -28.6871   20.7252 C   0  0  0  0  0  0
  -26.0568  -26.9507   19.4679 C   0  0  0  0  0  0
  -24.8677  -27.7014   19.4876 C   0  0  0  0  0  0
  -23.6158  -29.8283   20.1645 C   0  0  0  0  0  0
  -25.4104  -36.3106   24.0350 C   0  0  1  0  0  0
  -20.5870  -28.3661   23.1318 C   0  0  2  0  0  0
  -20.6767  -26.9398   22.5412 C   0  0  0  0  0  0
  -19.5743  -26.6382   21.5212 C   0  0  0  0  0  0
  -18.1917  -26.7922   22.1619 C   0  0  0  0  0  0
  -19.1530  -28.8836   23.2889 C   0  0  0  0  0  0
  -18.9457  -30.1441   23.8903 C   0  0  0  0  0  0
  -17.6467  -30.6582   24.0566 C   0  0  0  0  0  0
  -25.9032  -34.9474   23.5129 C   0  0  0  0  0  0
  -16.5353  -29.9090   23.6330 C   0  0  0  0  0  0
  -16.7267  -28.6514   23.0331 C   0  0  0  0  0  0
  -26.4470  -31.6606   25.0728 C   0  0  0  0  0  0
  -25.3723  -31.3730   26.1469 C   0  0  0  0  0  0
  -27.0286  -30.3043   24.6100 C   0  0  0  0  0  0
  -27.6042  -32.4323   25.7486 C   0  0  0  0  0  0
  -27.5585  -37.1801   24.8459 C   0  0  0  0  0  0
  -21.4151  -29.3036   22.3737 N   0  0  0  0  0  0
  -26.4290  -37.3796   23.9423 N   0  0  0  0  0  0
  -24.6706  -31.0767   22.1012 N   0  0  0  0  0  0
  -23.4203  -28.8181   23.3009 O   0  0  0  0  0  0
  -28.3719  -26.6526   20.0311 O   0  0  0  0  0  0
  -26.5600  -34.8929   22.4689 O   0  0  0  0  0  0
  -23.5344  -32.1435   23.7485 O   0  0  0  0  0  0
  -30.3938  -22.3020   19.6898 C   0  0  0  0  0  0
  -31.6059  -22.7506   19.0858 C   0  0  0  0  0  0
  -29.9136  -21.0079   19.2949 C   0  0  0  0  0  0
  -32.0556  -22.1769   17.8702 C   0  0  0  0  0  0
  -30.2518  -20.5289   17.9969 C   0  0  0  0  0  0
  -31.3354  -21.1066   17.2902 C   0  0  0  0  0  0
  -28.0603  -23.2050   20.3612 C   0  0  0  0  0  0
  -27.4688  -24.4517   21.0315 C   0  0  0  0  0  0
  -29.8100  -24.7704   20.5394 C   0  0  0  0  0  0
  -29.3365  -17.9583   21.6864 C   0  0  0  0  0  0
  -30.2364  -17.7784   19.8823 C   0  0  0  0  0  0
  -29.5746  -23.2264   20.6547 C   0  0  2  0  0  0
  -30.3701  -16.9457   21.1622 C   0  0  2  0  0  0
  -28.5431  -25.5529   20.9550 C   0  0  1  0  0  0
  -32.4898  -23.7913   19.7677 C   0  0  0  0  0  0
  -33.2922  -22.7433   17.1681 C   0  0  0  0  0  0
  -29.4288  -19.4329   17.3172 C   0  0  0  0  0  0
  -31.7744  -20.5458   15.9361 C   0  0  0  0  0  0
  -29.1444  -20.0799   20.2751 C   0  0  0  0  0  0
  -29.9523  -15.5266   21.0808 N   0  0  0  0  0  0
  -29.9738  -18.9287   20.7712 N   0  3  1  0  0  0
  -31.4720  -12.4402   19.1289 H   0  0  0  0  0  0
  -30.3428  -11.3214   19.8406 H   0  0  0  0  0  0
  -29.7454  -11.7668   17.4429 H   0  0  0  0  0  0
  -29.6549  -13.4816   17.7602 H   0  0  0  0  0  0
  -27.8458  -11.2955   18.8407 H   0  0  0  0  0  0
  -27.3652  -12.6016   17.7915 H   0  0  0  0  0  0
  -27.6961  -14.2480   19.5574 H   0  0  0  0  0  0
  -28.6851  -11.9747   21.3503 H   0  0  0  0  0  0
  -28.4546  -13.6168   21.8669 H   0  0  0  0  0  0
  -25.2748   -9.5690   22.4760 H   0  0  0  0  0  0
  -23.9997   -7.4632   22.7475 H   0  0  0  0  0  0
  -21.0832   -8.8753   19.8950 H   0  0  0  0  0  0
  -22.3672  -10.9663   19.6163 H   0  0  0  0  0  0
  -21.1997   -7.6143   23.9711 H   0  0  0  0  0  0
  -21.1485   -6.0520   25.9076 H   0  0  0  0  0  0
  -22.0599   -2.7605   23.2851 H   0  0  0  0  0  0
  -22.4096  -11.9884   22.4778 H   0  0  0  0  0  0
  -21.1111  -13.1261   22.2601 H   0  0  0  0  0  0
  -24.6600  -15.8389   20.4982 H   0  0  0  0  0  0
  -26.2738  -15.6184   20.0485 H   0  0  0  0  0  0
  -26.7127  -32.5535   23.1160 H   0  0  0  0  0  0
  -25.0030  -33.9766   25.0452 H   0  0  0  0  0  0
  -22.6941  -31.3093   21.4119 H   0  0  0  0  0  0
  -23.3754  -35.9650   23.3284 H   0  0  0  0  0  0
  -24.3597  -36.8938   22.2056 H   0  0  0  0  0  0
  -23.7247  -37.6520   23.6659 H   0  0  0  0  0  0
  -26.0519  -31.5858   20.5975 H   0  0  0  0  0  0
  -26.8250  -30.8801   21.9878 H   0  0  0  0  0  0
  -28.1010  -29.0670   21.1913 H   0  0  0  0  0  0
  -26.0688  -26.0093   18.9384 H   0  0  0  0  0  0
  -23.9839  -27.3179   18.9971 H   0  0  0  0  0  0
  -23.7314  -30.6057   19.4081 H   0  0  0  0  0  0
  -22.7377  -29.2542   19.8635 H   0  0  0  0  0  0
  -25.1276  -36.1963   25.0844 H   0  0  0  0  0  0
  -20.9954  -28.3213   24.1444 H   0  0  0  0  0  0
  -20.5672  -26.2259   23.3593 H   0  0  0  0  0  0
  -21.6632  -26.7422   22.1206 H   0  0  0  0  0  0
  -19.6899  -25.6298   21.1226 H   0  0  0  0  0  0
  -19.6694  -27.3206   20.6756 H   0  0  0  0  0  0
  -17.4185  -26.6676   21.4022 H   0  0  0  0  0  0
  -18.0301  -26.0072   22.9018 H   0  0  0  0  0  0
  -19.7937  -30.7241   24.2284 H   0  0  0  0  0  0
  -17.5024  -31.6267   24.5153 H   0  0  0  0  0  0
  -15.5354  -30.2994   23.7654 H   0  0  0  0  0  0
  -15.8662  -28.0849   22.7023 H   0  0  0  0  0  0
  -24.5894  -30.7082   25.7813 H   0  0  0  0  0  0
  -24.8922  -32.2894   26.4907 H   0  0  0  0  0  0
  -25.8060  -30.8904   27.0236 H   0  0  0  0  0  0
  -26.2820  -29.6818   24.1154 H   0  0  0  0  0  0
  -27.4054  -29.7270   25.4557 H   0  0  0  0  0  0
  -27.8667  -30.4364   23.9251 H   0  0  0  0  0  0
  -27.2669  -33.3629   26.2059 H   0  0  0  0  0  0
  -28.3855  -32.6859   25.0314 H   0  0  0  0  0  0
  -28.0705  -31.8443   26.5407 H   0  0  0  0  0  0
  -28.2570  -38.0126   24.7527 H   0  0  0  0  0  0
  -28.1107  -36.2652   24.6242 H   0  0  0  0  0  0
  -27.2309  -37.1396   25.8863 H   0  0  0  0  0  0
  -20.9302  -29.8786   21.6992 H   0  0  0  0  0  0
  -26.0172  -38.2870   24.1434 H   0  0  0  0  0  0
  -27.9004  -23.2864   19.2842 H   0  0  0  0  0  0
  -27.5515  -22.3034   20.6965 H   0  0  0  0  0  0
  -27.2936  -24.2234   22.0835 H   0  0  0  0  0  0
  -26.4950  -24.7107   20.6280 H   0  0  0  0  0  0
  -30.0086  -25.0146   19.4950 H   0  0  0  0  0  0
  -30.6575  -25.1231   21.1242 H   0  0  0  0  0  0
  -29.4406  -18.2167   22.7407 H   0  0  0  0  0  0
  -28.2997  -17.7291   21.4255 H   0  0  0  0  0  0
  -29.3828  -17.4871   19.2658 H   0  0  0  0  0  0
  -31.1549  -17.8696   19.3013 H   0  0  0  0  0  0
  -29.7538  -22.9198   21.6858 H   0  0  0  0  0  0
  -31.3466  -17.0730   21.6383 H   0  0  0  0  0  0
  -28.6821  -25.9760   21.9515 H   0  0  0  0  0  0
  -32.3424  -23.7905   20.8465 H   0  0  0  0  0  0
  -32.3143  -24.7909   19.3704 H   0  0  0  0  0  0
  -33.5465  -23.5604   19.6363 H   0  0  0  0  0  0
  -33.4086  -23.8117   17.3458 H   0  0  0  0  0  0
  -33.2484  -22.6458   16.0847 H   0  0  0  0  0  0
  -34.1927  -22.2375   17.5182 H   0  0  0  0  0  0
  -28.4884  -19.2094   17.8148 H   0  0  0  0  0  0
  -29.9951  -18.5079   17.2149 H   0  0  0  0  0  0
  -29.1447  -19.7580   16.3153 H   0  0  0  0  0  0
  -32.8565  -20.4173   15.9029 H   0  0  0  0  0  0
  -31.4828  -21.2262   15.1358 H   0  0  0  0  0  0
  -31.3622  -19.5669   15.7028 H   0  0  0  0  0  0
  -28.1973  -19.7406   19.8603 H   0  0  0  0  0  0
  -28.8813  -20.6391   21.1701 H   0  0  0  0  0  0
  -29.0305  -15.2863   21.4148 H   0  0  0  0  0  0
  -30.8359  -19.2663   21.1714 H   0  0  0  0  0  0
  1 25  1  0  0  0
  1 30  2  0  0  0
  1 90  1  0  0  0
  2  3  1  0  0  0
  2 25  1  0  0  0
  2 92  1  0  0  0
  2 93  1  0  0  0
  3  4  1  0  0  0
  3 94  1  0  0  0
  3 95  1  0  0  0
  4  5  1  0  0  0
  4 96  1  0  0  0
  4 97  1  0  0  0
  5  6  1  0  0  0
  5 26  1  0  0  0
  5 98  1  0  0  0
  6 25  1  0  0  0
  6 99  1  0  0  0
  6100  1  0  0  0
  7  8  2  0  0  0
  7 26  1  0  0  0
  7 29  1  0  0  0
  8  9  1  0  0  0
  8 22  1  0  0  0
  9 10  1  0  0  0
  9 27  2  0  0  0
 10 11  2  0  0  0
 10 15  1  0  0  0
 11 12  1  0  0  0
 11101  1  0  0  0
 12 13  2  0  0  0
 12102  1  0  0  0
 13 14  1  0  0  0
 13 31  1  0  0  0
 14 15  2  0  0  0
 14103  1  0  0  0
 15104  1  0  0  0
 16 17  2  0  0  0
 16 21  1  0  0  0
 16 31  1  0  0  0
 17 18  1  0  0  0
 17105  1  0  0  0
 18 19  2  0  0  0
 18106  1  0  0  0
 19 20  1  0  0  0
 19 24  1  0  0  0
 20 21  2  0  0  0
 20107  1  0  0  0
 21 23  1  0  0  0
 22 28  1  0  0  0
 22 32  2  0  0  0
 26 27  1  0  0  0
 28108  1  0  0  0
 28109  1  0  0  0
 29110  1  0  0  0
 29111  1  0  0  0
 33 34  1  0  0  0
 33 66  1  0  0  0
 33 70  2  0  0  0
 34 36  1  0  0  0
 34 59  1  0  0  0
 34112  1  0  0  0
 35 44  2  0  0  0
 35 45  1  0  0  0
 35 68  1  0  0  0
 36 56  1  0  0  0
 36113  1  0  0  0
 37 39  1  0  0  0
 37 47  1  0  0  0
 37 66  1  0  0  0
 37114  1  0  0  0
 38 43  2  0  0  0
 38 46  1  0  0  0
 38 47  1  0  0  0
 39 64  1  0  0  0
 39 67  2  0  0  0
 40 52  1  0  0  0
 40 53  2  0  0  0
 40 58  1  0  0  0
 41115  1  0  0  0
 41116  1  0  0  0
 41117  1  0  0  0
 41 48  1  0  0  0
 42 43  1  0  0  0
 42 66  1  0  0  0
 42118  1  0  0  0
 42119  1  0  0  0
 43 44  1  0  0  0
 44120  1  0  0  0
 45 46  2  0  0  0
 45121  1  0  0  0
 46122  1  0  0  0
 47123  1  0  0  0
 47124  1  0  0  0
 48 56  1  0  0  0
 48 65  1  0  0  0
 48125  1  0  0  0
 49 50  1  0  0  0
 49 53  1  0  0  0
 49 64  1  0  0  0
 49126  1  0  0  0
 50 51  1  0  0  0
 50127  1  0  0  0
 50128  1  0  0  0
 51 52  1  0  0  0
 51129  1  0  0  0
 51130  1  0  0  0
 52131  1  0  0  0
 52132  1  0  0  0
 53 54  1  0  0  0
 54 55  2  0  0  0
 54133  1  0  0  0
 55 57  1  0  0  0
 55134  1  0  0  0
 56 69  2  0  0  0
 57 58  2  0  0  0
 57135  1  0  0  0
 58136  1  0  0  0
 59 60  1  0  0  0
 59 61  1  0  0  0
 59 62  1  0  0  0
 60137  1  0  0  0
 60138  1  0  0  0
 60139  1  0  0  0
 61140  1  0  0  0
 61141  1  0  0  0
 61142  1  0  0  0
 62143  1  0  0  0
 62144  1  0  0  0
 62145  1  0  0  0
 63 65  1  0  0  0
 63146  1  0  0  0
 63147  1  0  0  0
 63148  1  0  0  0
 64149  1  0  0  0
 65150  1  0  0  0
 68 84  1  0  0  0
 71 72  2  0  0  0
 71 73  1  0  0  0
 71 82  1  0  0  0
 72 74  1  0  0  0
 72 85  1  0  0  0
 73 75  2  0  0  0
 73 89  1  0  0  0
 74 76  2  0  0  0
 74 86  1  0  0  0
 75 76  1  0  0  0
 75 87  1  0  0  0
 76 88  1  0  0  0
 77 78  1  0  0  0
 77 82  1  0  0  0
 77151  1  0  0  0
 77152  1  0  0  0
 78 84  1  0  0  0
 78153  1  0  0  0
 78154  1  0  0  0
 79 82  1  0  0  0
 79 84  1  0  0  0
 79155  1  0  0  0
 79156  1  0  0  0
 80 83  1  0  0  0
 80 91  1  0  0  0
 80157  1  0  0  0
 80158  1  0  0  0
 81 83  1  0  0  0
 81 91  1  0  0  0
 81159  1  0  0  0
 81160  1  0  0  0
 82161  1  0  0  0
 83 90  1  0  0  0
 83162  1  0  0  0
 84163  1  0  0  0
 85164  1  0  0  0
 85165  1  0  0  0
 85166  1  0  0  0
 86167  1  0  0  0
 86168  1  0  0  0
 86169  1  0  0  0
 87170  1  0  0  0
 87171  1  0  0  0
 87172  1  0  0  0
 88173  1  0  0  0
 88174  1  0  0  0
 88175  1  0  0  0
 89176  1  0  0  0
 89177  1  0  0  0
 89 91  1  0  0  0
 90178  1  0  0  0
 91179  1  0  0  0
M  CHG  1  91   1
M  ISO  4   1 100  68 101  84 101  90 100
M  END
> <chiral flag>
0

> <version>
0

> <s_m_source_file>
/data/baiqing/PycharmProjects/Reinvent-master-3.2/result/LINK_invent/BTK/process_docking_weight1_custom_sum_contain_oxygen_bond_distance_aromatic_linkinvent_7_9_3/rearranged_h_0166.sdf

> <i_m_source_file_index>
28

> <r_mmod_Potential_Energy-OPLS-2005>
-21.9355773925781

> <r_mmod_Stretch_Energy-OPLS-2005>
55.5478706359863

> <r_mmod_Bend_Energy-OPLS-2005>
171.700302124023

> <r_mmod_Torsional_Energy-OPLS-2005>
369.347503662109

> <r_mmod_Improper_Torsional_Energy-OPLS-2005>
4.62650442123413

> <r_mmod_Van_der_Waal_Energy-OPLS-2005>
175.884307861328

> <r_mmod_Electrostatic_Energy-OPLS-2005>
-370.120330810547

> <r_mmod_Solvation_Energy-OPLS-2005>
-445.152923583984

> <b_mmod_Minimization_Converged-OPLS-2005>
0

> <r_mmod_RMS_Derivative-OPLS-2005>
1.63022673130035

$$$$
28
                    3D
 Structure written by MMmdl.
180190  0  0  1  0            999 V2000
  -29.7071  -16.2785   20.5568 C   0  0  0  0  0  0
  -30.2788  -13.6321   19.6526 C   0  0  0  0  0  0
  -29.5542  -12.8884   18.4607 C   0  0  0  0  0  0
  -28.1928  -12.3336   18.8859 C   0  0  0  0  0  0
  -27.5368  -13.3457   19.8373 C   0  0  2  0  0  0
  -28.4329  -13.8622   20.9893 C   0  0  0  0  0  0
  -25.1983  -13.8291   20.5820 C   0  0  0  0  0  0
  -24.1473  -13.0391   20.9321 C   0  0  0  0  0  0
  -24.6265  -11.6917   20.8763 C   0  0  0  0  0  0
  -23.9043  -10.4262   21.0397 C   0  0  0  0  0  0
  -24.3600   -9.4200   21.9189 C   0  0  0  0  0  0
  -23.6287   -8.2233   22.0763 C   0  0  0  0  0  0
  -22.4278   -8.0257   21.3543 C   0  0  0  0  0  0
  -21.9901   -9.0225   20.4648 C   0  0  0  0  0  0
  -22.7217  -10.2103   20.3053 C   0  0  0  0  0  0
  -21.6864   -6.0729   22.5286 C   0  0  0  0  0  0
  -21.4003   -6.5636   23.8212 C   0  0  0  0  0  0
  -21.3644   -5.6791   24.9175 C   0  0  0  0  0  0
  -21.6053   -4.3058   24.7232 C   0  0  0  0  0  0
  -21.8812   -3.8145   23.4353 C   0  0  0  0  0  0
  -21.9193   -4.6957   22.3408 C   0  0  0  0  0  0
  -22.7507  -13.5118   21.1942 C   0  0  0  0  0  0
  -22.1666   -4.2147   21.0985 F   0  0  0  0  0  0
  -21.5629   -3.4538   25.7741 F   0  0  0  0  0  0
  -29.4325  -14.7710   20.3757 N   0  0  0  0  0  0
  -26.2364  -12.9634   20.3193 N   0  0  0  0  0  0
  -25.9187  -11.6687   20.5642 N   0  0  0  0  0  0
  -22.0206  -12.8124   22.0510 N   0  0  0  0  0  0
  -25.3608  -15.2057   20.4323 N   0  0  0  0  0  0
  -30.9652  -16.2150   20.3596 O   0  0  0  0  0  0
  -21.6636   -6.8865   21.4250 O   0  0  0  0  0  0
  -22.3214  -14.5446   20.6804 O   0  0  0  0  0  0
  -24.6030  -31.5732   23.1535 C   0  0  0  0  0  0
  -25.8658  -32.3476   23.7488 C   0  0  1  0  0  0
  -28.0340  -27.1469   19.7194 C   0  0  0  0  0  0
  -25.5139  -33.7539   24.1015 N   0  0  0  0  0  0
  -23.2492  -29.5159   21.9921 C   0  0  2  0  0  0
  -25.8641  -28.0270   19.5552 C   0  0  0  0  0  0
  -22.5122  -29.1988   23.0875 C   0  0  0  0  0  0
  -17.9190  -28.1363   22.8448 C   0  0  0  0  0  0
  -24.1464  -36.6914   23.2711 C   0  0  0  0  0  0
  -26.1542  -30.3556   21.4302 C   0  0  0  0  0  0
  -26.7385  -29.1303   20.2924 C   0  0  0  0  0  0
  -27.8329  -28.2933   20.5938 C   0  0  0  0  0  0
  -27.5418  -27.3526   18.4363 C   0  0  0  0  0  0
  -26.2982  -27.8784   18.2872 C   0  0  0  0  0  0
  -23.1871  -27.8058   20.8149 C   0  0  0  0  0  0
  -25.4128  -36.2404   24.0171 C   0  0  1  0  0  0
  -20.3846  -28.2179   23.3834 C   0  0  2  0  0  0
  -20.4797  -26.8184   22.7433 C   0  0  0  0  0  0
  -19.5205  -26.6323   21.5726 C   0  0  0  0  0  0
  -18.0950  -26.8147   22.1081 C   0  0  0  0  0  0
  -19.0197  -28.8315   23.3835 C   0  0  0  0  0  0
  -18.8566  -30.1087   23.9603 C   0  0  0  0  0  0
  -17.5763  -30.6698   24.0625 C   0  0  0  0  0  0
  -25.8999  -34.8747   23.4642 C   0  0  0  0  0  0
  -16.4646  -29.9466   23.5994 C   0  0  0  0  0  0
  -16.6340  -28.6898   22.9885 C   0  0  0  0  0  0
  -26.4554  -31.6607   25.0585 C   0  0  0  0  0  0
  -25.3647  -31.3690   26.1190 C   0  0  0  0  0  0
  -27.1553  -30.3330   24.7427 C   0  0  0  0  0  0
  -27.5545  -32.5242   25.7237 C   0  0  0  0  0  0
  -27.5507  -37.1467   24.8418 C   0  0  0  0  0  0
  -21.2489  -29.1319   22.7491 N   0  0  0  0  0  0
  -26.4218  -37.3231   23.9335 N   0  0  0  0  0  0
  -24.6737  -30.5042   22.2392 N   0  0  0  0  0  0
  -23.0931  -28.7432   24.0491 O   0  0  0  0  0  0
  -27.5361  -25.8671   19.9727 O   0  0  0  0  0  0
  -26.6134  -34.8496   22.4599 O   0  0  0  0  0  0
  -23.5167  -31.9728   23.6004 O   0  0  0  0  0  0
  -24.3160  -29.4416   19.9794 C   0  0  0  0  0  0
  -23.7198  -28.5378   18.6647 C   0  0  0  0  0  0
  -23.8983  -26.8598   18.6693 C   0  0  0  0  0  0
  -24.7664  -25.8797   19.7012 C   0  0  0  0  0  0
  -25.3181  -26.0530   21.1334 C   0  0  0  0  0  0
  -25.1820  -27.8596   21.6317 C   0  0  0  0  0  0
  -23.6873  -22.7208   24.2055 C   0  0  0  0  0  0
  -24.0445  -23.8694   25.1100 C   0  0  0  0  0  0
  -27.4865  -20.7824   20.0556 C   0  0  0  0  0  0
  -27.4799  -20.5795   22.0656 C   0  0  0  0  0  0
  -28.6167  -19.2511   19.9433 C   0  0  0  0  0  0
  -28.4549  -18.9400   21.9012 C   0  0  0  0  0  0
  -24.3666  -23.9490   23.6288 C   0  0  0  0  0  0
  -27.2224  -22.1887   21.2049 C   0  0  0  0  0  0
  -22.9849  -29.2307   17.5375 C   0  0  0  0  0  0
  -23.3711  -26.1528   17.4350 C   0  0  0  0  0  0
  -25.8467  -27.0999   23.7604 C   0  0  0  0  0  0
  -26.2173  -25.2789   19.2416 C   0  0  0  0  0  0
  -25.8083  -23.8513   23.1346 C   0  0  0  0  0  0
  -26.0024  -24.0589   21.6084 C   0  0  1  0  0  0
  -28.7919  -17.7490   20.7277 N   0  0  0  0  0  0
  -25.6006  -28.1754   22.8985 O   0  0  0  0  0  0
  -31.1828  -14.0788   19.2377 H   0  0  0  0  0  0
  -30.6599  -12.9060   20.3755 H   0  0  0  0  0  0
  -30.1824  -12.0934   18.0589 H   0  0  0  0  0  0
  -29.4058  -13.6000   17.6477 H   0  0  0  0  0  0
  -28.3481  -11.3906   19.4111 H   0  0  0  0  0  0
  -27.5604  -12.1223   18.0225 H   0  0  0  0  0  0
  -27.3464  -14.2015   19.1880 H   0  0  0  0  0  0
  -28.8597  -13.0557   21.5895 H   0  0  0  0  0  0
  -27.8465  -14.4622   21.6853 H   0  0  0  0  0  0
  -25.2732   -9.5704   22.4774 H   0  0  0  0  0  0
  -23.9997   -7.4636   22.7492 H   0  0  0  0  0  0
  -21.0835   -8.8738   19.8959 H   0  0  0  0  0  0
  -22.3665  -10.9642   19.6167 H   0  0  0  0  0  0
  -21.1986   -7.6142   23.9714 H   0  0  0  0  0  0
  -21.1477   -6.0523   25.9079 H   0  0  0  0  0  0
  -22.0606   -2.7613   23.2854 H   0  0  0  0  0  0
  -22.3844  -11.9799   22.4891 H   0  0  0  0  0  0
  -21.0823  -13.1127   22.2719 H   0  0  0  0  0  0
  -24.5928  -15.8555   20.5623 H   0  0  0  0  0  0
  -26.2075  -15.6535   20.1080 H   0  0  0  0  0  0
  -26.6560  -32.3842   23.0009 H   0  0  0  0  0  0
  -24.8661  -33.8526   24.8693 H   0  0  0  0  0  0
  -22.6464  -30.2804   21.4756 H   0  0  0  0  0  0
  -23.3649  -35.9314   23.3195 H   0  0  0  0  0  0
  -24.3481  -36.8866   22.2167 H   0  0  0  0  0  0
  -23.7356  -37.6030   23.7062 H   0  0  0  0  0  0
  -26.2834  -31.2960   20.8906 H   0  0  0  0  0  0
  -26.9407  -30.3687   22.1774 H   0  0  0  0  0  0
  -28.3552  -28.3840   21.5351 H   0  0  0  0  0  0
  -27.9295  -26.7695   17.6092 H   0  0  0  0  0  0
  -25.7577  -27.7006   17.3692 H   0  0  0  0  0  0
  -22.2330  -27.8077   20.2681 H   0  0  0  0  0  0
  -23.0442  -26.9009   21.4051 H   0  0  0  0  0  0
  -25.1419  -36.1013   25.0665 H   0  0  0  0  0  0
  -20.6646  -28.1213   24.4360 H   0  0  0  0  0  0
  -20.1634  -26.1056   23.5064 H   0  0  0  0  0  0
  -21.4859  -26.4923   22.5399 H   0  0  0  0  0  0
  -19.6334  -25.6416   21.1328 H   0  0  0  0  0  0
  -19.7330  -27.3575   20.7858 H   0  0  0  0  0  0
  -17.3847  -26.7624   21.2817 H   0  0  0  0  0  0
  -17.8359  -26.0022   22.7892 H   0  0  0  0  0  0
  -19.7071  -30.6478   24.3553 H   0  0  0  0  0  0
  -17.4435  -31.6406   24.5201 H   0  0  0  0  0  0
  -15.4728  -30.3702   23.6913 H   0  0  0  0  0  0
  -15.7710  -28.1631   22.6060 H   0  0  0  0  0  0
  -24.6247  -30.6517   25.7613 H   0  0  0  0  0  0
  -24.8295  -32.2762   26.4014 H   0  0  0  0  0  0
  -25.7924  -30.9472   27.0290 H   0  0  0  0  0  0
  -27.5086  -29.8395   25.6529 H   0  0  0  0  0  0
  -28.0291  -30.4596   24.0987 H   0  0  0  0  0  0
  -26.4604  -29.6542   24.2943 H   0  0  0  0  0  0
  -27.1461  -33.4300   26.1744 H   0  0  0  0  0  0
  -28.3119  -32.8309   25.0001 H   0  0  0  0  0  0
  -28.0667  -31.9858   26.5237 H   0  0  0  0  0  0
  -28.2393  -37.9869   24.7407 H   0  0  0  0  0  0
  -28.1117  -36.2351   24.6288 H   0  0  0  0  0  0
  -27.2207  -37.1123   25.8818 H   0  0  0  0  0  0
  -20.9396  -29.5326   21.8761 H   0  0  0  0  0  0
  -25.9951  -38.2239   24.1306 H   0  0  0  0  0  0
  -24.2010  -30.5181   19.9461 H   0  0  0  0  0  0
  -22.6307  -22.5656   23.9944 H   0  0  0  0  0  0
  -24.2715  -21.8082   24.3141 H   0  0  0  0  0  0
  -24.8676  -23.7262   25.8080 H   0  0  0  0  0  0
  -23.2097  -24.4571   25.4919 H   0  0  0  0  0  0
  -26.4866  -20.3767   19.8702 H   0  0  0  0  0  0
  -27.7033  -21.2989   19.1200 H   0  0  0  0  0  0
  -27.7845  -20.9158   23.0587 H   0  0  0  0  0  0
  -26.4604  -20.2299   22.2493 H   0  0  0  0  0  0
  -29.6327  -19.6620   19.9491 H   0  0  0  0  0  0
  -28.5142  -18.9367   18.9058 H   0  0  0  0  0  0
  -28.0528  -18.3267   22.7108 H   0  0  0  0  0  0
  -29.4477  -19.1915   22.2868 H   0  0  0  0  0  0
  -23.7419  -24.6446   23.0705 H   0  0  0  0  0  0
  -28.2095  -22.6535   21.2350 H   0  0  0  0  0  0
  -22.9851  -30.3092   17.6863 H   0  0  0  0  0  0
  -21.9498  -28.8865   17.4988 H   0  0  0  0  0  0
  -23.4595  -29.0042   16.5834 H   0  0  0  0  0  0
  -22.3551  -26.4749   17.2103 H   0  0  0  0  0  0
  -23.3556  -25.0732   17.5761 H   0  0  0  0  0  0
  -23.9973  -26.3724   16.5716 H   0  0  0  0  0  0
  -24.9516  -26.4930   23.8895 H   0  0  0  0  0  0
  -26.1277  -27.4742   24.7432 H   0  0  0  0  0  0
  -26.6720  -26.5167   23.3615 H   0  0  0  0  0  0
  -26.2672  -25.3306   18.1545 H   0  0  0  0  0  0
  -26.2160  -24.1913   19.2838 H   0  0  0  0  0  0
  -26.1590  -22.8525   23.3973 H   0  0  0  0  0  0
  -26.4482  -24.4994   23.7214 H   0  0  0  0  0  0
  -25.0883  -23.6088   21.2147 H   0  0  0  0  0  0
  1 25  1  0  0  0
  1 30  2  0  0  0
  1 91  1  0  0  0
  2  3  1  0  0  0
  2 25  1  0  0  0
  2 93  1  0  0  0
  2 94  1  0  0  0
  3  4  1  0  0  0
  3 95  1  0  0  0
  3 96  1  0  0  0
  4  5  1  0  0  0
  4 97  1  0  0  0
  4 98  1  0  0  0
  5  6  1  0  0  0
  5 26  1  0  0  0
  5 99  1  0  0  0
  6 25  1  0  0  0
  6100  1  0  0  0
  6101  1  0  0  0
  7  8  2  0  0  0
  7 26  1  0  0  0
  7 29  1  0  0  0
  8  9  1  0  0  0
  8 22  1  0  0  0
  9 10  1  0  0  0
  9 27  2  0  0  0
 10 11  2  0  0  0
 10 15  1  0  0  0
 11 12  1  0  0  0
 11102  1  0  0  0
 12 13  2  0  0  0
 12103  1  0  0  0
 13 14  1  0  0  0
 13 31  1  0  0  0
 14 15  2  0  0  0
 14104  1  0  0  0
 15105  1  0  0  0
 16 17  2  0  0  0
 16 21  1  0  0  0
 16 31  1  0  0  0
 17 18  1  0  0  0
 17106  1  0  0  0
 18 19  2  0  0  0
 18107  1  0  0  0
 19 20  1  0  0  0
 19 24  1  0  0  0
 20 21  2  0  0  0
 20108  1  0  0  0
 21 23  1  0  0  0
 22 28  1  0  0  0
 22 32  2  0  0  0
 26 27  1  0  0  0
 28109  1  0  0  0
 28110  1  0  0  0
 29111  1  0  0  0
 29112  1  0  0  0
 33 34  1  0  0  0
 33 66  1  0  0  0
 33 70  2  0  0  0
 34 36  1  0  0  0
 34 59  1  0  0  0
 34113  1  0  0  0
 35 44  2  0  0  0
 35 45  1  0  0  0
 35 68  1  0  0  0
 36 56  1  0  0  0
 36114  1  0  0  0
 37 39  1  0  0  0
 37 47  1  0  0  0
 37 66  1  0  0  0
 37115  1  0  0  0
 38 43  2  0  0  0
 38 46  1  0  0  0
 38 47  1  0  0  0
 39 64  1  0  0  0
 39 67  2  0  0  0
 40 52  1  0  0  0
 40 53  2  0  0  0
 40 58  1  0  0  0
 41116  1  0  0  0
 41117  1  0  0  0
 41118  1  0  0  0
 41 48  1  0  0  0
 42 43  1  0  0  0
 42 66  1  0  0  0
 42119  1  0  0  0
 42120  1  0  0  0
 43 44  1  0  0  0
 44121  1  0  0  0
 45 46  2  0  0  0
 45122  1  0  0  0
 46123  1  0  0  0
 47124  1  0  0  0
 47125  1  0  0  0
 48 56  1  0  0  0
 48 65  1  0  0  0
 48126  1  0  0  0
 49 50  1  0  0  0
 49 53  1  0  0  0
 49 64  1  0  0  0
 49127  1  0  0  0
 50 51  1  0  0  0
 50128  1  0  0  0
 50129  1  0  0  0
 51 52  1  0  0  0
 51130  1  0  0  0
 51131  1  0  0  0
 52132  1  0  0  0
 52133  1  0  0  0
 53 54  1  0  0  0
 54 55  2  0  0  0
 54134  1  0  0  0
 55 57  1  0  0  0
 55135  1  0  0  0
 56 69  2  0  0  0
 57 58  2  0  0  0
 57136  1  0  0  0
 58137  1  0  0  0
 59 60  1  0  0  0
 59 61  1  0  0  0
 59 62  1  0  0  0
 60138  1  0  0  0
 60139  1  0  0  0
 60140  1  0  0  0
 61141  1  0  0  0
 61142  1  0  0  0
 61143  1  0  0  0
 62144  1  0  0  0
 62145  1  0  0  0
 62146  1  0  0  0
 63 65  1  0  0  0
 63147  1  0  0  0
 63148  1  0  0  0
 63149  1  0  0  0
 64150  1  0  0  0
 65151  1  0  0  0
 68 88  1  0  0  0
 71 72  2  0  0  0
 71 76  1  0  0  0
 71152  1  0  0  0
 72 73  1  0  0  0
 72 85  1  0  0  0
 73 74  2  0  0  0
 73 86  1  0  0  0
 74 75  1  0  0  0
 74 88  1  0  0  0
 75 76  2  0  0  0
 75 90  1  0  0  0
 76 92  1  0  0  0
 77 78  1  0  0  0
 77 83  1  0  0  0
 77153  1  0  0  0
 77154  1  0  0  0
 78 83  1  0  0  0
 78155  1  0  0  0
 78156  1  0  0  0
 79 81  1  0  0  0
 79157  1  0  0  0
 79158  1  0  0  0
 79 84  1  0  0  0
 80 82  1  0  0  0
 80 84  1  0  0  0
 80159  1  0  0  0
 80160  1  0  0  0
 81 91  1  0  0  0
 81161  1  0  0  0
 81162  1  0  0  0
 82 91  1  0  0  0
 82163  1  0  0  0
 82164  1  0  0  0
 83 89  1  0  0  0
 83165  1  0  0  0
 84 90  1  0  0  0
 84166  1  0  0  0
 85167  1  0  0  0
 85168  1  0  0  0
 85169  1  0  0  0
 86170  1  0  0  0
 86171  1  0  0  0
 86172  1  0  0  0
 87 92  1  0  0  0
 87173  1  0  0  0
 87174  1  0  0  0
 87175  1  0  0  0
 88176  1  0  0  0
 88177  1  0  0  0
 89178  1  0  0  0
 89179  1  0  0  0
 89 90  1  0  0  0
 90180  1  0  0  0
M  ISO  4   1 100  68 101  88 101  91 100
M  END
> <chiral flag>
0

> <version>
0

> <s_m_source_file>
/data/baiqing/PycharmProjects/Reinvent-master-3.2/result/LINK_invent/BTK/process_docking_weight1_custom_sum_contain_oxygen_bond_distance_aromatic_linkinvent_7_9_3/rearranged_h_0166.sdf

> <i_m_source_file_index>
29

> <r_mmod_Potential_Energy-OPLS-2005>
18300.44140625

> <r_mmod_Stretch_Energy-OPLS-2005>
9187.814453125

> <r_mmod_Bend_Energy-OPLS-2005>
1811.75610351562

> <r_mmod_Torsional_Energy-OPLS-2005>
834.244995117188

> <r_mmod_Improper_Torsional_Energy-OPLS-2005>
82.96484375

> <r_mmod_Van_der_Waal_Energy-OPLS-2005>
3315.99853515625

> <r_mmod_Electrostatic_Energy-OPLS-2005>
-277.491851806641

> <r_mmod_Solvation_Energy-OPLS-2005>
-202.637939453125

> <b_mmod_Minimization_Converged-OPLS-2005>
0

> <r_mmod_RMS_Derivative-OPLS-2005>
10.910044670105

$$$$
29
                    3D
 Structure written by MMmdl.
170179  0  0  1  0            999 V2000
  -30.5560  -14.7293   20.4865 C   0  0  0  0  0  0
  -30.4469  -12.4430   19.4759 C   0  0  0  0  0  0
  -29.5181  -12.5258   18.2407 C   0  0  0  0  0  0
  -28.0404  -12.3477   18.6446 C   0  0  0  0  0  0
  -27.6527  -13.2194   19.8674 C   0  0  2  0  0  0
  -28.6938  -13.0872   21.0031 C   0  0  0  0  0  0
  -25.2556  -13.8167   20.5692 C   0  0  0  0  0  0
  -24.1820  -13.0437   20.9183 C   0  0  0  0  0  0
  -24.6391  -11.6906   20.8730 C   0  0  0  0  0  0
  -23.9058  -10.4293   21.0405 C   0  0  0  0  0  0
  -24.3619   -9.4210   21.9180 C   0  0  0  0  0  0
  -23.6301   -8.2238   22.0749 C   0  0  0  0  0  0
  -22.4279   -8.0274   21.3538 C   0  0  0  0  0  0
  -21.9907   -9.0246   20.4639 C   0  0  0  0  0  0
  -22.7233  -10.2132   20.3052 C   0  0  0  0  0  0
  -21.6847   -6.0736   22.5282 C   0  0  0  0  0  0
  -21.4007   -6.5640   23.8217 C   0  0  0  0  0  0
  -21.3664   -5.6792   24.9180 C   0  0  0  0  0  0
  -21.6049   -4.3054   24.7228 C   0  0  0  0  0  0
  -21.8819   -3.8145   23.4346 C   0  0  0  0  0  0
  -21.9187   -4.6963   22.3403 C   0  0  0  0  0  0
  -22.7844  -13.5227   21.1861 C   0  0  0  0  0  0
  -22.1657   -4.2149   21.0981 F   0  0  0  0  0  0
  -21.5637   -3.4542   25.7742 F   0  0  0  0  0  0
  -30.0040  -13.4667   20.4508 N   0  0  0  0  0  0
  -26.2980  -12.9353   20.3320 N   0  0  0  0  0  0
  -25.9321  -11.6502   20.5749 N   0  0  0  0  0  0
  -22.0475  -12.8221   22.0419 N   0  0  0  0  0  0
  -25.4292  -15.1892   20.4144 N   0  0  0  0  0  0
  -31.6901  -14.9241   20.0406 O   0  0  0  0  0  0
  -21.6636   -6.8877   21.4242 O   0  0  0  0  0  0
  -22.3535  -14.5530   20.6709 O   0  0  0  0  0  0
  -24.6312  -31.8531   23.1963 C   0  0  0  0  0  0
  -25.9141  -32.4735   23.8304 C   0  0  1  0  0  0
  -27.2268  -27.2590   20.1203 C   0  0  0  0  0  0
  -25.5937  -33.8539   24.2229 N   0  0  0  0  0  0
  -23.4271  -30.4748   21.5397 C   0  0  2  0  0  0
  -24.8737  -28.9176   20.1074 C   0  0  0  0  0  0
  -22.7492  -29.4597   22.4915 C   0  0  0  0  0  0
  -18.0290  -28.1393   22.8483 C   0  0  0  0  0  0
  -24.1494  -36.7276   23.2640 C   0  0  0  0  0  0
  -25.9716  -30.7646   21.3752 C   0  0  0  0  0  0
  -26.0434  -29.3862   20.7173 C   0  0  0  0  0  0
  -27.2167  -28.5670   20.7166 C   0  0  0  0  0  0
  -26.0268  -26.8501   19.4958 C   0  0  0  0  0  0
  -24.8705  -27.6573   19.4886 C   0  0  0  0  0  0
  -23.6434  -29.8042   20.1566 C   0  0  0  0  0  0
  -25.4120  -36.3055   24.0323 C   0  0  1  0  0  0
  -20.5892  -28.3699   23.1279 C   0  0  2  0  0  0
  -20.6777  -26.9415   22.5424 C   0  0  0  0  0  0
  -19.5763  -26.6385   21.5221 C   0  0  0  0  0  0
  -18.1937  -26.7942   22.1611 C   0  0  0  0  0  0
  -19.1540  -28.8864   23.2876 C   0  0  0  0  0  0
  -18.9458  -30.1463   23.8897 C   0  0  0  0  0  0
  -17.6459  -30.6592   24.0565 C   0  0  0  0  0  0
  -25.9062  -34.9427   23.5078 C   0  0  0  0  0  0
  -16.5350  -29.9084   23.6336 C   0  0  0  0  0  0
  -16.7276  -28.6506   23.0354 C   0  0  0  0  0  0
  -26.4506  -31.6570   25.0701 C   0  0  0  0  0  0
  -25.3724  -31.3724   26.1418 C   0  0  0  0  0  0
  -27.0349  -30.2982   24.6198 C   0  0  0  0  0  0
  -27.6065  -32.4309   25.7472 C   0  0  0  0  0  0
  -27.5585  -37.1786   24.8456 C   0  0  0  0  0  0
  -21.4202  -29.3036   22.3659 N   0  0  0  0  0  0
  -26.4287  -37.3760   23.9415 N   0  0  0  0  0  0
  -24.6957  -31.0495   22.0935 N   0  0  0  0  0  0
  -23.4191  -28.8153   23.3029 O   0  0  0  0  0  0
  -28.3467  -26.3976   20.2086 O   0  0  0  0  0  0
  -26.5639  -34.8912   22.4652 O   0  0  0  0  0  0
  -23.5465  -32.1358   23.7262 O   0  0  0  0  0  0
  -29.6253  -19.9551   20.8732 C   0  0  0  0  0  0
  -29.7238  -19.8657   18.4660 C   0  0  0  0  0  0
  -29.2015  -17.3284   18.9359 C   0  0  0  0  0  0
  -30.1512  -18.4886   20.5075 C   0  0  1  0  0  0
  -29.0731  -20.7338   19.5993 C   0  0  2  0  0  0
  -29.2737  -17.1561   20.4506 C   0  0  2  0  0  0
  -30.2321  -18.4856   18.9758 C   0  0  2  0  0  0
  -28.8062  -22.5895   17.8161 C   0  0  0  0  0  0
  -31.5120  -17.9959   16.7985 C   0  0  0  0  0  0
  -32.7654  -19.0470   18.7440 C   0  0  0  0  0  0
  -28.4715  -25.0844   19.4906 C   0  0  0  0  0  0
  -29.2023  -22.3627   19.3043 C   0  0  1  0  0  0
  -31.5957  -18.1310   18.3299 C   0  0  0  0  0  0
  -28.4962  -23.5784   20.1511 C   0  0  2  0  0  0
  -29.7084  -15.7468   20.8911 N   0  0  0  0  0  0
  -27.1474  -23.1913   20.3486 O   0  0  0  0  0  0
  -31.4865  -12.5883   19.1768 H   0  0  0  0  0  0
  -30.4031  -11.4484   19.9220 H   0  0  0  0  0  0
  -29.7992  -11.7703   17.5058 H   0  0  0  0  0  0
  -29.6484  -13.4914   17.7494 H   0  0  0  0  0  0
  -27.8870  -11.2943   18.8807 H   0  0  0  0  0  0
  -27.3862  -12.5688   17.7997 H   0  0  0  0  0  0
  -27.6662  -14.2533   19.5215 H   0  0  0  0  0  0
  -28.7234  -12.0634   21.3786 H   0  0  0  0  0  0
  -28.4182  -13.7072   21.8579 H   0  0  0  0  0  0
  -25.2763   -9.5691   22.4762 H   0  0  0  0  0  0
  -24.0012   -7.4625   22.7467 H   0  0  0  0  0  0
  -21.0834   -8.8758   19.8951 H   0  0  0  0  0  0
  -22.3679  -10.9669   19.6166 H   0  0  0  0  0  0
  -21.1994   -7.6146   23.9725 H   0  0  0  0  0  0
  -21.1490   -6.0518   25.9086 H   0  0  0  0  0  0
  -22.0594   -2.7605   23.2842 H   0  0  0  0  0  0
  -22.4077  -11.9881   22.4808 H   0  0  0  0  0  0
  -21.1099  -13.1266   22.2624 H   0  0  0  0  0  0
  -24.6665  -15.8476   20.5290 H   0  0  0  0  0  0
  -26.2866  -15.6265   20.1018 H   0  0  0  0  0  0
  -26.7204  -32.5375   23.1040 H   0  0  0  0  0  0
  -25.0081  -33.9664   25.0371 H   0  0  0  0  0  0
  -22.7245  -31.2972   21.3921 H   0  0  0  0  0  0
  -23.3761  -35.9601   23.3272 H   0  0  0  0  0  0
  -24.3599  -36.8931   22.2062 H   0  0  0  0  0  0
  -23.7234  -37.6461   23.6687 H   0  0  0  0  0  0
  -26.1115  -31.5236   20.6043 H   0  0  0  0  0  0
  -26.8492  -30.8126   22.0084 H   0  0  0  0  0  0
  -28.1104  -28.9197   21.2121 H   0  0  0  0  0  0
  -25.9368  -25.8759   19.0413 H   0  0  0  0  0  0
  -23.9700  -27.2869   19.0177 H   0  0  0  0  0  0
  -23.7641  -30.5777   19.3972 H   0  0  0  0  0  0
  -22.7617  -29.2349   19.8565 H   0  0  0  0  0  0
  -25.1305  -36.1889   25.0812 H   0  0  0  0  0  0
  -20.9985  -28.3280   24.1400 H   0  0  0  0  0  0
  -20.5674  -26.2307   23.3627 H   0  0  0  0  0  0
  -21.6648  -26.7440   22.1222 H   0  0  0  0  0  0
  -19.6925  -25.6290   21.1263 H   0  0  0  0  0  0
  -19.6724  -27.3182   20.6745 H   0  0  0  0  0  0
  -17.4221  -26.6707   21.4000 H   0  0  0  0  0  0
  -18.0316  -26.0079   22.8994 H   0  0  0  0  0  0
  -19.7935  -30.7287   24.2260 H   0  0  0  0  0  0
  -17.5011  -31.6276   24.5159 H   0  0  0  0  0  0
  -15.5351  -30.2985   23.7671 H   0  0  0  0  0  0
  -15.8676  -28.0825   22.7075 H   0  0  0  0  0  0
  -24.5943  -30.7016   25.7755 H   0  0  0  0  0  0
  -24.8860  -32.2885   26.4779 H   0  0  0  0  0  0
  -25.8046  -30.8968   27.0230 H   0  0  0  0  0  0
  -26.2924  -29.6724   24.1234 H   0  0  0  0  0  0
  -27.4030  -29.7261   25.4724 H   0  0  0  0  0  0
  -27.8806  -30.4243   23.9435 H   0  0  0  0  0  0
  -27.2682  -33.3620   26.2030 H   0  0  0  0  0  0
  -28.3888  -32.6845   25.0305 H   0  0  0  0  0  0
  -28.0720  -31.8442   26.5401 H   0  0  0  0  0  0
  -28.2577  -38.0105   24.7530 H   0  0  0  0  0  0
  -28.1105  -36.2641   24.6239 H   0  0  0  0  0  0
  -27.2319  -37.1379   25.8861 H   0  0  0  0  0  0
  -20.9385  -29.8733   21.6842 H   0  0  0  0  0  0
  -26.0160  -38.2827   24.1433 H   0  0  0  0  0  0
  -30.4502  -20.5324   21.2918 H   0  0  0  0  0  0
  -28.8664  -19.9172   21.6557 H   0  0  0  0  0  0
  -30.5535  -20.4295   18.0469 H   0  0  0  0  0  0
  -29.0200  -19.7311   17.6432 H   0  0  0  0  0  0
  -28.2116  -17.6441   18.6023 H   0  0  0  0  0  0
  -29.5299  -16.4569   18.3677 H   0  0  0  0  0  0
  -31.1068  -18.2642   20.9828 H   0  0  0  0  0  0
  -28.0056  -20.5077   19.5721 H   0  0  0  0  0  0
  -28.2970  -17.3832   20.8812 H   0  0  0  0  0  0
  -29.3603  -21.9751   17.1117 H   0  0  0  0  0  0
  -29.0091  -23.6003   17.4707 H   0  0  0  0  0  0
  -27.7472  -22.3880   17.6525 H   0  0  0  0  0  0
  -30.7255  -17.3024   16.4995 H   0  0  0  0  0  0
  -32.4480  -17.6136   16.3894 H   0  0  0  0  0  0
  -31.3112  -18.9520   16.3146 H   0  0  0  0  0  0
  -32.8946  -19.0754   19.8251 H   0  0  0  0  0  0
  -32.6466  -20.0727   18.3981 H   0  0  0  0  0  0
  -33.7032  -18.6810   18.3244 H   0  0  0  0  0  0
  -27.8295  -25.0875   18.6123 H   0  0  0  0  0  0
  -29.4671  -25.1936   19.0596 H   0  0  0  0  0  0
  -30.2711  -22.5741   19.3597 H   0  0  0  0  0  0
  -31.8747  -17.1416   18.6930 H   0  0  0  0  0  0
  -28.9822  -23.6344   21.1264 H   0  0  0  0  0  0
  -28.9579  -15.3230   21.4169 H   0  0  0  0  0  0
  -26.7406  -23.1300   19.4909 H   0  0  0  0  0  0
  1 25  1  0  0  0
  1 30  2  0  0  0
  1 85  1  0  0  0
  2  3  1  0  0  0
  2 25  1  0  0  0
  2 87  1  0  0  0
  2 88  1  0  0  0
  3  4  1  0  0  0
  3 89  1  0  0  0
  3 90  1  0  0  0
  4  5  1  0  0  0
  4 91  1  0  0  0
  4 92  1  0  0  0
  5  6  1  0  0  0
  5 26  1  0  0  0
  5 93  1  0  0  0
  6 25  1  0  0  0
  6 94  1  0  0  0
  6 95  1  0  0  0
  7  8  2  0  0  0
  7 26  1  0  0  0
  7 29  1  0  0  0
  8  9  1  0  0  0
  8 22  1  0  0  0
  9 10  1  0  0  0
  9 27  2  0  0  0
 10 11  2  0  0  0
 10 15  1  0  0  0
 11 12  1  0  0  0
 11 96  1  0  0  0
 12 13  2  0  0  0
 12 97  1  0  0  0
 13 14  1  0  0  0
 13 31  1  0  0  0
 14 15  2  0  0  0
 14 98  1  0  0  0
 15 99  1  0  0  0
 16 17  2  0  0  0
 16 21  1  0  0  0
 16 31  1  0  0  0
 17 18  1  0  0  0
 17100  1  0  0  0
 18 19  2  0  0  0
 18101  1  0  0  0
 19 20  1  0  0  0
 19 24  1  0  0  0
 20 21  2  0  0  0
 20102  1  0  0  0
 21 23  1  0  0  0
 22 28  1  0  0  0
 22 32  2  0  0  0
 26 27  1  0  0  0
 28103  1  0  0  0
 28104  1  0  0  0
 29105  1  0  0  0
 29106  1  0  0  0
 33 34  1  0  0  0
 33 66  1  0  0  0
 33 70  2  0  0  0
 34 36  1  0  0  0
 34 59  1  0  0  0
 34107  1  0  0  0
 35 44  2  0  0  0
 35 45  1  0  0  0
 35 68  1  0  0  0
 36 56  1  0  0  0
 36108  1  0  0  0
 37 39  1  0  0  0
 37 47  1  0  0  0
 37 66  1  0  0  0
 37109  1  0  0  0
 38 43  2  0  0  0
 38 46  1  0  0  0
 38 47  1  0  0  0
 39 64  1  0  0  0
 39 67  2  0  0  0
 40 52  1  0  0  0
 40 53  2  0  0  0
 40 58  1  0  0  0
 41110  1  0  0  0
 41111  1  0  0  0
 41112  1  0  0  0
 41 48  1  0  0  0
 42 43  1  0  0  0
 42 66  1  0  0  0
 42113  1  0  0  0
 42114  1  0  0  0
 43 44  1  0  0  0
 44115  1  0  0  0
 45 46  2  0  0  0
 45116  1  0  0  0
 46117  1  0  0  0
 47118  1  0  0  0
 47119  1  0  0  0
 48 56  1  0  0  0
 48 65  1  0  0  0
 48120  1  0  0  0
 49 50  1  0  0  0
 49 53  1  0  0  0
 49 64  1  0  0  0
 49121  1  0  0  0
 50 51  1  0  0  0
 50122  1  0  0  0
 50123  1  0  0  0
 51 52  1  0  0  0
 51124  1  0  0  0
 51125  1  0  0  0
 52126  1  0  0  0
 52127  1  0  0  0
 53 54  1  0  0  0
 54 55  2  0  0  0
 54128  1  0  0  0
 55 57  1  0  0  0
 55129  1  0  0  0
 56 69  2  0  0  0
 57 58  2  0  0  0
 57130  1  0  0  0
 58131  1  0  0  0
 59 60  1  0  0  0
 59 61  1  0  0  0
 59 62  1  0  0  0
 60132  1  0  0  0
 60133  1  0  0  0
 60134  1  0  0  0
 61135  1  0  0  0
 61136  1  0  0  0
 61137  1  0  0  0
 62138  1  0  0  0
 62139  1  0  0  0
 62140  1  0  0  0
 63 65  1  0  0  0
 63141  1  0  0  0
 63142  1  0  0  0
 63143  1  0  0  0
 64144  1  0  0  0
 65145  1  0  0  0
 68 81  1  0  0  0
 71146  1  0  0  0
 71147  1  0  0  0
 71 74  1  0  0  0
 71 75  1  0  0  0
 72 75  1  0  0  0
 72148  1  0  0  0
 72149  1  0  0  0
 72 77  1  0  0  0
 73 76  1  0  0  0
 73 77  1  0  0  0
 73150  1  0  0  0
 73151  1  0  0  0
 74 76  1  0  0  0
 74 77  1  0  0  0
 74152  1  0  0  0
 75 82  1  0  0  0
 75153  1  0  0  0
 76 85  1  0  0  0
 76154  1  0  0  0
 77 83  1  0  0  0
 78155  1  0  0  0
 78156  1  0  0  0
 78157  1  0  0  0
 78 82  1  0  0  0
 79158  1  0  0  0
 79159  1  0  0  0
 79160  1  0  0  0
 79 83  1  0  0  0
 80 83  1  0  0  0
 80161  1  0  0  0
 80162  1  0  0  0
 80163  1  0  0  0
 81 84  1  0  0  0
 81164  1  0  0  0
 81165  1  0  0  0
 82 84  1  0  0  0
 82166  1  0  0  0
 83167  1  0  0  0
 84 86  1  0  0  0
 84168  1  0  0  0
 85169  1  0  0  0
 86170  1  0  0  0
M  ISO  4   1 100  68 101  81 101  85 100
M  END
> <chiral flag>
0

> <version>
0

> <s_m_source_file>
/data/baiqing/PycharmProjects/Reinvent-master-3.2/result/LINK_invent/BTK/process_docking_weight1_custom_sum_contain_oxygen_bond_distance_aromatic_linkinvent_7_9_3/rearranged_h_0166.sdf

> <i_m_source_file_index>
30

> <r_mmod_Potential_Energy-OPLS-2005>
394.608459472656

> <r_mmod_Stretch_Energy-OPLS-2005>
143.002044677734

> <r_mmod_Bend_Energy-OPLS-2005>
302.301666259766

> <r_mmod_Torsional_Energy-OPLS-2005>
338.577209472656

> <r_mmod_Improper_Torsional_Energy-OPLS-2005>
5.63108730316162

> <r_mmod_Van_der_Waal_Energy-OPLS-2005>
121.013656616211

> <r_mmod_Electrostatic_Energy-OPLS-2005>
-377.91943359375

> <r_mmod_Solvation_Energy-OPLS-2005>
-219.0537109375

> <b_mmod_Minimization_Converged-OPLS-2005>
0

> <r_mmod_RMS_Derivative-OPLS-2005>
1.21275842189789

$$$$
30
                    3D
 Structure written by MMmdl.
171183  0  0  1  0            999 V2000
  -30.6854  -14.5843   20.5123 C   0  0  0  0  0  0
  -30.4184  -12.3623   19.4526 C   0  0  0  0  0  0
  -29.5001  -12.5010   18.2214 C   0  0  0  0  0  0
  -28.0226  -12.3546   18.6325 C   0  0  0  0  0  0
  -27.6514  -13.2262   19.8629 C   0  0  2  0  0  0
  -28.6946  -13.0930   20.9945 C   0  0  0  0  0  0
  -25.2549  -13.8212   20.5706 C   0  0  0  0  0  0
  -24.1822  -13.0460   20.9192 C   0  0  0  0  0  0
  -24.6408  -11.6937   20.8750 C   0  0  0  0  0  0
  -23.9087  -10.4313   21.0409 C   0  0  0  0  0  0
  -24.3640   -9.4225   21.9182 C   0  0  0  0  0  0
  -23.6308   -8.2265   22.0753 C   0  0  0  0  0  0
  -22.4286   -8.0296   21.3546 C   0  0  0  0  0  0
  -21.9928   -9.0275   20.4647 C   0  0  0  0  0  0
  -22.7264  -10.2149   20.3054 C   0  0  0  0  0  0
  -21.6860   -6.0740   22.5276 C   0  0  0  0  0  0
  -21.4020   -6.5641   23.8211 C   0  0  0  0  0  0
  -21.3665   -5.6790   24.9172 C   0  0  0  0  0  0
  -21.6044   -4.3052   24.7218 C   0  0  0  0  0  0
  -21.8821   -3.8148   23.4337 C   0  0  0  0  0  0
  -21.9200   -4.6968   22.3399 C   0  0  0  0  0  0
  -22.7842  -13.5241   21.1842 C   0  0  0  0  0  0
  -22.1662   -4.2156   21.0974 F   0  0  0  0  0  0
  -21.5630   -3.4534   25.7730 F   0  0  0  0  0  0
  -30.0118  -13.3977   20.4227 N   0  0  0  0  0  0
  -26.2985  -12.9412   20.3340 N   0  0  0  0  0  0
  -25.9336  -11.6558   20.5783 N   0  0  0  0  0  0
  -22.0490  -12.8237   22.0406 N   0  0  0  0  0  0
  -25.4282  -15.1932   20.4144 N   0  0  0  0  0  0
  -31.8491  -14.6879   20.1118 O   0  0  0  0  0  0
  -21.6649   -6.8888   21.4238 O   0  0  0  0  0  0
  -22.3527  -14.5541   20.6681 O   0  0  0  0  0  0
  -24.6235  -31.8631   23.2058 C   0  0  0  0  0  0
  -25.9095  -32.4798   23.8374 C   0  0  1  0  0  0
  -27.2202  -27.3575   20.1067 C   0  0  0  0  0  0
  -25.5922  -33.8597   24.2304 N   0  0  0  0  0  0
  -23.4140  -30.4884   21.5490 C   0  0  2  0  0  0
  -24.8580  -28.9503   20.1119 C   0  0  0  0  0  0
  -22.7461  -29.4639   22.4961 C   0  0  0  0  0  0
  -18.0281  -28.1388   22.8486 C   0  0  0  0  0  0
  -24.1488  -36.7304   23.2637 C   0  0  0  0  0  0
  -25.9517  -30.8072   21.3690 C   0  0  0  0  0  0
  -26.0269  -29.4379   20.7106 C   0  0  0  0  0  0
  -27.2141  -28.6536   20.6971 C   0  0  0  0  0  0
  -26.0287  -26.9121   19.4905 C   0  0  0  0  0  0
  -24.8586  -27.6912   19.4939 C   0  0  0  0  0  0
  -23.6251  -29.8269   20.1626 C   0  0  0  0  0  0
  -25.4110  -36.3097   24.0335 C   0  0  1  0  0  0
  -20.5879  -28.3685   23.1298 C   0  0  2  0  0  0
  -20.6774  -26.9413   22.5416 C   0  0  0  0  0  0
  -19.5748  -26.6387   21.5219 C   0  0  0  0  0  0
  -18.1927  -26.7932   22.1629 C   0  0  0  0  0  0
  -19.1531  -28.8854   23.2887 C   0  0  0  0  0  0
  -18.9456  -30.1456   23.8898 C   0  0  0  0  0  0
  -17.6454  -30.6588   24.0565 C   0  0  0  0  0  0
  -25.9044  -34.9465   23.5115 C   0  0  0  0  0  0
  -16.5347  -29.9087   23.6327 C   0  0  0  0  0  0
  -16.7267  -28.6510   23.0341 C   0  0  0  0  0  0
  -26.4490  -31.6593   25.0727 C   0  0  0  0  0  0
  -25.3733  -31.3712   26.1460 C   0  0  0  0  0  0
  -27.0327  -30.3027   24.6142 C   0  0  0  0  0  0
  -27.6059  -32.4316   25.7495 C   0  0  0  0  0  0
  -27.5578  -37.1808   24.8462 C   0  0  0  0  0  0
  -21.4178  -29.3045   22.3703 N   0  0  0  0  0  0
  -26.4289  -37.3789   23.9409 N   0  0  0  0  0  0
  -24.6819  -31.0678   22.0991 N   0  0  0  0  0  0
  -23.4204  -28.8173   23.3020 O   0  0  0  0  0  0
  -28.3384  -26.5241   20.1437 O   0  0  0  0  0  0
  -26.5606  -34.8926   22.4680 O   0  0  0  0  0  0
  -23.5407  -32.1410   23.7411 O   0  0  0  0  0  0
  -29.9995  -20.2684   21.1258 C   0  0  0  0  0  0
  -29.6104  -20.4205   22.4907 C   0  0  0  0  0  0
  -29.7379  -21.4067   20.2783 C   0  0  0  0  0  0
  -29.1476  -22.6053   20.7956 C   0  0  0  0  0  0
  -28.8661  -21.5732   22.8580 C   0  0  0  0  0  0
  -30.7248  -19.9406   24.8308 C   0  0  0  0  0  0
  -31.4594  -19.0809   23.8493 C   0  0  0  0  0  0
  -28.0178  -24.2953   19.0807 C   0  0  0  0  0  0
  -30.6202  -16.6248   21.8699 C   0  0  0  0  0  0
  -29.5607  -16.7239   19.9296 C   0  0  0  0  0  0
  -30.9225  -19.1305   20.5915 C   0  0  1  0  0  0
  -30.0114  -19.4522   23.5786 C   0  0  0  0  0  0
  -29.1072  -23.9827   20.0852 C   0  0  1  0  0  0
  -31.3395  -17.7516   21.1204 C   0  0  2  0  0  0
  -30.6088  -17.8414   19.8018 C   0  0  1  0  0  0
  -28.0544  -25.0972   20.3595 C   0  0  1  0  0  0
  -30.1959  -21.3911   18.8244 C   0  0  0  0  0  0
  -28.2576  -21.7474   24.2392 C   0  0  0  0  0  0
  -28.6773  -22.6334   22.0520 N   0  0  0  0  0  0
  -29.9929  -15.7022   20.9134 N   0  0  0  0  0  0
  -31.4649  -12.4504   19.1557 H   0  0  0  0  0  0
  -30.3201  -11.3707   19.8976 H   0  0  0  0  0  0
  -29.7553  -11.7495   17.4732 H   0  0  0  0  0  0
  -29.6566  -13.4727   17.7492 H   0  0  0  0  0  0
  -27.8502  -11.3019   18.8601 H   0  0  0  0  0  0
  -27.3720  -12.5947   17.7904 H   0  0  0  0  0  0
  -27.6699  -14.2625   19.5232 H   0  0  0  0  0  0
  -28.6914  -12.0843   21.4105 H   0  0  0  0  0  0
  -28.4520  -13.7640   21.8208 H   0  0  0  0  0  0
  -25.2793   -9.5692   22.4751 H   0  0  0  0  0  0
  -24.0019   -7.4656   22.7471 H   0  0  0  0  0  0
  -21.0859   -8.8797   19.8951 H   0  0  0  0  0  0
  -22.3734  -10.9685   19.6155 H   0  0  0  0  0  0
  -21.2011   -7.6149   23.9720 H   0  0  0  0  0  0
  -21.1480   -6.0514   25.9077 H   0  0  0  0  0  0
  -22.0597   -2.7611   23.2834 H   0  0  0  0  0  0
  -22.4116  -11.9904   22.4796 H   0  0  0  0  0  0
  -21.1105  -13.1246   22.2605 H   0  0  0  0  0  0
  -24.6677  -15.8533   20.5346 H   0  0  0  0  0  0
  -26.2930  -15.6334   20.1261 H   0  0  0  0  0  0
  -26.7164  -32.5481   23.1129 H   0  0  0  0  0  0
  -25.0078  -33.9750   25.0452 H   0  0  0  0  0  0
  -22.7058  -31.3080   21.4108 H   0  0  0  0  0  0
  -23.3750  -35.9638   23.3305 H   0  0  0  0  0  0
  -24.3575  -36.8917   22.2049 H   0  0  0  0  0  0
  -23.7244  -37.6512   23.6650 H   0  0  0  0  0  0
  -26.0734  -31.5718   20.6006 H   0  0  0  0  0  0
  -26.8360  -30.8577   21.9922 H   0  0  0  0  0  0
  -28.1119  -29.0224   21.1733 H   0  0  0  0  0  0
  -25.9810  -25.9499   19.0042 H   0  0  0  0  0  0
  -23.9622  -27.3121   19.0218 H   0  0  0  0  0  0
  -23.7421  -30.6058   19.4082 H   0  0  0  0  0  0
  -22.7452  -29.2564   19.8600 H   0  0  0  0  0  0
  -25.1291  -36.1953   25.0827 H   0  0  0  0  0  0
  -20.9964  -28.3253   24.1421 H   0  0  0  0  0  0
  -20.5687  -26.2291   23.3610 H   0  0  0  0  0  0
  -21.6641  -26.7454   22.1201 H   0  0  0  0  0  0
  -19.6909  -25.6299   21.1243 H   0  0  0  0  0  0
  -19.6688  -27.3203   20.6755 H   0  0  0  0  0  0
  -17.4200  -26.6677   21.4028 H   0  0  0  0  0  0
  -18.0324  -26.0076   22.9026 H   0  0  0  0  0  0
  -19.7929  -30.7272   24.2270 H   0  0  0  0  0  0
  -17.5008  -31.6266   24.5170 H   0  0  0  0  0  0
  -15.5347  -30.2987   23.7654 H   0  0  0  0  0  0
  -15.8670  -28.0835   22.7043 H   0  0  0  0  0  0
  -24.5914  -30.7056   25.7787 H   0  0  0  0  0  0
  -24.8916  -32.2870   26.4896 H   0  0  0  0  0  0
  -25.8068  -30.8884   27.0227 H   0  0  0  0  0  0
  -26.2888  -29.6786   24.1175 H   0  0  0  0  0  0
  -27.4057  -29.7270   25.4623 H   0  0  0  0  0  0
  -27.8744  -30.4336   23.9336 H   0  0  0  0  0  0
  -27.2682  -33.3616   26.2082 H   0  0  0  0  0  0
  -28.3866  -32.6874   25.0317 H   0  0  0  0  0  0
  -28.0731  -31.8430   26.5401 H   0  0  0  0  0  0
  -28.2600  -38.0102   24.7510 H   0  0  0  0  0  0
  -28.1071  -36.2635   24.6290 H   0  0  0  0  0  0
  -27.2294  -37.1460   25.8865 H   0  0  0  0  0  0
  -20.9349  -29.8779   21.6928 H   0  0  0  0  0  0
  -26.0175  -38.2867   24.1408 H   0  0  0  0  0  0
  -31.0463  -20.9792   24.8873 H   0  0  0  0  0  0
  -30.4705  -19.4791   25.7837 H   0  0  0  0  0  0
  -31.6786  -18.0626   24.1650 H   0  0  0  0  0  0
  -32.2362  -19.5618   23.2577 H   0  0  0  0  0  0
  -27.2089  -23.5757   18.9755 H   0  0  0  0  0  0
  -28.3134  -24.8003   18.1639 H   0  0  0  0  0  0
  -29.8353  -17.0249   22.5064 H   0  0  0  0  0  0
  -31.3263  -16.1090   22.5238 H   0  0  0  0  0  0
  -29.3848  -16.2759   18.9497 H   0  0  0  0  0  0
  -28.6125  -17.1583   20.2510 H   0  0  0  0  0  0
  -31.7835  -19.6793   20.2142 H   0  0  0  0  0  0
  -29.2278  -18.7161   23.7460 H   0  0  0  0  0  0
  -30.1175  -24.3097   19.8471 H   0  0  0  0  0  0
  -32.4100  -17.5635   21.0463 H   0  0  0  0  0  0
  -31.2253  -17.7129   18.9134 H   0  0  0  0  0  0
  -27.3006  -24.9117   21.1236 H   0  0  0  0  0  0
  -30.0750  -20.4034   18.3793 H   0  0  0  0  0  0
  -31.2451  -21.6772   18.7514 H   0  0  0  0  0  0
  -29.6160  -22.0816   18.2125 H   0  0  0  0  0  0
  -27.8743  -20.8025   24.6228 H   0  0  0  0  0  0
  -27.4234  -22.4493   24.2155 H   0  0  0  0  0  0
  -28.9942  -22.1380   24.9398 H   0  0  0  0  0  0
  1 25  1  0  0  0
  1 30  2  0  0  0
  1 90  1  0  0  0
  2  3  1  0  0  0
  2 25  1  0  0  0
  2 91  1  0  0  0
  2 92  1  0  0  0
  3  4  1  0  0  0
  3 93  1  0  0  0
  3 94  1  0  0  0
  4  5  1  0  0  0
  4 95  1  0  0  0
  4 96  1  0  0  0
  5  6  1  0  0  0
  5 26  1  0  0  0
  5 97  1  0  0  0
  6 25  1  0  0  0
  6 98  1  0  0  0
  6 99  1  0  0  0
  7  8  2  0  0  0
  7 26  1  0  0  0
  7 29  1  0  0  0
  8  9  1  0  0  0
  8 22  1  0  0  0
  9 10  1  0  0  0
  9 27  2  0  0  0
 10 11  2  0  0  0
 10 15  1  0  0  0
 11 12  1  0  0  0
 11100  1  0  0  0
 12 13  2  0  0  0
 12101  1  0  0  0
 13 14  1  0  0  0
 13 31  1  0  0  0
 14 15  2  0  0  0
 14102  1  0  0  0
 15103  1  0  0  0
 16 17  2  0  0  0
 16 21  1  0  0  0
 16 31  1  0  0  0
 17 18  1  0  0  0
 17104  1  0  0  0
 18 19  2  0  0  0
 18105  1  0  0  0
 19 20  1  0  0  0
 19 24  1  0  0  0
 20 21  2  0  0  0
 20106  1  0  0  0
 21 23  1  0  0  0
 22 28  1  0  0  0
 22 32  2  0  0  0
 26 27  1  0  0  0
 28107  1  0  0  0
 28108  1  0  0  0
 29109  1  0  0  0
 29110  1  0  0  0
 33 34  1  0  0  0
 33 66  1  0  0  0
 33 70  2  0  0  0
 34 36  1  0  0  0
 34 59  1  0  0  0
 34111  1  0  0  0
 35 44  2  0  0  0
 35 45  1  0  0  0
 35 68  1  0  0  0
 36 56  1  0  0  0
 36112  1  0  0  0
 37 39  1  0  0  0
 37 47  1  0  0  0
 37 66  1  0  0  0
 37113  1  0  0  0
 38 43  2  0  0  0
 38 46  1  0  0  0
 38 47  1  0  0  0
 39 64  1  0  0  0
 39 67  2  0  0  0
 40 52  1  0  0  0
 40 53  2  0  0  0
 40 58  1  0  0  0
 41114  1  0  0  0
 41115  1  0  0  0
 41116  1  0  0  0
 41 48  1  0  0  0
 42 43  1  0  0  0
 42 66  1  0  0  0
 42117  1  0  0  0
 42118  1  0  0  0
 43 44  1  0  0  0
 44119  1  0  0  0
 45 46  2  0  0  0
 45120  1  0  0  0
 46121  1  0  0  0
 47122  1  0  0  0
 47123  1  0  0  0
 48 56  1  0  0  0
 48 65  1  0  0  0
 48124  1  0  0  0
 49 50  1  0  0  0
 49 53  1  0  0  0
 49 64  1  0  0  0
 49125  1  0  0  0
 50 51  1  0  0  0
 50126  1  0  0  0
 50127  1  0  0  0
 51 52  1  0  0  0
 51128  1  0  0  0
 51129  1  0  0  0
 52130  1  0  0  0
 52131  1  0  0  0
 53 54  1  0  0  0
 54 55  2  0  0  0
 54132  1  0  0  0
 55 57  1  0  0  0
 55133  1  0  0  0
 56 69  2  0  0  0
 57 58  2  0  0  0
 57134  1  0  0  0
 58135  1  0  0  0
 59 60  1  0  0  0
 59 61  1  0  0  0
 59 62  1  0  0  0
 60136  1  0  0  0
 60137  1  0  0  0
 60138  1  0  0  0
 61139  1  0  0  0
 61140  1  0  0  0
 61141  1  0  0  0
 62142  1  0  0  0
 62143  1  0  0  0
 62144  1  0  0  0
 63 65  1  0  0  0
 63145  1  0  0  0
 63146  1  0  0  0
 63147  1  0  0  0
 64148  1  0  0  0
 65149  1  0  0  0
 68 86  1  0  0  0
 71 72  1  0  0  0
 71 73  2  0  0  0
 71 81  1  0  0  0
 72 75  2  0  0  0
 72 82  1  0  0  0
 73 74  1  0  0  0
 73 87  1  0  0  0
 74 89  2  0  0  0
 74 83  1  0  0  0
 75 88  1  0  0  0
 75 89  1  0  0  0
 76 77  1  0  0  0
 76 82  1  0  0  0
 76150  1  0  0  0
 76151  1  0  0  0
 77 82  1  0  0  0
 77152  1  0  0  0
 77153  1  0  0  0
 78 83  1  0  0  0
 78 86  1  0  0  0
 78154  1  0  0  0
 78155  1  0  0  0
 79 90  1  0  0  0
 79156  1  0  0  0
 79157  1  0  0  0
 79 84  1  0  0  0
 80 90  1  0  0  0
 80158  1  0  0  0
 80159  1  0  0  0
 80 85  1  0  0  0
 81 84  1  0  0  0
 81 85  1  0  0  0
 81160  1  0  0  0
 82161  1  0  0  0
 83 86  1  0  0  0
 83162  1  0  0  0
 84 85  1  0  0  0
 84163  1  0  0  0
 85164  1  0  0  0
 86165  1  0  0  0
 87166  1  0  0  0
 87167  1  0  0  0
 87168  1  0  0  0
 88169  1  0  0  0
 88170  1  0  0  0
 88171  1  0  0  0
M  ISO  4   1 100  68 101  86 101  90 100
M  END
> <chiral flag>
0

> <version>
0

> <s_m_source_file>
/data/baiqing/PycharmProjects/Reinvent-master-3.2/result/LINK_invent/BTK/process_docking_weight1_custom_sum_contain_oxygen_bond_distance_aromatic_linkinvent_7_9_3/rearranged_h_0166.sdf

> <i_m_source_file_index>
31

> <r_mmod_Potential_Energy-OPLS-2005>
316.590270996094

> <r_mmod_Stretch_Energy-OPLS-2005>
69.5926818847656

> <r_mmod_Bend_Energy-OPLS-2005>
256.917510986328

> <r_mmod_Torsional_Energy-OPLS-2005>
431.469757080078

> <r_mmod_Improper_Torsional_Energy-OPLS-2005>
12.1524868011475

> <r_mmod_Van_der_Waal_Energy-OPLS-2005>
147.071578979492

> <r_mmod_Electrostatic_Energy-OPLS-2005>
-423.352813720703

> <r_mmod_Solvation_Energy-OPLS-2005>
-212.429763793945

> <b_mmod_Minimization_Converged-OPLS-2005>
0

> <r_mmod_RMS_Derivative-OPLS-2005>
1.13025987148285

$$$$
31
                    3D
 Structure written by MMmdl.
195205  0  0  1  0            999 V2000
  -30.5250  -14.9304   20.4313 C   0  0  0  0  0  0
  -30.4502  -12.5802   19.4922 C   0  0  0  0  0  0
  -29.5337  -12.5453   18.2487 C   0  0  0  0  0  0
  -28.0651  -12.3153   18.6630 C   0  0  0  0  0  0
  -27.6352  -13.2402   19.8354 C   0  0  2  0  0  0
  -28.6759  -13.2610   20.9728 C   0  0  0  0  0  0
  -25.2499  -13.8186   20.5660 C   0  0  0  0  0  0
  -24.1818  -13.0423   20.9213 C   0  0  0  0  0  0
  -24.6426  -11.6908   20.8735 C   0  0  0  0  0  0
  -23.9101  -10.4298   21.0396 C   0  0  0  0  0  0
  -24.3655   -9.4213   21.9180 C   0  0  0  0  0  0
  -23.6325   -8.2253   22.0764 C   0  0  0  0  0  0
  -22.4307   -8.0292   21.3554 C   0  0  0  0  0  0
  -21.9933   -9.0260   20.4650 C   0  0  0  0  0  0
  -22.7267  -10.2137   20.3049 C   0  0  0  0  0  0
  -21.6841   -6.0752   22.5290 C   0  0  0  0  0  0
  -21.4021   -6.5652   23.8226 C   0  0  0  0  0  0
  -21.3662   -5.6806   24.9185 C   0  0  0  0  0  0
  -21.6030   -4.3064   24.7222 C   0  0  0  0  0  0
  -21.8818   -3.8158   23.4350 C   0  0  0  0  0  0
  -21.9200   -4.6974   22.3412 C   0  0  0  0  0  0
  -22.7845  -13.5210   21.1835 C   0  0  0  0  0  0
  -22.1654   -4.2168   21.0987 F   0  0  0  0  0  0
  -21.5628   -3.4545   25.7728 F   0  0  0  0  0  0
  -29.9563  -13.6666   20.3786 N   0  0  0  0  0  0
  -26.2919  -12.9402   20.3206 N   0  0  0  0  0  0
  -25.9355  -11.6543   20.5752 N   0  0  0  0  0  0
  -22.0461  -12.8250   22.0398 N   0  0  0  0  0  0
  -25.4145  -15.1917   20.4042 N   0  0  0  0  0  0
  -31.7318  -15.0562   20.1864 O   0  0  0  0  0  0
  -21.6659   -6.8879   21.4247 O   0  0  0  0  0  0
  -22.3549  -14.5510   20.6636 O   0  0  0  0  0  0
  -24.6450  -31.8458   23.1916 C   0  0  0  0  0  0
  -25.9222  -32.4681   23.8311 C   0  0  1  0  0  0
  -27.1977  -27.1297   20.1182 C   0  0  0  0  0  0
  -25.5987  -33.8493   24.2211 N   0  0  0  0  0  0
  -23.4449  -30.4651   21.5429 C   0  0  2  0  0  0
  -24.8844  -28.8985   20.1112 C   0  0  0  0  0  0
  -22.7573  -29.4548   22.4946 C   0  0  0  0  0  0
  -18.0280  -28.1398   22.8474 C   0  0  0  0  0  0
  -24.1504  -36.7235   23.2646 C   0  0  0  0  0  0
  -26.0022  -30.7075   21.3999 C   0  0  0  0  0  0
  -26.0669  -29.3227   20.7325 C   0  0  0  0  0  0
  -27.2243  -28.4511   20.7288 C   0  0  0  0  0  0
  -25.9976  -26.8326   19.4417 C   0  0  0  0  0  0
  -24.8605  -27.6623   19.4568 C   0  0  0  0  0  0
  -23.6643  -29.8035   20.1605 C   0  0  0  0  0  0
  -25.4129  -36.3017   24.0337 C   0  0  1  0  0  0
  -20.5905  -28.3719   23.1267 C   0  0  2  0  0  0
  -20.6805  -26.9422   22.5430 C   0  0  0  0  0  0
  -19.5768  -26.6376   21.5242 C   0  0  0  0  0  0
  -18.1933  -26.7931   22.1622 C   0  0  0  0  0  0
  -19.1545  -28.8870   23.2850 C   0  0  0  0  0  0
  -18.9452  -30.1463   23.8876 C   0  0  0  0  0  0
  -17.6456  -30.6601   24.0548 C   0  0  0  0  0  0
  -25.9095  -34.9400   23.5083 C   0  0  0  0  0  0
  -16.5350  -29.9081   23.6364 C   0  0  0  0  0  0
  -16.7264  -28.6497   23.0390 C   0  0  0  0  0  0
  -26.4531  -31.6546   25.0770 C   0  0  0  0  0  0
  -25.3710  -31.3755   26.1468 C   0  0  0  0  0  0
  -27.0411  -30.2955   24.6340 C   0  0  0  0  0  0
  -27.6069  -32.4313   25.7535 C   0  0  0  0  0  0
  -27.5591  -37.1764   24.8455 C   0  0  0  0  0  0
  -21.4280  -29.3033   22.3659 N   0  0  0  0  0  0
  -26.4296  -37.3733   23.9416 N   0  0  0  0  0  0
  -24.7156  -31.0287   22.0985 N   0  0  0  0  0  0
  -23.4203  -28.8103   23.3117 O   0  0  0  0  0  0
  -28.2185  -26.1032   20.1655 O   0  0  0  0  0  0
  -26.5668  -34.8899   22.4650 O   0  0  0  0  0  0
  -23.5578  -32.1348   23.7145 O   0  0  0  0  0  0
  -31.2620  -20.4303   17.5759 C   0  0  0  0  0  0
  -33.0713  -22.4280   18.3338 C   0  0  0  0  0  0
  -31.4125  -20.7435   18.9458 C   0  0  0  0  0  0
  -32.0147  -21.0907   16.5891 C   0  0  0  0  0  0
  -32.9221  -22.1022   16.9698 C   0  0  0  0  0  0
  -32.3265  -21.7533   19.3333 C   0  0  0  0  0  0
  -25.0590  -23.4664   18.7199 C   0  0  0  0  0  0
  -24.3470  -22.1614   18.7525 C   0  0  0  0  0  0
  -28.6717  -18.7041   20.6278 C   0  0  0  0  0  0
  -30.6216  -19.9488   19.9939 C   0  0  1  0  0  0
  -25.7039  -22.2879   19.4460 C   0  0  0  0  0  0
  -29.0760  -20.1119   19.8862 C   0  0  2  0  0  0
  -29.8891  -17.6228   20.7504 C   0  0  2  0  0  0
  -30.9156  -18.3815   19.8792 C   0  0  2  0  0  0
  -31.8436  -20.6891   15.1324 C   0  0  0  0  0  0
  -33.7530  -22.8355   15.9311 C   0  0  0  0  0  0
  -29.5014  -23.2484   21.4419 C   0  0  0  0  0  0
  -26.3716  -20.0099   18.8570 C   0  0  0  0  0  0
  -27.3653  -21.8675   17.5359 C   0  0  0  0  0  0
  -33.1875  -23.1604   21.0860 C   0  0  0  0  0  0
  -27.8447  -24.5942   19.9767 C   0  0  0  0  0  0
  -28.1578  -21.5686   19.9836 C   0  0  1  0  0  0
  -28.7601  -23.1681   20.1031 C   0  0  2  0  0  0
  -26.9224  -21.4630   18.9627 C   0  0  0  0  0  0
  -29.6936  -16.0676   20.5607 N   0  0  0  0  0  0
  -32.3042  -18.0142   20.1985 N   0  3  0  0  0  0
  -32.4646  -22.0074   20.6806 O   0  0  0  0  0  0
  -31.4881  -12.7439   19.1969 H   0  0  0  0  0  0
  -30.4319  -11.6206   20.0112 H   0  0  0  0  0  0
  -29.8624  -11.7658   17.5586 H   0  0  0  0  0  0
  -29.6171  -13.4875   17.7028 H   0  0  0  0  0  0
  -27.9741  -11.2720   18.9663 H   0  0  0  0  0  0
  -27.3989  -12.4470   17.8097 H   0  0  0  0  0  0
  -27.5973  -14.2459   19.4166 H   0  0  0  0  0  0
  -28.7632  -12.2900   21.4609 H   0  0  0  0  0  0
  -28.3804  -13.9685   21.7486 H   0  0  0  0  0  0
  -25.2778   -9.5730   22.4775 H   0  0  0  0  0  0
  -24.0024   -7.4672   22.7507 H   0  0  0  0  0  0
  -21.0847   -8.8782   19.8995 H   0  0  0  0  0  0
  -22.3684  -10.9689   19.6193 H   0  0  0  0  0  0
  -21.2015   -7.6152   23.9743 H   0  0  0  0  0  0
  -21.1476   -6.0522   25.9091 H   0  0  0  0  0  0
  -22.0597   -2.7614   23.2842 H   0  0  0  0  0  0
  -22.4023  -11.9922   22.4846 H   0  0  0  0  0  0
  -21.1099  -13.1352   22.2559 H   0  0  0  0  0  0
  -24.6342  -15.8325   20.4981 H   0  0  0  0  0  0
  -26.2372  -15.6332   20.0157 H   0  0  0  0  0  0
  -26.7277  -32.5266   23.1032 H   0  0  0  0  0  0
  -25.0151  -33.9602   25.0369 H   0  0  0  0  0  0
  -22.7469  -31.2914   21.3958 H   0  0  0  0  0  0
  -23.3836  -35.9506   23.3254 H   0  0  0  0  0  0
  -24.3597  -36.8926   22.2070 H   0  0  0  0  0  0
  -23.7190  -37.6386   23.6720 H   0  0  0  0  0  0
  -26.1805  -31.4707   20.6403 H   0  0  0  0  0  0
  -26.8626  -30.7338   22.0558 H   0  0  0  0  0  0
  -28.1165  -28.7586   21.2545 H   0  0  0  0  0  0
  -25.9009  -25.9222   18.8820 H   0  0  0  0  0  0
  -23.9651  -27.3317   18.9495 H   0  0  0  0  0  0
  -23.8015  -30.5825   19.4095 H   0  0  0  0  0  0
  -22.7739  -29.2522   19.8523 H   0  0  0  0  0  0
  -25.1329  -36.1861   25.0844 H   0  0  0  0  0  0
  -20.9939  -28.3301   24.1413 H   0  0  0  0  0  0
  -20.5754  -26.2315   23.3640 H   0  0  0  0  0  0
  -21.6666  -26.7491   22.1170 H   0  0  0  0  0  0
  -19.6961  -25.6285   21.1263 H   0  0  0  0  0  0
  -19.6758  -27.3198   20.6769 H   0  0  0  0  0  0
  -17.4243  -26.6716   21.3987 H   0  0  0  0  0  0
  -18.0280  -26.0087   22.9000 H   0  0  0  0  0  0
  -19.7943  -30.7259   24.2292 H   0  0  0  0  0  0
  -17.5023  -31.6291   24.5123 H   0  0  0  0  0  0
  -15.5355  -30.2960   23.7735 H   0  0  0  0  0  0
  -15.8657  -28.0779   22.7181 H   0  0  0  0  0  0
  -24.5857  -30.7129   25.7813 H   0  0  0  0  0  0
  -24.8952  -32.2959   26.4850 H   0  0  0  0  0  0
  -25.7973  -30.8946   27.0272 H   0  0  0  0  0  0
  -26.3016  -29.6661   24.1360 H   0  0  0  0  0  0
  -27.4065  -29.7272   25.4901 H   0  0  0  0  0  0
  -27.8923  -30.4274   23.9658 H   0  0  0  0  0  0
  -27.2626  -33.3601   26.2093 H   0  0  0  0  0  0
  -28.3844  -32.6860   25.0327 H   0  0  0  0  0  0
  -28.0762  -31.8453   26.5446 H   0  0  0  0  0  0
  -28.2554  -38.0104   24.7551 H   0  0  0  0  0  0
  -28.1146  -36.2648   24.6229 H   0  0  0  0  0  0
  -27.2342  -37.1308   25.8860 H   0  0  0  0  0  0
  -20.9507  -29.8659   21.6760 H   0  0  0  0  0  0
  -26.0203  -38.2822   24.1440 H   0  0  0  0  0  0
  -30.5728  -19.6576   17.2669 H   0  0  0  0  0  0
  -33.7875  -23.1936   18.5964 H   0  0  0  0  0  0
  -24.5849  -24.2462   19.3124 H   0  0  0  0  0  0
  -25.4333  -23.7856   17.7479 H   0  0  0  0  0  0
  -24.2521  -21.6684   17.7868 H   0  0  0  0  0  0
  -23.4697  -22.0813   19.3916 H   0  0  0  0  0  0
  -27.8277  -18.2163   20.1475 H   0  0  0  0  0  0
  -28.3222  -18.9507   21.6318 H   0  0  0  0  0  0
  -30.9081  -20.2559   20.9988 H   0  0  0  0  0  0
  -25.6220  -22.3056   20.5318 H   0  0  0  0  0  0
  -28.9758  -19.8702   18.8348 H   0  0  0  0  0  0
  -30.2411  -17.7076   21.7796 H   0  0  0  0  0  0
  -30.7353  -18.0606   18.8535 H   0  0  0  0  0  0
  -31.2118  -19.8067   15.0257 H   0  0  0  0  0  0
  -32.8057  -20.4542   14.6770 H   0  0  0  0  0  0
  -31.3835  -21.4967   14.5636 H   0  0  0  0  0  0
  -34.2469  -23.7088   16.3583 H   0  0  0  0  0  0
  -33.1291  -23.1818   15.1067 H   0  0  0  0  0  0
  -34.5239  -22.1779   15.5277 H   0  0  0  0  0  0
  -30.1277  -24.1390   21.4971 H   0  0  0  0  0  0
  -30.1371  -22.3788   21.5936 H   0  0  0  0  0  0
  -28.7949  -23.2768   22.2723 H   0  0  0  0  0  0
  -25.4761  -19.9380   18.2444 H   0  0  0  0  0  0
  -26.0974  -19.6206   19.8366 H   0  0  0  0  0  0
  -27.0413  -19.3021   18.3732 H   0  0  0  0  0  0
  -27.6785  -22.9068   17.4718 H   0  0  0  0  0  0
  -26.5603  -21.7382   16.8120 H   0  0  0  0  0  0
  -28.2034  -21.2672   17.1831 H   0  0  0  0  0  0
  -33.1023  -23.2708   22.1684 H   0  0  0  0  0  0
  -32.7797  -24.0661   20.6333 H   0  0  0  0  0  0
  -34.2487  -23.0740   20.8466 H   0  0  0  0  0  0
  -26.9876  -24.4492   20.6347 H   0  0  0  0  0  0
  -27.4744  -24.5538   18.9563 H   0  0  0  0  0  0
  -27.6850  -21.4468   20.9588 H   0  0  0  0  0  0
  -29.5128  -23.2435   19.3194 H   0  0  0  0  0  0
  -28.7286  -15.7922   20.6565 H   0  0  0  0  0  0
  -32.5604  -18.3435   21.1117 H   0  0  0  0  0  0
  -32.9288  -18.4183   19.5226 H   0  0  0  0  0  0
  -32.4016  -17.0079   20.1689 H   0  0  0  0  0  0
  1 25  1  0  0  0
  1 30  2  0  0  0
  1 95  1  0  0  0
  2  3  1  0  0  0
  2 25  1  0  0  0
  2 98  1  0  0  0
  2 99  1  0  0  0
  3  4  1  0  0  0
  3100  1  0  0  0
  3101  1  0  0  0
  4  5  1  0  0  0
  4102  1  0  0  0
  4103  1  0  0  0
  5  6  1  0  0  0
  5 26  1  0  0  0
  5104  1  0  0  0
  6 25  1  0  0  0
  6105  1  0  0  0
  6106  1  0  0  0
  7  8  2  0  0  0
  7 26  1  0  0  0
  7 29  1  0  0  0
  8  9  1  0  0  0
  8 22  1  0  0  0
  9 10  1  0  0  0
  9 27  2  0  0  0
 10 11  2  0  0  0
 10 15  1  0  0  0
 11 12  1  0  0  0
 11107  1  0  0  0
 12 13  2  0  0  0
 12108  1  0  0  0
 13 14  1  0  0  0
 13 31  1  0  0  0
 14 15  2  0  0  0
 14109  1  0  0  0
 15110  1  0  0  0
 16 17  2  0  0  0
 16 21  1  0  0  0
 16 31  1  0  0  0
 17 18  1  0  0  0
 17111  1  0  0  0
 18 19  2  0  0  0
 18112  1  0  0  0
 19 20  1  0  0  0
 19 24  1  0  0  0
 20 21  2  0  0  0
 20113  1  0  0  0
 21 23  1  0  0  0
 22 28  1  0  0  0
 22 32  2  0  0  0
 26 27  1  0  0  0
 28114  1  0  0  0
 28115  1  0  0  0
 29116  1  0  0  0
 29117  1  0  0  0
 33 34  1  0  0  0
 33 66  1  0  0  0
 33 70  2  0  0  0
 34 36  1  0  0  0
 34 59  1  0  0  0
 34118  1  0  0  0
 35 44  2  0  0  0
 35 45  1  0  0  0
 35 68  1  0  0  0
 36 56  1  0  0  0
 36119  1  0  0  0
 37 39  1  0  0  0
 37 47  1  0  0  0
 37 66  1  0  0  0
 37120  1  0  0  0
 38 43  2  0  0  0
 38 46  1  0  0  0
 38 47  1  0  0  0
 39 64  1  0  0  0
 39 67  2  0  0  0
 40 52  1  0  0  0
 40 53  2  0  0  0
 40 58  1  0  0  0
 41121  1  0  0  0
 41122  1  0  0  0
 41123  1  0  0  0
 41 48  1  0  0  0
 42 43  1  0  0  0
 42 66  1  0  0  0
 42124  1  0  0  0
 42125  1  0  0  0
 43 44  1  0  0  0
 44126  1  0  0  0
 45 46  2  0  0  0
 45127  1  0  0  0
 46128  1  0  0  0
 47129  1  0  0  0
 47130  1  0  0  0
 48 56  1  0  0  0
 48 65  1  0  0  0
 48131  1  0  0  0
 49 50  1  0  0  0
 49 53  1  0  0  0
 49 64  1  0  0  0
 49132  1  0  0  0
 50 51  1  0  0  0
 50133  1  0  0  0
 50134  1  0  0  0
 51 52  1  0  0  0
 51135  1  0  0  0
 51136  1  0  0  0
 52137  1  0  0  0
 52138  1  0  0  0
 53 54  1  0  0  0
 54 55  2  0  0  0
 54139  1  0  0  0
 55 57  1  0  0  0
 55140  1  0  0  0
 56 69  2  0  0  0
 57 58  2  0  0  0
 57141  1  0  0  0
 58142  1  0  0  0
 59 60  1  0  0  0
 59 61  1  0  0  0
 59 62  1  0  0  0
 60143  1  0  0  0
 60144  1  0  0  0
 60145  1  0  0  0
 61146  1  0  0  0
 61147  1  0  0  0
 61148  1  0  0  0
 62149  1  0  0  0
 62150  1  0  0  0
 62151  1  0  0  0
 63 65  1  0  0  0
 63152  1  0  0  0
 63153  1  0  0  0
 63154  1  0  0  0
 64155  1  0  0  0
 65156  1  0  0  0
 68 91  1  0  0  0
 71 73  2  0  0  0
 71 74  1  0  0  0
 71157  1  0  0  0
 72 75  1  0  0  0
 72 76  2  0  0  0
 72158  1  0  0  0
 73 76  1  0  0  0
 73 80  1  0  0  0
 74 75  2  0  0  0
 74 85  1  0  0  0
 75 86  1  0  0  0
 76 97  1  0  0  0
 77 78  1  0  0  0
 77159  1  0  0  0
 77160  1  0  0  0
 77 81  1  0  0  0
 78 81  1  0  0  0
 78161  1  0  0  0
 78162  1  0  0  0
 79 83  1  0  0  0
 79163  1  0  0  0
 79164  1  0  0  0
 79 82  1  0  0  0
 80 82  1  0  0  0
 80 84  1  0  0  0
 80165  1  0  0  0
 81 94  1  0  0  0
 81166  1  0  0  0
 82 92  1  0  0  0
 82167  1  0  0  0
 83 84  1  0  0  0
 83 95  1  0  0  0
 83168  1  0  0  0
 84 96  1  0  0  0
 84169  1  0  0  0
 85170  1  0  0  0
 85171  1  0  0  0
 85172  1  0  0  0
 86173  1  0  0  0
 86174  1  0  0  0
 86175  1  0  0  0
 87176  1  0  0  0
 87177  1  0  0  0
 87178  1  0  0  0
 87 93  1  0  0  0
 88179  1  0  0  0
 88180  1  0  0  0
 88181  1  0  0  0
 88 94  1  0  0  0
 89 94  1  0  0  0
 89182  1  0  0  0
 89183  1  0  0  0
 89184  1  0  0  0
 90 97  1  0  0  0
 90185  1  0  0  0
 90186  1  0  0  0
 90187  1  0  0  0
 91 93  1  0  0  0
 91188  1  0  0  0
 91189  1  0  0  0
 92 93  1  0  0  0
 92 94  1  0  0  0
 92190  1  0  0  0
 93191  1  0  0  0
 95192  1  0  0  0
 96193  1  0  0  0
 96194  1  0  0  0
 96195  1  0  0  0
M  CHG  1  96   1
M  ISO  4   1 100  68 101  91 101  95 100
M  END
> <chiral flag>
0

> <version>
0

> <s_m_source_file>
/data/baiqing/PycharmProjects/Reinvent-master-3.2/result/LINK_invent/BTK/process_docking_weight1_custom_sum_contain_oxygen_bond_distance_aromatic_linkinvent_7_9_3/rearranged_h_0166.sdf

> <i_m_source_file_index>
32

> <r_mmod_Potential_Energy-OPLS-2005>
441.811096191406

> <r_mmod_Stretch_Energy-OPLS-2005>
292.479766845703

> <r_mmod_Bend_Energy-OPLS-2005>
364.639892578125

> <r_mmod_Torsional_Energy-OPLS-2005>
386.262390136719

> <r_mmod_Improper_Torsional_Energy-OPLS-2005>
4.6851692199707

> <r_mmod_Van_der_Waal_Energy-OPLS-2005>
147.536758422852

> <r_mmod_Electrostatic_Energy-OPLS-2005>
-533.613586425781

> <r_mmod_Solvation_Energy-OPLS-2005>
-418.06005859375

> <b_mmod_Minimization_Converged-OPLS-2005>
0

> <r_mmod_RMS_Derivative-OPLS-2005>
4.41208648681641

$$$$
32
                    3D
 Structure written by MMmdl.
185195  0  0  1  0            999 V2000
  -30.7771  -14.3727   20.6840 C   0  0  0  0  0  0
  -30.4143  -12.2980   19.4030 C   0  0  0  0  0  0
  -29.4818  -12.5295   18.1993 C   0  0  0  0  0  0
  -28.0082  -12.3831   18.6148 C   0  0  0  0  0  0
  -27.6657  -13.2066   19.8834 C   0  0  2  0  0  0
  -28.7033  -12.9637   21.0036 C   0  0  0  0  0  0
  -25.2584  -13.8165   20.5691 C   0  0  0  0  0  0
  -24.1827  -13.0434   20.9172 C   0  0  0  0  0  0
  -24.6391  -11.6912   20.8730 C   0  0  0  0  0  0
  -23.9057  -10.4298   21.0397 C   0  0  0  0  0  0
  -24.3616   -9.4216   21.9180 C   0  0  0  0  0  0
  -23.6294   -8.2252   22.0751 C   0  0  0  0  0  0
  -22.4277   -8.0282   21.3548 C   0  0  0  0  0  0
  -21.9912   -9.0253   20.4642 C   0  0  0  0  0  0
  -22.7234  -10.2132   20.3051 C   0  0  0  0  0  0
  -21.6855   -6.0736   22.5282 C   0  0  0  0  0  0
  -21.4022   -6.5641   23.8217 C   0  0  0  0  0  0
  -21.3666   -5.6793   24.9175 C   0  0  0  0  0  0
  -21.6042   -4.3056   24.7229 C   0  0  0  0  0  0
  -21.8819   -3.8150   23.4349 C   0  0  0  0  0  0
  -21.9194   -4.6964   22.3408 C   0  0  0  0  0  0
  -22.7855  -13.5241   21.1841 C   0  0  0  0  0  0
  -22.1659   -4.2154   21.0981 F   0  0  0  0  0  0
  -21.5630   -3.4544   25.7742 F   0  0  0  0  0  0
  -30.0508  -13.2445   20.4693 N   0  0  0  0  0  0
  -26.3036  -12.9345   20.3402 N   0  0  0  0  0  0
  -25.9323  -11.6502   20.5777 N   0  0  0  0  0  0
  -22.0503  -12.8214   22.0398 N   0  0  0  0  0  0
  -25.4289  -15.1883   20.4112 N   0  0  0  0  0  0
  -31.7655  -14.6675   20.0087 O   0  0  0  0  0  0
  -21.6643   -6.8878   21.4244 O   0  0  0  0  0  0
  -22.3549  -14.5553   20.6707 O   0  0  0  0  0  0
  -24.6068  -31.8717   23.2118 C   0  0  0  0  0  0
  -25.8990  -32.4836   23.8396 C   0  0  1  0  0  0
  -27.2356  -27.4866   20.0844 C   0  0  0  0  0  0
  -25.5888  -33.8630   24.2376 N   0  0  0  0  0  0
  -23.3940  -30.4907   21.5527 C   0  0  2  0  0  0
  -24.8434  -28.9672   20.1083 C   0  0  0  0  0  0
  -22.7388  -29.4630   22.5019 C   0  0  0  0  0  0
  -18.0256  -28.1395   22.8473 C   0  0  0  0  0  0
  -24.1505  -36.7350   23.2638 C   0  0  0  0  0  0
  -25.9133  -30.8563   21.3530 C   0  0  0  0  0  0
  -25.9971  -29.4940   20.7033 C   0  0  0  0  0  0
  -27.1967  -28.7603   20.6897 C   0  0  0  0  0  0
  -26.0792  -26.9713   19.4683 C   0  0  0  0  0  0
  -24.8777  -27.7030   19.4904 C   0  0  0  0  0  0
  -23.5984  -29.8218   20.1664 C   0  0  0  0  0  0
  -25.4122  -36.3130   24.0349 C   0  0  1  0  0  0
  -20.5857  -28.3644   23.1376 C   0  0  2  0  0  0
  -20.6737  -26.9383   22.5481 C   0  0  0  0  0  0
  -19.5763  -26.6414   21.5223 C   0  0  0  0  0  0
  -18.1906  -26.7955   22.1575 C   0  0  0  0  0  0
  -19.1519  -28.8828   23.2912 C   0  0  0  0  0  0
  -18.9448  -30.1435   23.8920 C   0  0  0  0  0  0
  -17.6459  -30.6588   24.0579 C   0  0  0  0  0  0
  -25.9043  -34.9481   23.5180 C   0  0  0  0  0  0
  -16.5341  -29.9105   23.6334 C   0  0  0  0  0  0
  -16.7256  -28.6536   23.0328 C   0  0  0  0  0  0
  -26.4430  -31.6591   25.0705 C   0  0  0  0  0  0
  -25.3716  -31.3668   26.1471 C   0  0  0  0  0  0
  -27.0279  -30.3054   24.6050 C   0  0  0  0  0  0
  -27.6046  -32.4268   25.7453 C   0  0  0  0  0  0
  -27.5597  -37.1814   24.8456 C   0  0  0  0  0  0
  -21.4119  -29.3009   22.3774 N   0  0  0  0  0  0
  -26.4319  -37.3805   23.9408 N   0  0  0  0  0  0
  -24.6557  -31.0853   22.0998 N   0  0  0  0  0  0
  -23.4172  -28.8158   23.3026 O   0  0  0  0  0  0
  -28.3781  -26.7312   20.1028 O   0  0  0  0  0  0
  -26.5579  -34.8920   22.4715 O   0  0  0  0  0  0
  -23.5275  -32.1443   23.7551 O   0  0  0  0  0  0
  -31.9957  -23.3552   22.4950 C   0  0  0  0  0  0
  -31.1095  -22.7852   21.5675 C   0  0  0  0  0  0
  -31.2623  -21.4763   21.1296 C   0  0  0  0  0  0
  -33.0302  -22.5559   23.0207 C   0  0  0  0  0  0
  -32.2994  -20.6494   21.6228 C   0  0  0  0  0  0
  -33.1892  -21.2047   22.5974 C   0  0  0  0  0  0
  -30.2104  -21.1379   20.0988 C   0  0  0  0  0  0
  -29.2747  -22.3713   20.0713 C   0  0  0  0  0  0
  -30.4892  -17.6781   21.4827 C   0  0  0  0  0  0
  -32.3124  -16.8621   21.9394 C   0  0  0  0  0  0
  -29.9116  -23.4663   20.9640 C   0  0  1  0  0  0
  -30.8756  -16.4122   22.2432 C   0  0  2  0  0  0
  -33.9613  -23.1812   24.0512 C   0  0  0  0  0  0
  -34.3289  -20.3940   23.2116 C   0  0  0  0  0  0
  -26.0314  -26.2257   22.8985 C   0  0  0  0  0  0
  -26.3140  -23.7701   23.2678 C   0  0  0  0  0  0
  -32.4470  -19.2176   21.0944 C   0  0  0  0  0  0
  -28.7628  -26.3098   21.4143 C   0  0  0  0  0  0
  -27.0704  -25.0905   23.0059 C   0  0  0  0  0  0
  -28.0402  -24.9766   21.7835 C   0  0  2  0  0  0
  -30.3687  -15.1286   21.7171 N   0  0  0  0  0  0
  -31.7702  -18.2273   21.9664 N   0  3  1  0  0  0
  -29.0280  -23.9056   22.0674 N   0  3  0  0  0  0
  -31.4565  -12.3993   19.0926 H   0  0  0  0  0  0
  -30.3172  -11.2751   19.7710 H   0  0  0  0  0  0
  -29.7141  -11.8236   17.4014 H   0  0  0  0  0  0
  -29.6492  -13.5255   17.7870 H   0  0  0  0  0  0
  -27.8133  -11.3249   18.7931 H   0  0  0  0  0  0
  -27.3552  -12.6765   17.7921 H   0  0  0  0  0  0
  -27.7180  -14.2595   19.6059 H   0  0  0  0  0  0
  -28.6622  -11.9268   21.3403 H   0  0  0  0  0  0
  -28.4443  -13.5615   21.8774 H   0  0  0  0  0  0
  -25.2763   -9.5697   22.4750 H   0  0  0  0  0  0
  -24.0010   -7.4646   22.7476 H   0  0  0  0  0  0
  -21.0849   -8.8766   19.8947 H   0  0  0  0  0  0
  -22.3695  -10.9669   19.6157 H   0  0  0  0  0  0
  -21.2018   -7.6151   23.9722 H   0  0  0  0  0  0
  -21.1486   -6.0523   25.9076 H   0  0  0  0  0  0
  -22.0592   -2.7616   23.2850 H   0  0  0  0  0  0
  -22.4120  -11.9861   22.4748 H   0  0  0  0  0  0
  -21.1119  -13.1228   22.2610 H   0  0  0  0  0  0
  -24.6634  -15.8437   20.5224 H   0  0  0  0  0  0
  -26.2870  -15.6316   20.1070 H   0  0  0  0  0  0
  -26.7073  -32.5605   23.1178 H   0  0  0  0  0  0
  -25.0032  -33.9801   25.0510 H   0  0  0  0  0  0
  -22.6811  -31.3061   21.4194 H   0  0  0  0  0  0
  -23.3757  -35.9693   23.3296 H   0  0  0  0  0  0
  -24.3591  -36.8983   22.2052 H   0  0  0  0  0  0
  -23.7263  -37.6559   23.6647 H   0  0  0  0  0  0
  -26.0134  -31.6245   20.5839 H   0  0  0  0  0  0
  -26.8038  -30.9154   21.9658 H   0  0  0  0  0  0
  -28.0847  -29.1693   21.1479 H   0  0  0  0  0  0
  -26.1031  -25.9969   18.9993 H   0  0  0  0  0  0
  -23.9882  -27.2931   19.0326 H   0  0  0  0  0  0
  -23.6857  -30.5956   19.4015 H   0  0  0  0  0  0
  -22.7253  -29.2293   19.8831 H   0  0  0  0  0  0
  -25.1276  -36.2011   25.0837 H   0  0  0  0  0  0
  -20.9952  -28.3183   24.1502 H   0  0  0  0  0  0
  -20.5597  -26.2225   23.3641 H   0  0  0  0  0  0
  -21.6602  -26.7398   22.1314 H   0  0  0  0  0  0
  -19.6947  -25.6348   21.1195 H   0  0  0  0  0  0
  -19.6756  -27.3274   20.6803 H   0  0  0  0  0  0
  -17.4215  -26.6776   21.3927 H   0  0  0  0  0  0
  -18.0219  -26.0080   22.8938 H   0  0  0  0  0  0
  -19.7932  -30.7244   24.2304 H   0  0  0  0  0  0
  -17.5017  -31.6274   24.5168 H   0  0  0  0  0  0
  -15.5347  -30.3012   23.7657 H   0  0  0  0  0  0
  -15.8659  -28.0880   22.7014 H   0  0  0  0  0  0
  -24.5904  -30.7012   25.7795 H   0  0  0  0  0  0
  -24.8877  -32.2815   26.4919 H   0  0  0  0  0  0
  -25.8055  -30.8825   27.0232 H   0  0  0  0  0  0
  -26.2828  -29.6799   24.1153 H   0  0  0  0  0  0
  -27.4141  -29.7295   25.4465 H   0  0  0  0  0  0
  -27.8592  -30.4414   23.9135 H   0  0  0  0  0  0
  -27.2729  -33.3579   26.2051 H   0  0  0  0  0  0
  -28.3827  -32.6814   25.0248 H   0  0  0  0  0  0
  -28.0737  -31.8372   26.5338 H   0  0  0  0  0  0
  -28.2582  -38.0136   24.7521 H   0  0  0  0  0  0
  -28.1119  -36.2669   24.6248 H   0  0  0  0  0  0
  -27.2302  -37.1436   25.8851 H   0  0  0  0  0  0
  -20.9266  -29.8762   21.7042 H   0  0  0  0  0  0
  -26.0221  -38.2898   24.1377 H   0  0  0  0  0  0
  -31.8749  -24.3847   22.8082 H   0  0  0  0  0  0
  -29.6611  -20.2342   20.3606 H   0  0  0  0  0  0
  -30.6855  -20.9829   19.1285 H   0  0  0  0  0  0
  -28.2858  -22.0853   20.4336 H   0  0  0  0  0  0
  -29.1381  -22.7391   19.0540 H   0  0  0  0  0  0
  -29.6134  -18.1994   21.8703 H   0  0  0  0  0  0
  -30.4407  -17.5510   20.3989 H   0  0  0  0  0  0
  -32.7179  -16.6250   20.9568 H   0  0  0  0  0  0
  -33.0338  -16.6584   22.7300 H   0  0  0  0  0  0
  -30.2703  -24.2900   20.3463 H   0  0  0  0  0  0
  -30.6497  -16.5159   23.3083 H   0  0  0  0  0  0
  -33.6720  -24.2050   24.2895 H   0  0  0  0  0  0
  -34.9854  -23.2100   23.6812 H   0  0  0  0  0  0
  -33.9471  -22.6200   24.9863 H   0  0  0  0  0  0
  -35.2866  -20.8437   22.9509 H   0  0  0  0  0  0
  -34.3677  -19.3515   22.9102 H   0  0  0  0  0  0
  -34.2462  -20.3941   24.2977 H   0  0  0  0  0  0
  -25.3465  -26.2173   23.7462 H   0  0  0  0  0  0
  -25.4207  -26.1350   21.9999 H   0  0  0  0  0  0
  -26.4896  -27.2144   22.8999 H   0  0  0  0  0  0
  -25.6914  -23.8573   24.1591 H   0  0  0  0  0  0
  -26.9821  -22.9289   23.4421 H   0  0  0  0  0  0
  -25.6545  -23.5054   22.4394 H   0  0  0  0  0  0
  -33.5033  -18.9705   20.9985 H   0  0  0  0  0  0
  -32.0689  -19.1484   20.0755 H   0  0  0  0  0  0
  -29.8462  -26.2000   21.4006 H   0  0  0  0  0  0
  -28.6018  -27.0768   22.1736 H   0  0  0  0  0  0
  -27.6738  -25.3052   23.8909 H   0  0  0  0  0  0
  -27.4531  -24.6513   20.9222 H   0  0  0  0  0  0
  -29.5849  -14.7367   22.2215 H   0  0  0  0  0  0
  -31.7004  -18.5584   22.9157 H   0  0  0  0  0  0
  -29.6339  -24.2174   22.8098 H   0  0  0  0  0  0
  -28.5434  -23.0960   22.4196 H   0  0  0  0  0  0
  1 25  1  0  0  0
  1 30  2  0  0  0
  1 91  1  0  0  0
  2  3  1  0  0  0
  2 25  1  0  0  0
  2 94  1  0  0  0
  2 95  1  0  0  0
  3  4  1  0  0  0
  3 96  1  0  0  0
  3 97  1  0  0  0
  4  5  1  0  0  0
  4 98  1  0  0  0
  4 99  1  0  0  0
  5  6  1  0  0  0
  5 26  1  0  0  0
  5100  1  0  0  0
  6 25  1  0  0  0
  6101  1  0  0  0
  6102  1  0  0  0
  7  8  2  0  0  0
  7 26  1  0  0  0
  7 29  1  0  0  0
  8  9  1  0  0  0
  8 22  1  0  0  0
  9 10  1  0  0  0
  9 27  2  0  0  0
 10 11  2  0  0  0
 10 15  1  0  0  0
 11 12  1  0  0  0
 11103  1  0  0  0
 12 13  2  0  0  0
 12104  1  0  0  0
 13 14  1  0  0  0
 13 31  1  0  0  0
 14 15  2  0  0  0
 14105  1  0  0  0
 15106  1  0  0  0
 16 17  2  0  0  0
 16 21  1  0  0  0
 16 31  1  0  0  0
 17 18  1  0  0  0
 17107  1  0  0  0
 18 19  2  0  0  0
 18108  1  0  0  0
 19 20  1  0  0  0
 19 24  1  0  0  0
 20 21  2  0  0  0
 20109  1  0  0  0
 21 23  1  0  0  0
 22 28  1  0  0  0
 22 32  2  0  0  0
 26 27  1  0  0  0
 28110  1  0  0  0
 28111  1  0  0  0
 29112  1  0  0  0
 29113  1  0  0  0
 33 34  1  0  0  0
 33 66  1  0  0  0
 33 70  2  0  0  0
 34 36  1  0  0  0
 34 59  1  0  0  0
 34114  1  0  0  0
 35 44  2  0  0  0
 35 45  1  0  0  0
 35 68  1  0  0  0
 36 56  1  0  0  0
 36115  1  0  0  0
 37 39  1  0  0  0
 37 47  1  0  0  0
 37 66  1  0  0  0
 37116  1  0  0  0
 38 43  2  0  0  0
 38 46  1  0  0  0
 38 47  1  0  0  0
 39 64  1  0  0  0
 39 67  2  0  0  0
 40 52  1  0  0  0
 40 53  2  0  0  0
 40 58  1  0  0  0
 41117  1  0  0  0
 41118  1  0  0  0
 41119  1  0  0  0
 41 48  1  0  0  0
 42 43  1  0  0  0
 42 66  1  0  0  0
 42120  1  0  0  0
 42121  1  0  0  0
 43 44  1  0  0  0
 44122  1  0  0  0
 45 46  2  0  0  0
 45123  1  0  0  0
 46124  1  0  0  0
 47125  1  0  0  0
 47126  1  0  0  0
 48 56  1  0  0  0
 48 65  1  0  0  0
 48127  1  0  0  0
 49 50  1  0  0  0
 49 53  1  0  0  0
 49 64  1  0  0  0
 49128  1  0  0  0
 50 51  1  0  0  0
 50129  1  0  0  0
 50130  1  0  0  0
 51 52  1  0  0  0
 51131  1  0  0  0
 51132  1  0  0  0
 52133  1  0  0  0
 52134  1  0  0  0
 53 54  1  0  0  0
 54 55  2  0  0  0
 54135  1  0  0  0
 55 57  1  0  0  0
 55136  1  0  0  0
 56 69  2  0  0  0
 57 58  2  0  0  0
 57137  1  0  0  0
 58138  1  0  0  0
 59 60  1  0  0  0
 59 61  1  0  0  0
 59 62  1  0  0  0
 60139  1  0  0  0
 60140  1  0  0  0
 60141  1  0  0  0
 61142  1  0  0  0
 61143  1  0  0  0
 61144  1  0  0  0
 62145  1  0  0  0
 62146  1  0  0  0
 62147  1  0  0  0
 63 65  1  0  0  0
 63148  1  0  0  0
 63149  1  0  0  0
 63150  1  0  0  0
 64151  1  0  0  0
 65152  1  0  0  0
 68 88  1  0  0  0
 71 72  2  0  0  0
 71 74  1  0  0  0
 71153  1  0  0  0
 72 73  1  0  0  0
 72 81  1  0  0  0
 73 75  2  0  0  0
 73 77  1  0  0  0
 74 76  2  0  0  0
 74 83  1  0  0  0
 75 76  1  0  0  0
 75 87  1  0  0  0
 76 84  1  0  0  0
 77 78  1  0  0  0
 77154  1  0  0  0
 77155  1  0  0  0
 78 81  1  0  0  0
 78156  1  0  0  0
 78157  1  0  0  0
 79 82  1  0  0  0
 79 92  1  0  0  0
 79158  1  0  0  0
 79159  1  0  0  0
 80 82  1  0  0  0
 80 92  1  0  0  0
 80160  1  0  0  0
 80161  1  0  0  0
 81 93  1  0  0  0
 81162  1  0  0  0
 82 91  1  0  0  0
 82163  1  0  0  0
 83164  1  0  0  0
 83165  1  0  0  0
 83166  1  0  0  0
 84167  1  0  0  0
 84168  1  0  0  0
 84169  1  0  0  0
 85170  1  0  0  0
 85171  1  0  0  0
 85172  1  0  0  0
 85 89  1  0  0  0
 86 89  1  0  0  0
 86173  1  0  0  0
 86174  1  0  0  0
 86175  1  0  0  0
 87176  1  0  0  0
 87177  1  0  0  0
 87 92  1  0  0  0
 88178  1  0  0  0
 88179  1  0  0  0
 88 90  1  0  0  0
 89 90  1  0  0  0
 89180  1  0  0  0
 90 93  1  0  0  0
 90181  1  0  0  0
 91182  1  0  0  0
 92183  1  0  0  0
 93184  1  0  0  0
 93185  1  0  0  0
M  CHG  2  92   1  93   1
M  ISO  4   1 100  68 101  88 101  91 100
M  END
> <chiral flag>
0

> <version>
0

> <s_m_source_file>
/data/baiqing/PycharmProjects/Reinvent-master-3.2/result/LINK_invent/BTK/process_docking_weight1_custom_sum_contain_oxygen_bond_distance_aromatic_linkinvent_7_9_3/rearranged_h_0166.sdf

> <i_m_source_file_index>
33

> <r_mmod_Potential_Energy-OPLS-2005>
-259.925323486328

> <r_mmod_Stretch_Energy-OPLS-2005>
41.5884780883789

> <r_mmod_Bend_Energy-OPLS-2005>
174.385757446289

> <r_mmod_Torsional_Energy-OPLS-2005>
284.094665527344

> <r_mmod_Improper_Torsional_Energy-OPLS-2005>
1.84542977809906

> <r_mmod_Van_der_Waal_Energy-OPLS-2005>
149.465927124023

> <r_mmod_Electrostatic_Energy-OPLS-2005>
-74.9602966308594

> <r_mmod_Solvation_Energy-OPLS-2005>
-843.786743164062

> <b_mmod_Minimization_Converged-OPLS-2005>
0

> <r_mmod_RMS_Derivative-OPLS-2005>
3.47270703315735

$$$$
33
                    3D
 Structure written by MMmdl.
164173  0  0  1  0            999 V2000
  -30.6892  -14.6265   20.5014 C   0  0  0  0  0  0
  -30.4139  -12.3865   19.4627 C   0  0  0  0  0  0
  -29.5030  -12.4995   18.2232 C   0  0  0  0  0  0
  -28.0250  -12.3458   18.6326 C   0  0  0  0  0  0
  -27.6441  -13.2296   19.8515 C   0  0  2  0  0  0
  -28.6868  -13.1307   20.9847 C   0  0  0  0  0  0
  -25.2530  -13.8199   20.5683 C   0  0  0  0  0  0
  -24.1816  -13.0446   20.9195 C   0  0  0  0  0  0
  -24.6400  -11.6922   20.8729 C   0  0  0  0  0  0
  -23.9068  -10.4297   21.0394 C   0  0  0  0  0  0
  -24.3621   -9.4222   21.9184 C   0  0  0  0  0  0
  -23.6306   -8.2243   22.0748 C   0  0  0  0  0  0
  -22.4286   -8.0271   21.3537 C   0  0  0  0  0  0
  -21.9921   -9.0242   20.4634 C   0  0  0  0  0  0
  -22.7241  -10.2130   20.3042 C   0  0  0  0  0  0
  -21.6852   -6.0734   22.5289 C   0  0  0  0  0  0
  -21.4007   -6.5637   23.8226 C   0  0  0  0  0  0
  -21.3675   -5.6786   24.9188 C   0  0  0  0  0  0
  -21.6048   -4.3046   24.7227 C   0  0  0  0  0  0
  -21.8817   -3.8144   23.4346 C   0  0  0  0  0  0
  -21.9194   -4.6963   22.3408 C   0  0  0  0  0  0
  -22.7844  -13.5240   21.1868 C   0  0  0  0  0  0
  -22.1665   -4.2150   21.0979 F   0  0  0  0  0  0
  -21.5643   -3.4527   25.7740 F   0  0  0  0  0  0
  -29.9965  -13.4469   20.4045 N   0  0  0  0  0  0
  -26.2953  -12.9406   20.3286 N   0  0  0  0  0  0
  -25.9334  -11.6544   20.5742 N   0  0  0  0  0  0
  -22.0478  -12.8230   22.0413 N   0  0  0  0  0  0
  -25.4234  -15.1923   20.4106 N   0  0  0  0  0  0
  -31.8804  -14.6636   20.1740 O   0  0  0  0  0  0
  -21.6645   -6.8874   21.4244 O   0  0  0  0  0  0
  -22.3536  -14.5557   20.6730 O   0  0  0  0  0  0
  -24.6223  -31.8626   23.2025 C   0  0  0  0  0  0
  -25.9084  -32.4795   23.8349 C   0  0  1  0  0  0
  -27.2243  -27.3505   20.1183 C   0  0  0  0  0  0
  -25.5910  -33.8593   24.2274 N   0  0  0  0  0  0
  -23.4151  -30.4856   21.5444 C   0  0  2  0  0  0
  -24.8653  -28.9411   20.1117 C   0  0  0  0  0  0
  -22.7452  -29.4642   22.4935 C   0  0  0  0  0  0
  -18.0286  -28.1386   22.8489 C   0  0  0  0  0  0
  -24.1477  -36.7298   23.2640 C   0  0  0  0  0  0
  -25.9529  -30.8031   21.3687 C   0  0  0  0  0  0
  -26.0314  -29.4289   20.7188 C   0  0  0  0  0  0
  -27.2177  -28.6414   20.7206 C   0  0  0  0  0  0
  -26.0463  -26.9032   19.4905 C   0  0  0  0  0  0
  -24.8720  -27.6809   19.4899 C   0  0  0  0  0  0
  -23.6306  -29.8180   20.1597 C   0  0  0  0  0  0
  -25.4108  -36.3095   24.0331 C   0  0  1  0  0  0
  -20.5883  -28.3686   23.1289 C   0  0  2  0  0  0
  -20.6773  -26.9411   22.5416 C   0  0  0  0  0  0
  -19.5753  -26.6385   21.5216 C   0  0  0  0  0  0
  -18.1931  -26.7931   22.1621 C   0  0  0  0  0  0
  -19.1535  -28.8850   23.2892 C   0  0  0  0  0  0
  -18.9467  -30.1448   23.8917 C   0  0  0  0  0  0
  -17.6465  -30.6586   24.0572 C   0  0  0  0  0  0
  -25.9051  -34.9469   23.5104 C   0  0  0  0  0  0
  -16.5355  -29.9098   23.6323 C   0  0  0  0  0  0
  -16.7268  -28.6515   23.0345 C   0  0  0  0  0  0
  -26.4472  -31.6586   25.0700 C   0  0  0  0  0  0
  -25.3701  -31.3732   26.1425 C   0  0  0  0  0  0
  -27.0288  -30.3001   24.6134 C   0  0  0  0  0  0
  -27.6021  -32.4322   25.7492 C   0  0  0  0  0  0
  -27.5581  -37.1797   24.8461 C   0  0  0  0  0  0
  -21.4172  -29.3033   22.3672 N   0  0  0  0  0  0
  -26.4276  -37.3801   23.9427 N   0  0  0  0  0  0
  -24.6826  -31.0662   22.0968 N   0  0  0  0  0  0
  -23.4184  -28.8198   23.3022 O   0  0  0  0  0  0
  -28.3099  -26.4766   20.1222 O   0  0  0  0  0  0
  -26.5632  -34.8936   22.4677 O   0  0  0  0  0  0
  -23.5397  -32.1405   23.7378 O   0  0  0  0  0  0
  -28.7963  -23.3402   19.9885 C   0  0  0  0  0  0
  -29.0762  -21.9365   19.9651 C   0  0  0  0  0  0
  -28.6929  -24.0679   21.2045 C   0  0  0  0  0  0
  -28.8536  -23.3053   22.4061 C   0  0  0  0  0  0
  -29.1310  -21.8973   22.3758 C   0  0  0  0  0  0
  -29.2645  -21.1840   21.1553 C   0  0  0  0  0  0
  -29.4127  -18.0655   19.4026 C   0  0  0  0  0  0
  -28.5872  -17.6240   21.7153 C   0  0  0  0  0  0
  -30.4361  -16.9086   19.6364 C   0  0  0  0  0  0
  -29.6476  -16.4714   21.8310 C   0  0  0  0  0  0
  -28.8659  -18.7571   20.6753 C   0  0  0  0  0  0
  -28.7186  -23.9863   23.7718 C   0  0  0  0  0  0
  -29.3017  -21.1256   23.6815 C   0  0  0  0  0  0
  -28.3864  -25.6149   21.2965 C   0  0  0  0  0  0
  -29.9815  -15.8174   20.5443 N   0  0  0  0  0  0
  -29.7003  -19.8432   21.1743 O   0  0  0  0  0  0
  -31.4620  -12.4680   19.1704 H   0  0  0  0  0  0
  -30.3108  -11.4042   19.9270 H   0  0  0  0  0  0
  -29.7714  -11.7391   17.4885 H   0  0  0  0  0  0
  -29.6549  -13.4638   17.7353 H   0  0  0  0  0  0
  -27.8610  -11.2950   18.8742 H   0  0  0  0  0  0
  -27.3733  -12.5650   17.7865 H   0  0  0  0  0  0
  -27.6496  -14.2596   19.4949 H   0  0  0  0  0  0
  -28.6976  -12.1292   21.4177 H   0  0  0  0  0  0
  -28.4313  -13.8083   21.7969 H   0  0  0  0  0  0
  -25.2752   -9.5719   22.4773 H   0  0  0  0  0  0
  -24.0023   -7.4631   22.7469 H   0  0  0  0  0  0
  -21.0850   -8.8747   19.8934 H   0  0  0  0  0  0
  -22.3690  -10.9661   19.6147 H   0  0  0  0  0  0
  -21.1981   -7.6143   23.9741 H   0  0  0  0  0  0
  -21.1512   -6.0506   25.9102 H   0  0  0  0  0  0
  -22.0585   -2.7599   23.2840 H   0  0  0  0  0  0
  -22.4062  -11.9880   22.4788 H   0  0  0  0  0  0
  -21.1096  -13.1269   22.2596 H   0  0  0  0  0  0
  -24.6513  -15.8441   20.5042 H   0  0  0  0  0  0
  -26.2843  -15.6320   20.1138 H   0  0  0  0  0  0
  -26.7161  -32.5483   23.1109 H   0  0  0  0  0  0
  -25.0037  -33.9743   25.0405 H   0  0  0  0  0  0
  -22.7078  -31.3056   21.4007 H   0  0  0  0  0  0
  -23.3756  -35.9611   23.3280 H   0  0  0  0  0  0
  -24.3578  -36.8944   22.2060 H   0  0  0  0  0  0
  -23.7197  -37.6480   23.6680 H   0  0  0  0  0  0
  -26.0726  -31.5634   20.5954 H   0  0  0  0  0  0
  -26.8374  -30.8596   21.9912 H   0  0  0  0  0  0
  -28.1141  -29.0092   21.2013 H   0  0  0  0  0  0
  -26.0323  -25.9309   19.0189 H   0  0  0  0  0  0
  -23.9789  -27.3010   19.0128 H   0  0  0  0  0  0
  -23.7481  -30.5933   19.4018 H   0  0  0  0  0  0
  -22.7509  -29.2464   19.8581 H   0  0  0  0  0  0
  -25.1284  -36.1937   25.0823 H   0  0  0  0  0  0
  -20.9987  -28.3266   24.1403 H   0  0  0  0  0  0
  -20.5664  -26.2306   23.3620 H   0  0  0  0  0  0
  -21.6644  -26.7449   22.1205 H   0  0  0  0  0  0
  -19.6915  -25.6295   21.1245 H   0  0  0  0  0  0
  -19.6690  -27.3195   20.6744 H   0  0  0  0  0  0
  -17.4204  -26.6686   21.4020 H   0  0  0  0  0  0
  -18.0325  -26.0062   22.9004 H   0  0  0  0  0  0
  -19.7946  -30.7255   24.2292 H   0  0  0  0  0  0
  -17.5029  -31.6260   24.5188 H   0  0  0  0  0  0
  -15.5357  -30.3013   23.7642 H   0  0  0  0  0  0
  -15.8665  -28.0844   22.7051 H   0  0  0  0  0  0
  -24.5871  -30.7090   25.7749 H   0  0  0  0  0  0
  -24.8900  -32.2906   26.4846 H   0  0  0  0  0  0
  -25.8011  -30.8907   27.0200 H   0  0  0  0  0  0
  -26.2834  -29.6778   24.1166 H   0  0  0  0  0  0
  -27.3979  -29.7241   25.4626 H   0  0  0  0  0  0
  -27.8713  -30.4271   23.9333 H   0  0  0  0  0  0
  -27.2599  -33.3605   26.2085 H   0  0  0  0  0  0
  -28.3835  -32.6913   25.0334 H   0  0  0  0  0  0
  -28.0677  -31.8436   26.5406 H   0  0  0  0  0  0
  -28.2573  -38.0121   24.7561 H   0  0  0  0  0  0
  -28.1097  -36.2657   24.6208 H   0  0  0  0  0  0
  -27.2314  -37.1347   25.8866 H   0  0  0  0  0  0
  -20.9346  -29.8735   21.6869 H   0  0  0  0  0  0
  -26.0152  -38.2865   24.1474 H   0  0  0  0  0  0
  -28.6713  -23.8653   19.0523 H   0  0  0  0  0  0
  -29.1842  -21.4411   19.0109 H   0  0  0  0  0  0
  -28.5646  -17.6446   18.8607 H   0  0  0  0  0  0
  -29.8416  -18.8157   18.7373 H   0  0  0  0  0  0
  -28.4051  -18.0589   22.6975 H   0  0  0  0  0  0
  -27.6421  -17.1553   21.4382 H   0  0  0  0  0  0
  -31.3713  -17.3250   20.0184 H   0  0  0  0  0  0
  -30.6810  -16.4823   18.6605 H   0  0  0  0  0  0
  -29.2898  -15.7290   22.5445 H   0  0  0  0  0  0
  -30.5640  -16.8732   22.2670 H   0  0  0  0  0  0
  -27.9046  -19.2082   20.4221 H   0  0  0  0  0  0
  -28.7871  -25.0715   23.7549 H   0  0  0  0  0  0
  -29.5037  -23.6605   24.4537 H   0  0  0  0  0  0
  -27.7565  -23.7318   24.2172 H   0  0  0  0  0  0
  -28.5868  -21.4470   24.4388 H   0  0  0  0  0  0
  -30.3081  -21.2632   24.0757 H   0  0  0  0  0  0
  -29.1398  -20.0576   23.5518 H   0  0  0  0  0  0
  -29.1824  -26.0635   21.8903 H   0  0  0  0  0  0
  -27.4732  -25.7170   21.8866 H   0  0  0  0  0  0
  1 25  1  0  0  0
  1 30  2  0  0  0
  1 85  1  0  0  0
  2  3  1  0  0  0
  2 25  1  0  0  0
  2 87  1  0  0  0
  2 88  1  0  0  0
  3  4  1  0  0  0
  3 89  1  0  0  0
  3 90  1  0  0  0
  4  5  1  0  0  0
  4 91  1  0  0  0
  4 92  1  0  0  0
  5  6  1  0  0  0
  5 26  1  0  0  0
  5 93  1  0  0  0
  6 25  1  0  0  0
  6 94  1  0  0  0
  6 95  1  0  0  0
  7  8  2  0  0  0
  7 26  1  0  0  0
  7 29  1  0  0  0
  8  9  1  0  0  0
  8 22  1  0  0  0
  9 10  1  0  0  0
  9 27  2  0  0  0
 10 11  2  0  0  0
 10 15  1  0  0  0
 11 12  1  0  0  0
 11 96  1  0  0  0
 12 13  2  0  0  0
 12 97  1  0  0  0
 13 14  1  0  0  0
 13 31  1  0  0  0
 14 15  2  0  0  0
 14 98  1  0  0  0
 15 99  1  0  0  0
 16 17  2  0  0  0
 16 21  1  0  0  0
 16 31  1  0  0  0
 17 18  1  0  0  0
 17100  1  0  0  0
 18 19  2  0  0  0
 18101  1  0  0  0
 19 20  1  0  0  0
 19 24  1  0  0  0
 20 21  2  0  0  0
 20102  1  0  0  0
 21 23  1  0  0  0
 22 28  1  0  0  0
 22 32  2  0  0  0
 26 27  1  0  0  0
 28103  1  0  0  0
 28104  1  0  0  0
 29105  1  0  0  0
 29106  1  0  0  0
 33 34  1  0  0  0
 33 66  1  0  0  0
 33 70  2  0  0  0
 34 36  1  0  0  0
 34 59  1  0  0  0
 34107  1  0  0  0
 35 44  2  0  0  0
 35 45  1  0  0  0
 35 68  1  0  0  0
 36 56  1  0  0  0
 36108  1  0  0  0
 37 39  1  0  0  0
 37 47  1  0  0  0
 37 66  1  0  0  0
 37109  1  0  0  0
 38 43  2  0  0  0
 38 46  1  0  0  0
 38 47  1  0  0  0
 39 64  1  0  0  0
 39 67  2  0  0  0
 40 52  1  0  0  0
 40 53  2  0  0  0
 40 58  1  0  0  0
 41110  1  0  0  0
 41111  1  0  0  0
 41112  1  0  0  0
 41 48  1  0  0  0
 42 43  1  0  0  0
 42 66  1  0  0  0
 42113  1  0  0  0
 42114  1  0  0  0
 43 44  1  0  0  0
 44115  1  0  0  0
 45 46  2  0  0  0
 45116  1  0  0  0
 46117  1  0  0  0
 47118  1  0  0  0
 47119  1  0  0  0
 48 56  1  0  0  0
 48 65  1  0  0  0
 48120  1  0  0  0
 49 50  1  0  0  0
 49 53  1  0  0  0
 49 64  1  0  0  0
 49121  1  0  0  0
 50 51  1  0  0  0
 50122  1  0  0  0
 50123  1  0  0  0
 51 52  1  0  0  0
 51124  1  0  0  0
 51125  1  0  0  0
 52126  1  0  0  0
 52127  1  0  0  0
 53 54  1  0  0  0
 54 55  2  0  0  0
 54128  1  0  0  0
 55 57  1  0  0  0
 55129  1  0  0  0
 56 69  2  0  0  0
 57 58  2  0  0  0
 57130  1  0  0  0
 58131  1  0  0  0
 59 60  1  0  0  0
 59 61  1  0  0  0
 59 62  1  0  0  0
 60132  1  0  0  0
 60133  1  0  0  0
 60134  1  0  0  0
 61135  1  0  0  0
 61136  1  0  0  0
 61137  1  0  0  0
 62138  1  0  0  0
 62139  1  0  0  0
 62140  1  0  0  0
 63 65  1  0  0  0
 63141  1  0  0  0
 63142  1  0  0  0
 63143  1  0  0  0
 64144  1  0  0  0
 65145  1  0  0  0
 68 84  1  0  0  0
 71 72  2  0  0  0
 71 73  1  0  0  0
 71146  1  0  0  0
 72 76  1  0  0  0
 72147  1  0  0  0
 73 74  2  0  0  0
 73 84  1  0  0  0
 74 75  1  0  0  0
 74 82  1  0  0  0
 75 76  2  0  0  0
 75 83  1  0  0  0
 76 86  1  0  0  0
 77 79  1  0  0  0
 77 81  1  0  0  0
 77148  1  0  0  0
 77149  1  0  0  0
 78 80  1  0  0  0
 78 81  1  0  0  0
 78150  1  0  0  0
 78151  1  0  0  0
 79 85  1  0  0  0
 79152  1  0  0  0
 79153  1  0  0  0
 80 85  1  0  0  0
 80154  1  0  0  0
 80155  1  0  0  0
 81 86  1  0  0  0
 81156  1  0  0  0
 82157  1  0  0  0
 82158  1  0  0  0
 82159  1  0  0  0
 83160  1  0  0  0
 83161  1  0  0  0
 83162  1  0  0  0
 84163  1  0  0  0
 84164  1  0  0  0
M  ISO  4   1 100  68 101  84 101  85 100
M  END
> <chiral flag>
0

> <version>
0

> <s_m_source_file>
/data/baiqing/PycharmProjects/Reinvent-master-3.2/result/LINK_invent/BTK/process_docking_weight1_custom_sum_contain_oxygen_bond_distance_aromatic_linkinvent_7_9_3/rearranged_h_0166.sdf

> <i_m_source_file_index>
34

> <r_mmod_Potential_Energy-OPLS-2005>
329.400451660156

> <r_mmod_Stretch_Energy-OPLS-2005>
75.5323028564453

> <r_mmod_Bend_Energy-OPLS-2005>
154.781173706055

> <r_mmod_Torsional_Energy-OPLS-2005>
380.873504638672

> <r_mmod_Improper_Torsional_Energy-OPLS-2005>
17.0490589141846

> <r_mmod_Van_der_Waal_Energy-OPLS-2005>
148.813613891602

> <r_mmod_Electrostatic_Energy-OPLS-2005>
-300.040008544922

> <r_mmod_Solvation_Energy-OPLS-2005>
-194.126968383789

> <b_mmod_Minimization_Converged-OPLS-2005>
0

> <r_mmod_RMS_Derivative-OPLS-2005>
1.88900649547577

$$$$
34
                    3D
 Structure written by MMmdl.
176186  0  0  1  0            999 V2000
  -30.8500  -14.2835   20.5871 C   0  0  0  0  0  0
  -30.3894  -12.2195   19.3478 C   0  0  0  0  0  0
  -29.4593  -12.4962   18.1533 C   0  0  0  0  0  0
  -27.9919  -12.3903   18.5906 C   0  0  0  0  0  0
  -27.6747  -13.1984   19.8769 C   0  0  2  0  0  0
  -28.7368  -12.9138   20.9734 C   0  0  0  0  0  0
  -25.2606  -13.8153   20.5645 C   0  0  0  0  0  0
  -24.1968  -13.0581   20.9143 C   0  0  0  0  0  0
  -24.6470  -11.6909   20.8763 C   0  0  0  0  0  0
  -23.9214  -10.4324   21.0477 C   0  0  0  0  0  0
  -24.3750   -9.4183   21.9259 C   0  0  0  0  0  0
  -23.6377   -8.2259   22.0807 C   0  0  0  0  0  0
  -22.4348   -8.0327   21.3590 C   0  0  0  0  0  0
  -22.0038   -9.0339   20.4716 C   0  0  0  0  0  0
  -22.7391  -10.2179   20.3133 C   0  0  0  0  0  0
  -21.6801   -6.0800   22.5287 C   0  0  0  0  0  0
  -21.3955   -6.5666   23.8229 C   0  0  0  0  0  0
  -21.3668   -5.6801   24.9182 C   0  0  0  0  0  0
  -21.6063   -4.3075   24.7213 C   0  0  0  0  0  0
  -21.8801   -3.8195   23.4317 C   0  0  0  0  0  0
  -21.9176   -4.7035   22.3389 C   0  0  0  0  0  0
  -22.7946  -13.5288   21.1888 C   0  0  0  0  0  0
  -22.1668   -4.2203   21.0987 F   0  0  0  0  0  0
  -21.5632   -3.4567   25.7742 F   0  0  0  0  0  0
  -30.0746  -13.1725   20.4058 N   0  0  0  0  0  0
  -26.3146  -12.9410   20.3460 N   0  0  0  0  0  0
  -25.9398  -11.6551   20.5866 N   0  0  0  0  0  0
  -22.0585  -12.8313   22.0369 N   0  0  0  0  0  0
  -25.4301  -15.1984   20.3791 N   0  0  0  0  0  0
  -31.8872  -14.5181   19.9675 O   0  0  0  0  0  0
  -21.6610   -6.8989   21.4277 O   0  0  0  0  0  0
  -22.3649  -14.5681   20.6745 O   0  0  0  0  0  0
  -24.6281  -31.8963   23.2353 C   0  0  0  0  0  0
  -25.9325  -32.4970   23.8542 C   0  0  1  0  0  0
  -27.0923  -27.4012   20.1045 C   0  0  0  0  0  0
  -25.6024  -33.8737   24.2313 N   0  0  0  0  0  0
  -23.3932  -30.5688   21.5650 C   0  0  2  0  0  0
  -24.7961  -29.0373   20.0883 C   0  0  0  0  0  0
  -22.7379  -29.5219   22.5020 C   0  0  0  0  0  0
  -18.0542  -28.1296   22.9065 C   0  0  0  0  0  0
  -24.1523  -36.7379   23.2610 C   0  0  0  0  0  0
  -25.9123  -30.8157   21.4107 C   0  0  0  0  0  0
  -25.9553  -29.4587   20.7547 C   0  0  0  0  0  0
  -27.1167  -28.6418   20.7837 C   0  0  0  0  0  0
  -25.9879  -27.0802   19.2885 C   0  0  0  0  0  0
  -24.8141  -27.8520   19.3296 C   0  0  0  0  0  0
  -23.5828  -29.9294   20.1641 C   0  0  0  0  0  0
  -25.4084  -36.3153   24.0346 C   0  0  1  0  0  0
  -20.5983  -28.4422   23.1460 C   0  0  2  0  0  0
  -20.7788  -27.0273   22.4931 C   0  0  0  0  0  0
  -19.6116  -26.6388   21.5831 C   0  0  0  0  0  0
  -18.3084  -26.7437   22.3484 C   0  0  0  0  0  0
  -19.1471  -28.9371   23.2906 C   0  0  0  0  0  0
  -18.8920  -30.2071   23.8672 C   0  0  0  0  0  0
  -17.5763  -30.6790   24.0286 C   0  0  0  0  0  0
  -25.9024  -34.9544   23.5046 C   0  0  0  0  0  0
  -16.5102  -29.8932   23.5754 C   0  0  0  0  0  0
  -16.7310  -28.6151   23.0286 C   0  0  0  0  0  0
  -26.4657  -31.6688   25.0803 C   0  0  0  0  0  0
  -25.3835  -31.3862   26.1417 C   0  0  0  0  0  0
  -27.0389  -30.3164   24.6016 C   0  0  0  0  0  0
  -27.6189  -32.4357   25.7468 C   0  0  0  0  0  0
  -27.5580  -37.1871   24.8469 C   0  0  0  0  0  0
  -21.4186  -29.3856   22.4018 N   0  0  0  0  0  0
  -26.4289  -37.3810   23.9478 N   0  0  0  0  0  0
  -24.6638  -31.1066   22.1368 N   0  0  0  0  0  0
  -23.4306  -28.8392   23.2691 O   0  0  0  0  0  0
  -28.0550  -26.4606   20.3274 O   0  0  0  0  0  0
  -26.5498  -34.8899   22.4601 O   0  0  0  0  0  0
  -23.5454  -32.1837   23.7610 O   0  0  0  0  0  0
  -27.8695  -17.1538   22.9424 C   0  0  0  0  0  0
  -27.7368  -17.6052   20.5331 C   0  0  0  0  0  0
  -28.9399  -16.2968   22.6845 C   0  0  0  0  0  0
  -27.2681  -17.8368   21.8620 C   0  0  0  0  0  0
  -28.8495  -16.7612   20.2729 C   0  0  0  0  0  0
  -29.4298  -16.0915   21.4025 C   0  0  0  0  0  0
  -29.7006  -15.5137   23.7309 C   0  0  0  0  0  0
  -24.0621  -22.7750   23.3245 C   0  0  0  0  0  0
  -30.7714  -14.7905   22.9252 C   0  0  0  0  0  0
  -24.3260  -24.1614   22.6398 C   0  0  0  0  0  0
  -26.3883  -22.9578   22.9845 C   0  0  0  0  0  0
  -25.2698  -21.8954   22.9319 C   0  0  1  0  0  0
  -29.3365  -16.6466   18.8163 C   0  0  0  0  0  0
  -26.1413  -18.8239   22.1724 C   0  0  0  0  0  0
  -25.4996  -20.6232   23.8180 C   0  0  0  0  0  0
  -26.6174  -25.3596   22.1351 C   0  0  0  0  0  0
  -27.3691  -25.2497   20.7968 C   0  0  0  0  0  0
  -30.4505  -15.1210   21.5306 N   0  0  0  0  0  0
  -25.7789  -24.1454   22.3534 N   0  3  2  0  0  0
  -26.4734  -19.6199   23.3754 N   0  3  0  0  0  0
  -31.4381  -12.2586   19.0454 H   0  0  0  0  0  0
  -30.2273  -11.2043   19.7170 H   0  0  0  0  0  0
  -29.6644  -11.7558   17.3775 H   0  0  0  0  0  0
  -29.6609  -13.4766   17.7248 H   0  0  0  0  0  0
  -27.7910  -11.3281   18.7620 H   0  0  0  0  0  0
  -27.3372  -12.6902   17.7805 H   0  0  0  0  0  0
  -27.7443  -14.2539   19.6255 H   0  0  0  0  0  0
  -28.6689  -11.8706   21.2938 H   0  0  0  0  0  0
  -28.5228  -13.4750   21.8852 H   0  0  0  0  0  0
  -25.2903   -9.5512   22.4863 H   0  0  0  0  0  0
  -23.9983   -7.4582   22.7479 H   0  0  0  0  0  0
  -21.0994   -8.8979   19.8989 H   0  0  0  0  0  0
  -22.3999  -10.9810   19.6267 H   0  0  0  0  0  0
  -21.1897   -7.6160   23.9758 H   0  0  0  0  0  0
  -21.1532   -6.0529   25.9091 H   0  0  0  0  0  0
  -22.0574   -2.7669   23.2802 H   0  0  0  0  0  0
  -22.4086  -11.9946   22.4849 H   0  0  0  0  0  0
  -21.1239  -13.1411   22.2609 H   0  0  0  0  0  0
  -24.6699  -15.8572   20.4951 H   0  0  0  0  0  0
  -26.3135  -15.6441   20.1877 H   0  0  0  0  0  0
  -26.7411  -32.5677   23.1273 H   0  0  0  0  0  0
  -25.0393  -33.9884   25.0561 H   0  0  0  0  0  0
  -22.6893  -31.3873   21.4282 H   0  0  0  0  0  0
  -23.3716  -35.9808   23.3270 H   0  0  0  0  0  0
  -24.3653  -36.9018   22.2047 H   0  0  0  0  0  0
  -23.7315  -37.6611   23.6568 H   0  0  0  0  0  0
  -26.0008  -31.5766   20.6318 H   0  0  0  0  0  0
  -26.8144  -30.8934   22.0072 H   0  0  0  0  0  0
  -28.0063  -28.8894   21.3303 H   0  0  0  0  0  0
  -26.0110  -26.2806   18.5655 H   0  0  0  0  0  0
  -23.9566  -27.6308   18.7242 H   0  0  0  0  0  0
  -23.7054  -30.7283   19.4297 H   0  0  0  0  0  0
  -22.6704  -29.4046   19.8792 H   0  0  0  0  0  0
  -25.1288  -36.1969   25.0851 H   0  0  0  0  0  0
  -20.9768  -28.4391   24.1659 H   0  0  0  0  0  0
  -20.9101  -26.2859   23.2720 H   0  0  0  0  0  0
  -21.6854  -26.9476   21.9089 H   0  0  0  0  0  0
  -19.7871  -25.6520   21.1461 H   0  0  0  0  0  0
  -19.5073  -27.3319   20.7446 H   0  0  0  0  0  0
  -17.5068  -26.3755   21.7282 H   0  0  0  0  0  0
  -18.2979  -26.0718   23.2004 H   0  0  0  0  0  0
  -19.6802  -30.8616   24.2019 H   0  0  0  0  0  0
  -17.3688  -31.6608   24.4426 H   0  0  0  0  0  0
  -15.5100  -30.2604   23.6767 H   0  0  0  0  0  0
  -15.9120  -27.9999   22.6805 H   0  0  0  0  0  0
  -24.6073  -30.7123   25.7745 H   0  0  0  0  0  0
  -24.8947  -32.3090   26.4606 H   0  0  0  0  0  0
  -25.8273  -30.9255   27.0215 H   0  0  0  0  0  0
  -26.2925  -29.6939   24.1032 H   0  0  0  0  0  0
  -27.4258  -29.7369   25.4374 H   0  0  0  0  0  0
  -27.8727  -30.4548   23.9087 H   0  0  0  0  0  0
  -27.2851  -33.3598   26.2079 H   0  0  0  0  0  0
  -28.3930  -32.7018   25.0297 H   0  0  0  0  0  0
  -28.0822  -31.8457   26.5297 H   0  0  0  0  0  0
  -28.2566  -38.0167   24.7410 H   0  0  0  0  0  0
  -28.1081  -36.2706   24.6366 H   0  0  0  0  0  0
  -27.2333  -37.1588   25.8869 H   0  0  0  0  0  0
  -20.8915  -29.9857   21.7630 H   0  0  0  0  0  0
  -26.0168  -38.2909   24.1515 H   0  0  0  0  0  0
  -27.5579  -17.2673   23.9807 H   0  0  0  0  0  0
  -27.2737  -18.1117   19.7014 H   0  0  0  0  0  0
  -29.0188  -14.7945   24.1942 H   0  0  0  0  0  0
  -30.1323  -16.1871   24.4767 H   0  0  0  0  0  0
  -23.1060  -22.3381   23.0321 H   0  0  0  0  0  0
  -24.1187  -22.8443   24.4186 H   0  0  0  0  0  0
  -30.7312  -13.7243   23.1408 H   0  0  0  0  0  0
  -31.7645  -15.1268   23.2049 H   0  0  0  0  0  0
  -23.9470  -25.0359   23.1767 H   0  0  0  0  0  0
  -23.8218  -24.2072   21.6707 H   0  0  0  0  0  0
  -27.2685  -22.6822   22.4132 H   0  0  0  0  0  0
  -26.7665  -23.0936   24.0121 H   0  0  0  0  0  0
  -25.1049  -21.5664   21.9043 H   0  0  0  0  0  0
  -28.4903  -16.4948   18.1444 H   0  0  0  0  0  0
  -30.0432  -15.8512   18.6131 H   0  0  0  0  0  0
  -29.8009  -17.5727   18.4894 H   0  0  0  0  0  0
  -25.2301  -18.2774   22.4009 H   0  0  0  0  0  0
  -25.9152  -19.4838   21.3380 H   0  0  0  0  0  0
  -24.5767  -20.0746   23.9431 H   0  0  0  0  0  0
  -25.7866  -20.9074   24.8189 H   0  0  0  0  0  0
  -26.0950  -26.3045   22.2763 H   0  0  0  0  0  0
  -27.4705  -25.3232   22.8066 H   0  0  0  0  0  0
  -26.6981  -24.7561   20.0907 H   0  0  0  0  0  0
  -28.0375  -24.4237   21.0772 H   0  0  0  0  0  0
  -25.7451  -23.8580   21.3956 H   0  0  0  0  0  0
  -27.3931  -20.0181   23.3322 H   0  0  0  0  0  0
  -26.4833  -18.9378   24.1125 H   0  0  0  0  0  0
  1 25  1  0  0  0
  1 30  2  0  0  0
  1 88  1  0  0  0
  2  3  1  0  0  0
  2 25  1  0  0  0
  2 91  1  0  0  0
  2 92  1  0  0  0
  3  4  1  0  0  0
  3 93  1  0  0  0
  3 94  1  0  0  0
  4  5  1  0  0  0
  4 95  1  0  0  0
  4 96  1  0  0  0
  5  6  1  0  0  0
  5 26  1  0  0  0
  5 97  1  0  0  0
  6 25  1  0  0  0
  6 98  1  0  0  0
  6 99  1  0  0  0
  7  8  2  0  0  0
  7 26  1  0  0  0
  7 29  1  0  0  0
  8  9  1  0  0  0
  8 22  1  0  0  0
  9 10  1  0  0  0
  9 27  2  0  0  0
 10 11  2  0  0  0
 10 15  1  0  0  0
 11 12  1  0  0  0
 11100  1  0  0  0
 12 13  2  0  0  0
 12101  1  0  0  0
 13 14  1  0  0  0
 13 31  1  0  0  0
 14 15  2  0  0  0
 14102  1  0  0  0
 15103  1  0  0  0
 16 17  2  0  0  0
 16 21  1  0  0  0
 16 31  1  0  0  0
 17 18  1  0  0  0
 17104  1  0  0  0
 18 19  2  0  0  0
 18105  1  0  0  0
 19 20  1  0  0  0
 19 24  1  0  0  0
 20 21  2  0  0  0
 20106  1  0  0  0
 21 23  1  0  0  0
 22 28  1  0  0  0
 22 32  2  0  0  0
 26 27  1  0  0  0
 28107  1  0  0  0
 28108  1  0  0  0
 29109  1  0  0  0
 29110  1  0  0  0
 33 34  1  0  0  0
 33 66  1  0  0  0
 33 70  2  0  0  0
 34 36  1  0  0  0
 34 59  1  0  0  0
 34111  1  0  0  0
 35 44  2  0  0  0
 35 45  1  0  0  0
 35 68  1  0  0  0
 36 56  1  0  0  0
 36112  1  0  0  0
 37 39  1  0  0  0
 37 47  1  0  0  0
 37 66  1  0  0  0
 37113  1  0  0  0
 38 43  2  0  0  0
 38 46  1  0  0  0
 38 47  1  0  0  0
 39 64  1  0  0  0
 39 67  2  0  0  0
 40 52  1  0  0  0
 40 53  2  0  0  0
 40 58  1  0  0  0
 41114  1  0  0  0
 41115  1  0  0  0
 41116  1  0  0  0
 41 48  1  0  0  0
 42 43  1  0  0  0
 42 66  1  0  0  0
 42117  1  0  0  0
 42118  1  0  0  0
 43 44  1  0  0  0
 44119  1  0  0  0
 45 46  2  0  0  0
 45120  1  0  0  0
 46121  1  0  0  0
 47122  1  0  0  0
 47123  1  0  0  0
 48 56  1  0  0  0
 48 65  1  0  0  0
 48124  1  0  0  0
 49 50  1  0  0  0
 49 53  1  0  0  0
 49 64  1  0  0  0
 49125  1  0  0  0
 50 51  1  0  0  0
 50126  1  0  0  0
 50127  1  0  0  0
 51 52  1  0  0  0
 51128  1  0  0  0
 51129  1  0  0  0
 52130  1  0  0  0
 52131  1  0  0  0
 53 54  1  0  0  0
 54 55  2  0  0  0
 54132  1  0  0  0
 55 57  1  0  0  0
 55133  1  0  0  0
 56 69  2  0  0  0
 57 58  2  0  0  0
 57134  1  0  0  0
 58135  1  0  0  0
 59 60  1  0  0  0
 59 61  1  0  0  0
 59 62  1  0  0  0
 60136  1  0  0  0
 60137  1  0  0  0
 60138  1  0  0  0
 61139  1  0  0  0
 61140  1  0  0  0
 61141  1  0  0  0
 62142  1  0  0  0
 62143  1  0  0  0
 62144  1  0  0  0
 63 65  1  0  0  0
 63145  1  0  0  0
 63146  1  0  0  0
 63147  1  0  0  0
 64148  1  0  0  0
 65149  1  0  0  0
 68 87  1  0  0  0
 71 73  2  0  0  0
 71 74  1  0  0  0
 71150  1  0  0  0
 72 74  2  0  0  0
 72 75  1  0  0  0
 72151  1  0  0  0
 73 76  1  0  0  0
 73 77  1  0  0  0
 74 84  1  0  0  0
 75 76  2  0  0  0
 75 83  1  0  0  0
 76 88  1  0  0  0
 77 79  1  0  0  0
 77152  1  0  0  0
 77153  1  0  0  0
 78 80  1  0  0  0
 78 82  1  0  0  0
 78154  1  0  0  0
 78155  1  0  0  0
 79 88  1  0  0  0
 79156  1  0  0  0
 79157  1  0  0  0
 80 89  1  0  0  0
 80158  1  0  0  0
 80159  1  0  0  0
 81 82  1  0  0  0
 81 89  1  0  0  0
 81160  1  0  0  0
 81161  1  0  0  0
 82 85  1  0  0  0
 82162  1  0  0  0
 83163  1  0  0  0
 83164  1  0  0  0
 83165  1  0  0  0
 84 90  1  0  0  0
 84166  1  0  0  0
 84167  1  0  0  0
 85 90  1  0  0  0
 85168  1  0  0  0
 85169  1  0  0  0
 86 87  1  0  0  0
 86170  1  0  0  0
 86171  1  0  0  0
 86 89  1  0  0  0
 87172  1  0  0  0
 87173  1  0  0  0
 89174  1  0  0  0
 90175  1  0  0  0
 90176  1  0  0  0
M  CHG  2  89   1  90   1
M  ISO  4   1 100  68 101  87 101  88 100
M  END
> <chiral flag>
0

> <version>
0

> <s_m_source_file>
/data/baiqing/PycharmProjects/Reinvent-master-3.2/result/LINK_invent/BTK/process_docking_weight1_custom_sum_contain_oxygen_bond_distance_aromatic_linkinvent_7_9_3/rearranged_h_0166.sdf

> <i_m_source_file_index>
35

> <r_mmod_Potential_Energy-OPLS-2005>
151.44059753418

> <r_mmod_Stretch_Energy-OPLS-2005>
51.4617614746094

> <r_mmod_Bend_Energy-OPLS-2005>
278.481079101562

> <r_mmod_Torsional_Energy-OPLS-2005>
395.388305664062

> <r_mmod_Improper_Torsional_Energy-OPLS-2005>
3.64978933334351

> <r_mmod_Van_der_Waal_Energy-OPLS-2005>
141.662109375

> <r_mmod_Electrostatic_Energy-OPLS-2005>
146.996170043945

> <r_mmod_Solvation_Energy-OPLS-2005>
-946.272705078125

> <b_mmod_Minimization_Converged-OPLS-2005>
0

> <r_mmod_RMS_Derivative-OPLS-2005>
33.7903747558594

$$$$
35
                    3D
 Structure written by MMmdl.
188198  0  0  1  0            999 V2000
  -30.6888  -14.6927   20.4925 C   0  0  0  0  0  0
  -30.4156  -12.4383   19.4628 C   0  0  0  0  0  0
  -29.4974  -12.5045   18.2264 C   0  0  0  0  0  0
  -28.0257  -12.3185   18.6415 C   0  0  0  0  0  0
  -27.6359  -13.2140   19.8450 C   0  0  2  0  0  0
  -28.6881  -13.1463   20.9797 C   0  0  0  0  0  0
  -25.2483  -13.8132   20.5689 C   0  0  0  0  0  0
  -24.1782  -13.0404   20.9229 C   0  0  0  0  0  0
  -24.6358  -11.6880   20.8769 C   0  0  0  0  0  0
  -23.9031  -10.4272   21.0414 C   0  0  0  0  0  0
  -24.3586   -9.4190   21.9192 C   0  0  0  0  0  0
  -23.6278   -8.2218   22.0741 C   0  0  0  0  0  0
  -22.4261   -8.0252   21.3528 C   0  0  0  0  0  0
  -21.9890   -9.0224   20.4636 C   0  0  0  0  0  0
  -22.7205  -10.2114   20.3060 C   0  0  0  0  0  0
  -21.6842   -6.0717   22.5278 C   0  0  0  0  0  0
  -21.4001   -6.5623   23.8213 C   0  0  0  0  0  0
  -21.3669   -5.6778   24.9176 C   0  0  0  0  0  0
  -21.6053   -4.3044   24.7225 C   0  0  0  0  0  0
  -21.8817   -3.8128   23.4344 C   0  0  0  0  0  0
  -21.9189   -4.6947   22.3405 C   0  0  0  0  0  0
  -22.7816  -13.5222   21.1876 C   0  0  0  0  0  0
  -22.1666   -4.2135   21.0982 F   0  0  0  0  0  0
  -21.5636   -3.4529   25.7738 F   0  0  0  0  0  0
  -29.9850  -13.5091   20.3943 N   0  0  0  0  0  0
  -26.2893  -12.9316   20.3262 N   0  0  0  0  0  0
  -25.9274  -11.6474   20.5746 N   0  0  0  0  0  0
  -22.0440  -12.8236   22.0429 N   0  0  0  0  0  0
  -25.4097  -15.1849   20.4056 N   0  0  0  0  0  0
  -31.8765  -14.6924   20.1553 O   0  0  0  0  0  0
  -21.6627   -6.8853   21.4233 O   0  0  0  0  0  0
  -22.3529  -14.5535   20.6711 O   0  0  0  0  0  0
  -24.6253  -31.8591   23.2028 C   0  0  0  0  0  0
  -25.9105  -32.4776   23.8355 C   0  0  1  0  0  0
  -27.2146  -27.3074   20.1362 C   0  0  0  0  0  0
  -25.5920  -33.8576   24.2281 N   0  0  0  0  0  0
  -23.4199  -30.4830   21.5449 C   0  0  2  0  0  0
  -24.8665  -28.9362   20.1123 C   0  0  0  0  0  0
  -22.7473  -29.4619   22.4928 C   0  0  0  0  0  0
  -18.0284  -28.1385   22.8482 C   0  0  0  0  0  0
  -24.1491  -36.7295   23.2639 C   0  0  0  0  0  0
  -25.9609  -30.7878   21.3758 C   0  0  0  0  0  0
  -26.0344  -29.4134   20.7213 C   0  0  0  0  0  0
  -27.2143  -28.6112   20.7208 C   0  0  0  0  0  0
  -26.0319  -26.8911   19.4869 C   0  0  0  0  0  0
  -24.8677  -27.6825   19.4829 C   0  0  0  0  0  0
  -23.6359  -29.8181   20.1599 C   0  0  0  0  0  0
  -25.4115  -36.3081   24.0328 C   0  0  1  0  0  0
  -20.5885  -28.3688   23.1278 C   0  0  2  0  0  0
  -20.6772  -26.9409   22.5406 C   0  0  0  0  0  0
  -19.5751  -26.6384   21.5209 C   0  0  0  0  0  0
  -18.1931  -26.7926   22.1621 C   0  0  0  0  0  0
  -19.1536  -28.8853   23.2879 C   0  0  0  0  0  0
  -18.9461  -30.1455   23.8895 C   0  0  0  0  0  0
  -17.6461  -30.6587   24.0562 C   0  0  0  0  0  0
  -25.9046  -34.9449   23.5103 C   0  0  0  0  0  0
  -16.5352  -29.9085   23.6331 C   0  0  0  0  0  0
  -16.7271  -28.6504   23.0348 C   0  0  0  0  0  0
  -26.4496  -31.6586   25.0723 C   0  0  0  0  0  0
  -25.3731  -31.3724   26.1456 C   0  0  0  0  0  0
  -27.0339  -30.3007   24.6181 C   0  0  0  0  0  0
  -27.6056  -32.4323   25.7491 C   0  0  0  0  0  0
  -27.5579  -37.1803   24.8466 C   0  0  0  0  0  0
  -21.4185  -29.3042   22.3673 N   0  0  0  0  0  0
  -26.4295  -37.3774   23.9401 N   0  0  0  0  0  0
  -24.6876  -31.0604   22.0982 N   0  0  0  0  0  0
  -23.4198  -28.8148   23.3001 O   0  0  0  0  0  0
  -28.3236  -26.4503   20.1724 O   0  0  0  0  0  0
  -26.5616  -34.8914   22.4671 O   0  0  0  0  0  0
  -23.5417  -32.1389   23.7357 O   0  0  0  0  0  0
  -27.4482  -19.6517   18.7244 C   0  0  0  0  0  0
  -29.8711  -19.8183   16.4152 C   0  0  0  0  0  0
  -30.3314  -21.6633   18.3149 C   0  0  0  0  0  0
  -28.7463  -16.3947   20.5378 C   0  0  0  0  0  0
  -30.9393  -17.0803   21.2778 C   0  0  0  0  0  0
  -28.3921  -17.8309   21.0857 C   0  0  0  0  0  0
  -30.6221  -18.4058   20.4791 C   0  0  0  0  0  0
  -28.7865  -19.8824   19.4681 C   0  0  1  0  0  0
  -28.3584  -20.0751   16.2637 C   0  0  2  0  0  0
  -29.1683  -21.4458   19.3226 C   0  0  1  0  0  0
  -30.1105  -21.3024   16.7949 C   0  0  2  0  0  0
  -28.7364  -21.5759   16.0373 C   0  0  0  0  0  0
  -31.3589  -21.9184   16.1319 C   0  0  0  0  0  0
  -28.8947  -21.9062   14.5359 C   0  0  0  0  0  0
  -27.7949  -22.6992   16.5295 C   0  0  0  0  0  0
  -30.5873  -24.4030   20.6119 C   0  0  0  0  0  0
  -26.0238  -19.6742   16.7643 C   0  0  0  0  0  0
  -28.1079  -25.0297   20.5684 C   0  0  0  0  0  0
  -29.2015  -23.9682   20.0964 C   0  0  2  0  0  0
  -27.3686  -19.7801   17.3607 N   0  0  0  0  0  0
  -30.1061  -15.9011   20.8788 N   0  0  0  0  0  0
  -29.2469  -18.9657   20.6373 N   0  0  0  0  0  0
  -28.9751  -22.4785   20.4305 N   0  3  0  0  0  0
  -26.4348  -19.4503   19.3998 O   0  0  0  0  0  0
  -31.4587  -12.5303   19.1558 H   0  0  0  0  0  0
  -30.3412  -11.4618   19.9445 H   0  0  0  0  0  0
  -29.7799  -11.7419   17.5009 H   0  0  0  0  0  0
  -29.6213  -13.4663   17.7257 H   0  0  0  0  0  0
  -27.8879  -11.2687   18.9002 H   0  0  0  0  0  0
  -27.3678  -12.5114   17.7928 H   0  0  0  0  0  0
  -27.6195  -14.2216   19.4380 H   0  0  0  0  0  0
  -28.7301  -12.1388   21.3962 H   0  0  0  0  0  0
  -28.4332  -13.7948   21.8169 H   0  0  0  0  0  0
  -25.2714   -9.5681   22.4788 H   0  0  0  0  0  0
  -23.9979   -7.4606   22.7464 H   0  0  0  0  0  0
  -21.0812   -8.8737   19.8953 H   0  0  0  0  0  0
  -22.3636  -10.9655   19.6186 H   0  0  0  0  0  0
  -21.1981   -7.6128   23.9712 H   0  0  0  0  0  0
  -21.1509   -6.0509   25.9086 H   0  0  0  0  0  0
  -22.0588   -2.7587   23.2851 H   0  0  0  0  0  0
  -22.4038  -11.9915   22.4861 H   0  0  0  0  0  0
  -21.1055  -13.1274   22.2607 H   0  0  0  0  0  0
  -24.6256  -15.8213   20.5004 H   0  0  0  0  0  0
  -26.2331  -15.6258   20.0201 H   0  0  0  0  0  0
  -26.7165  -32.5449   23.1097 H   0  0  0  0  0  0
  -25.0067  -33.9728   25.0427 H   0  0  0  0  0  0
  -22.7135  -31.3033   21.4015 H   0  0  0  0  0  0
  -23.3745  -35.9639   23.3316 H   0  0  0  0  0  0
  -24.3577  -36.8901   22.2050 H   0  0  0  0  0  0
  -23.7259  -37.6507   23.6651 H   0  0  0  0  0  0
  -26.0924  -31.5496   20.6061 H   0  0  0  0  0  0
  -26.8416  -30.8380   22.0049 H   0  0  0  0  0  0
  -28.1107  -28.9716   21.2060 H   0  0  0  0  0  0
  -25.9878  -25.9424   18.9725 H   0  0  0  0  0  0
  -23.9767  -27.3182   18.9905 H   0  0  0  0  0  0
  -23.7571  -30.5945   19.4034 H   0  0  0  0  0  0
  -22.7561  -29.2473   19.8562 H   0  0  0  0  0  0
  -25.1299  -36.1933   25.0821 H   0  0  0  0  0  0
  -20.9978  -28.3262   24.1401 H   0  0  0  0  0  0
  -20.5670  -26.2298   23.3607 H   0  0  0  0  0  0
  -21.6641  -26.7438   22.1202 H   0  0  0  0  0  0
  -19.6911  -25.6296   21.1237 H   0  0  0  0  0  0
  -19.6688  -27.3194   20.6738 H   0  0  0  0  0  0
  -17.4198  -26.6669   21.4027 H   0  0  0  0  0  0
  -18.0337  -26.0071   22.9022 H   0  0  0  0  0  0
  -19.7937  -30.7270   24.2263 H   0  0  0  0  0  0
  -17.5016  -31.6265   24.5165 H   0  0  0  0  0  0
  -15.5352  -30.2985   23.7658 H   0  0  0  0  0  0
  -15.8672  -28.0824   22.7060 H   0  0  0  0  0  0
  -24.5907  -30.7074   25.7786 H   0  0  0  0  0  0
  -24.8929  -32.2892   26.4881 H   0  0  0  0  0  0
  -25.8064  -30.8901   27.0227 H   0  0  0  0  0  0
  -26.2909  -29.6754   24.1214 H   0  0  0  0  0  0
  -27.4039  -29.7269   25.4688 H   0  0  0  0  0  0
  -27.8780  -30.4290   23.9403 H   0  0  0  0  0  0
  -27.2665  -33.3620   26.2072 H   0  0  0  0  0  0
  -28.3863  -32.6887   25.0317 H   0  0  0  0  0  0
  -28.0727  -31.8446   26.5404 H   0  0  0  0  0  0
  -28.2604  -38.0092   24.7495 H   0  0  0  0  0  0
  -28.1066  -36.2620   24.6314 H   0  0  0  0  0  0
  -27.2292  -37.1480   25.8869 H   0  0  0  0  0  0
  -20.9357  -29.8774   21.6898 H   0  0  0  0  0  0
  -26.0176  -38.2850   24.1395 H   0  0  0  0  0  0
  -30.2962  -19.6020   15.4336 H   0  0  0  0  0  0
  -30.2477  -19.0158   17.0430 H   0  0  0  0  0  0
  -31.1828  -21.0975   18.6961 H   0  0  0  0  0  0
  -30.6752  -22.6914   18.3667 H   0  0  0  0  0  0
  -28.6087  -16.3625   19.4559 H   0  0  0  0  0  0
  -28.0135  -15.7308   20.9812 H   0  0  0  0  0  0
  -32.0047  -16.8723   21.1638 H   0  0  0  0  0  0
  -30.8117  -17.2503   22.3478 H   0  0  0  0  0  0
  -28.5073  -17.7850   22.1708 H   0  0  0  0  0  0
  -27.3282  -18.0169   20.9925 H   0  0  0  0  0  0
  -30.8413  -18.1732   19.4353 H   0  0  0  0  0  0
  -31.3359  -19.1822   20.7575 H   0  0  0  0  0  0
  -29.3720  -19.4294   18.7166 H   0  0  0  0  0  0
  -28.0549  -19.5998   15.3283 H   0  0  0  0  0  0
  -28.3424  -21.8574   18.7694 H   0  0  0  0  0  0
  -32.2775  -21.6597   16.6610 H   0  0  0  0  0  0
  -31.2992  -23.0071   16.1021 H   0  0  0  0  0  0
  -31.5057  -21.5837   15.1057 H   0  0  0  0  0  0
  -29.5395  -21.2023   14.0099 H   0  0  0  0  0  0
  -29.3156  -22.9008   14.3807 H   0  0  0  0  0  0
  -27.9367  -21.8725   14.0129 H   0  0  0  0  0  0
  -27.0188  -22.3564   17.2112 H   0  0  0  0  0  0
  -27.2408  -23.1796   15.7216 H   0  0  0  0  0  0
  -28.3509  -23.4985   17.0137 H   0  0  0  0  0  0
  -30.8204  -25.4208   20.2976 H   0  0  0  0  0  0
  -31.3883  -23.7647   20.2398 H   0  0  0  0  0  0
  -30.6296  -24.3828   21.7009 H   0  0  0  0  0  0
  -25.2914  -20.2681   17.3149 H   0  0  0  0  0  0
  -25.6850  -18.6370   16.7726 H   0  0  0  0  0  0
  -25.9676  -20.0314   15.7352 H   0  0  0  0  0  0
  -28.0501  -25.0114   21.6579 H   0  0  0  0  0  0
  -27.1403  -24.6652   20.2310 H   0  0  0  0  0  0
  -29.1947  -24.0768   19.0148 H   0  0  0  0  0  0
  -29.5620  -22.2202   21.2092 H   0  0  0  0  0  0
  -28.0273  -22.3661   20.7582 H   0  0  0  0  0  0
  1 25  1  0  0  0
  1 30  2  0  0  0
  1 91  1  0  0  0
  2  3  1  0  0  0
  2 25  1  0  0  0
  2 95  1  0  0  0
  2 96  1  0  0  0
  3  4  1  0  0  0
  3 97  1  0  0  0
  3 98  1  0  0  0
  4  5  1  0  0  0
  4 99  1  0  0  0
  4100  1  0  0  0
  5  6  1  0  0  0
  5 26  1  0  0  0
  5101  1  0  0  0
  6 25  1  0  0  0
  6102  1  0  0  0
  6103  1  0  0  0
  7  8  2  0  0  0
  7 26  1  0  0  0
  7 29  1  0  0  0
  8  9  1  0  0  0
  8 22  1  0  0  0
  9 10  1  0  0  0
  9 27  2  0  0  0
 10 11  2  0  0  0
 10 15  1  0  0  0
 11 12  1  0  0  0
 11104  1  0  0  0
 12 13  2  0  0  0
 12105  1  0  0  0
 13 14  1  0  0  0
 13 31  1  0  0  0
 14 15  2  0  0  0
 14106  1  0  0  0
 15107  1  0  0  0
 16 17  2  0  0  0
 16 21  1  0  0  0
 16 31  1  0  0  0
 17 18  1  0  0  0
 17108  1  0  0  0
 18 19  2  0  0  0
 18109  1  0  0  0
 19 20  1  0  0  0
 19 24  1  0  0  0
 20 21  2  0  0  0
 20110  1  0  0  0
 21 23  1  0  0  0
 22 28  1  0  0  0
 22 32  2  0  0  0
 26 27  1  0  0  0
 28111  1  0  0  0
 28112  1  0  0  0
 29113  1  0  0  0
 29114  1  0  0  0
 33 34  1  0  0  0
 33 66  1  0  0  0
 33 70  2  0  0  0
 34 36  1  0  0  0
 34 59  1  0  0  0
 34115  1  0  0  0
 35 44  2  0  0  0
 35 45  1  0  0  0
 35 68  1  0  0  0
 36 56  1  0  0  0
 36116  1  0  0  0
 37 39  1  0  0  0
 37 47  1  0  0  0
 37 66  1  0  0  0
 37117  1  0  0  0
 38 43  2  0  0  0
 38 46  1  0  0  0
 38 47  1  0  0  0
 39 64  1  0  0  0
 39 67  2  0  0  0
 40 52  1  0  0  0
 40 53  2  0  0  0
 40 58  1  0  0  0
 41118  1  0  0  0
 41119  1  0  0  0
 41120  1  0  0  0
 41 48  1  0  0  0
 42 43  1  0  0  0
 42 66  1  0  0  0
 42121  1  0  0  0
 42122  1  0  0  0
 43 44  1  0  0  0
 44123  1  0  0  0
 45 46  2  0  0  0
 45124  1  0  0  0
 46125  1  0  0  0
 47126  1  0  0  0
 47127  1  0  0  0
 48 56  1  0  0  0
 48 65  1  0  0  0
 48128  1  0  0  0
 49 50  1  0  0  0
 49 53  1  0  0  0
 49 64  1  0  0  0
 49129  1  0  0  0
 50 51  1  0  0  0
 50130  1  0  0  0
 50131  1  0  0  0
 51 52  1  0  0  0
 51132  1  0  0  0
 51133  1  0  0  0
 52134  1  0  0  0
 52135  1  0  0  0
 53 54  1  0  0  0
 54 55  2  0  0  0
 54136  1  0  0  0
 55 57  1  0  0  0
 55137  1  0  0  0
 56 69  2  0  0  0
 57 58  2  0  0  0
 57138  1  0  0  0
 58139  1  0  0  0
 59 60  1  0  0  0
 59 61  1  0  0  0
 59 62  1  0  0  0
 60140  1  0  0  0
 60141  1  0  0  0
 60142  1  0  0  0
 61143  1  0  0  0
 61144  1  0  0  0
 61145  1  0  0  0
 62146  1  0  0  0
 62147  1  0  0  0
 62148  1  0  0  0
 63 65  1  0  0  0
 63149  1  0  0  0
 63150  1  0  0  0
 63151  1  0  0  0
 64152  1  0  0  0
 65153  1  0  0  0
 68 88  1  0  0  0
 71 78  1  0  0  0
 71 90  1  0  0  0
 71 94  2  0  0  0
 72 81  1  0  0  0
 72154  1  0  0  0
 72155  1  0  0  0
 72 79  1  0  0  0
 73 80  1  0  0  0
 73 81  1  0  0  0
 73156  1  0  0  0
 73157  1  0  0  0
 74 76  1  0  0  0
 74 91  1  0  0  0
 74158  1  0  0  0
 74159  1  0  0  0
 75 77  1  0  0  0
 75 91  1  0  0  0
 75160  1  0  0  0
 75161  1  0  0  0
 76162  1  0  0  0
 76163  1  0  0  0
 76 92  1  0  0  0
 77 92  1  0  0  0
 77164  1  0  0  0
 77165  1  0  0  0
 78 80  1  0  0  0
 78 92  1  0  0  0
 78166  1  0  0  0
 79 82  1  0  0  0
 79 90  1  0  0  0
 79167  1  0  0  0
 80 93  1  0  0  0
 80168  1  0  0  0
 81 82  1  0  0  0
 81 83  1  0  0  0
 82 84  1  0  0  0
 82 85  1  0  0  0
 83169  1  0  0  0
 83170  1  0  0  0
 83171  1  0  0  0
 84172  1  0  0  0
 84173  1  0  0  0
 84174  1  0  0  0
 85175  1  0  0  0
 85176  1  0  0  0
 85177  1  0  0  0
 86178  1  0  0  0
 86179  1  0  0  0
 86180  1  0  0  0
 86 89  1  0  0  0
 87 90  1  0  0  0
 87181  1  0  0  0
 87182  1  0  0  0
 87183  1  0  0  0
 88 89  1  0  0  0
 88184  1  0  0  0
 88185  1  0  0  0
 89 93  1  0  0  0
 89186  1  0  0  0
 93187  1  0  0  0
 93188  1  0  0  0
M  CHG  1  93   1
M  ISO  4   1 100  68 101  88 101  91 100
M  END
> <chiral flag>
0

> <version>
0

> <s_m_source_file>
/data/baiqing/PycharmProjects/Reinvent-master-3.2/result/LINK_invent/BTK/process_docking_weight1_custom_sum_contain_oxygen_bond_distance_aromatic_linkinvent_7_9_3/rearranged_h_0166.sdf

> <i_m_source_file_index>
36

> <r_mmod_Potential_Energy-OPLS-2005>
602.7119140625

> <r_mmod_Stretch_Energy-OPLS-2005>
135.648956298828

> <r_mmod_Bend_Energy-OPLS-2005>
363.016052246094

> <r_mmod_Torsional_Energy-OPLS-2005>
462.424468994141

> <r_mmod_Improper_Torsional_Energy-OPLS-2005>
4.22041273117065

> <r_mmod_Van_der_Waal_Energy-OPLS-2005>
205.78742980957

> <r_mmod_Electrostatic_Energy-OPLS-2005>
-209.024215698242

> <r_mmod_Solvation_Energy-OPLS-2005>
-422.531768798828

> <b_mmod_Minimization_Converged-OPLS-2005>
0

> <r_mmod_RMS_Derivative-OPLS-2005>
1.51963293552399

$$$$
36
                    3D
 Structure written by MMmdl.
171181  0  0  1  0            999 V2000
  -30.5099  -15.0217   20.4661 C   0  0  0  0  0  0
  -30.4592  -12.6581   19.4865 C   0  0  0  0  0  0
  -29.5243  -12.5669   18.2532 C   0  0  0  0  0  0
  -28.0595  -12.3234   18.6698 C   0  0  0  0  0  0
  -27.6373  -13.2253   19.8541 C   0  0  2  0  0  0
  -28.6980  -13.1847   20.9823 C   0  0  0  0  0  0
  -25.2438  -13.8115   20.5623 C   0  0  0  0  0  0
  -24.1780  -13.0378   20.9265 C   0  0  0  0  0  0
  -24.6398  -11.6872   20.8815 C   0  0  0  0  0  0
  -23.9072  -10.4262   21.0443 C   0  0  0  0  0  0
  -24.3628   -9.4170   21.9206 C   0  0  0  0  0  0
  -23.6301   -8.2205   22.0748 C   0  0  0  0  0  0
  -22.4279   -8.0264   21.3549 C   0  0  0  0  0  0
  -21.9926   -9.0235   20.4644 C   0  0  0  0  0  0
  -22.7256  -10.2114   20.3069 C   0  0  0  0  0  0
  -21.6845   -6.0730   22.5287 C   0  0  0  0  0  0
  -21.4006   -6.5637   23.8219 C   0  0  0  0  0  0
  -21.3657   -5.6784   24.9180 C   0  0  0  0  0  0
  -21.6056   -4.3050   24.7222 C   0  0  0  0  0  0
  -21.8821   -3.8145   23.4339 C   0  0  0  0  0  0
  -21.9193   -4.6961   22.3399 C   0  0  0  0  0  0
  -22.7799  -13.5169   21.1904 C   0  0  0  0  0  0
  -22.1661   -4.2150   21.0969 F   0  0  0  0  0  0
  -21.5637   -3.4530   25.7735 F   0  0  0  0  0  0
  -29.9381  -13.7311   20.3964 N   0  0  0  0  0  0
  -26.2912  -12.9329   20.3312 N   0  0  0  0  0  0
  -25.9342  -11.6497   20.5852 N   0  0  0  0  0  0
  -22.0426  -12.8175   22.0456 N   0  0  0  0  0  0
  -25.3952  -15.1818   20.3730 N   0  0  0  0  0  0
  -31.6954  -15.0778   20.1133 O   0  0  0  0  0  0
  -21.6634   -6.8871   21.4250 O   0  0  0  0  0  0
  -22.3505  -14.5473   20.6731 O   0  0  0  0  0  0
  -24.6507  -31.8412   23.1862 C   0  0  0  0  0  0
  -25.9256  -32.4680   23.8273 C   0  0  1  0  0  0
  -27.2196  -27.0952   20.1260 C   0  0  0  0  0  0
  -25.5975  -33.8484   24.2183 N   0  0  0  0  0  0
  -23.4541  -30.4643   21.5341 C   0  0  2  0  0  0
  -24.8997  -28.8935   20.1081 C   0  0  0  0  0  0
  -22.7598  -29.4547   22.4844 C   0  0  0  0  0  0
  -18.0311  -28.1407   22.8474 C   0  0  0  0  0  0
  -24.1486  -36.7245   23.2643 C   0  0  0  0  0  0
  -26.0163  -30.7037   21.3884 C   0  0  0  0  0  0
  -26.0845  -29.3147   20.7215 C   0  0  0  0  0  0
  -27.2407  -28.4351   20.7106 C   0  0  0  0  0  0
  -25.9804  -26.7804   19.5217 C   0  0  0  0  0  0
  -24.8636  -27.6382   19.4948 C   0  0  0  0  0  0
  -23.6798  -29.8007   20.1522 C   0  0  0  0  0  0
  -25.4118  -36.3016   24.0315 C   0  0  1  0  0  0
  -20.5932  -28.3747   23.1214 C   0  0  2  0  0  0
  -20.6800  -26.9448   22.5395 C   0  0  0  0  0  0
  -19.5764  -26.6392   21.5211 C   0  0  0  0  0  0
  -18.1949  -26.7946   22.1628 C   0  0  0  0  0  0
  -19.1573  -28.8894   23.2836 C   0  0  0  0  0  0
  -18.9485  -30.1486   23.8865 C   0  0  0  0  0  0
  -17.6480  -30.6602   24.0565 C   0  0  0  0  0  0
  -25.9081  -34.9393   23.5063 C   0  0  0  0  0  0
  -16.5369  -29.9095   23.6337 C   0  0  0  0  0  0
  -16.7295  -28.6516   23.0352 C   0  0  0  0  0  0
  -26.4550  -31.6552   25.0726 C   0  0  0  0  0  0
  -25.3721  -31.3754   26.1412 C   0  0  0  0  0  0
  -27.0424  -30.2939   24.6344 C   0  0  0  0  0  0
  -27.6069  -32.4328   25.7513 C   0  0  0  0  0  0
  -27.5570  -37.1777   24.8467 C   0  0  0  0  0  0
  -21.4284  -29.3065   22.3581 N   0  0  0  0  0  0
  -26.4280  -37.3735   23.9412 N   0  0  0  0  0  0
  -24.7279  -31.0243   22.0912 N   0  0  0  0  0  0
  -23.4222  -28.8092   23.3006 O   0  0  0  0  0  0
  -28.2874  -26.1018   20.2150 O   0  0  0  0  0  0
  -26.5669  -34.8900   22.4639 O   0  0  0  0  0  0
  -23.5615  -32.1298   23.7059 O   0  0  0  0  0  0
  -28.5513  -21.7644   20.0708 C   0  0  0  0  0  0
  -28.9791  -23.2209   20.1755 C   0  0  0  0  0  0
  -29.4316  -20.7543   20.6159 C   0  0  0  0  0  0
  -30.1792  -22.9740   20.7829 C   0  0  0  0  0  0
  -31.6630  -21.8327   21.6228 C   0  0  0  0  0  0
  -28.5484  -16.2590   21.5098 C   0  0  0  0  0  0
  -30.0519  -17.7526   20.1800 C   0  0  0  0  0  0
  -27.7101  -17.5591   21.5671 C   0  0  0  0  0  0
  -29.5295  -19.1308   21.0288 C   0  0  2  0  0  0
  -31.5152  -23.3847   21.3380 C   0  0  0  0  0  0
  -31.3724  -24.3386   22.5188 C   0  0  0  0  0  0
  -32.4089  -23.9949   20.2603 C   0  0  0  0  0  0
  -27.5080  -24.3469   18.3492 C   0  0  0  0  0  0
  -27.6511  -19.8024   22.5836 C   0  0  0  0  0  0
  -28.4120  -24.6700   19.5466 C   0  0  1  0  0  0
  -30.4024  -21.6587   21.0089 N   0  0  0  0  0  0
  -29.7572  -16.2545   20.6596 N   0  0  0  0  0  0
  -28.4974  -18.7221   22.0191 N   0  3  1  0  0  0
  -31.4791  -12.8581   19.1537 H   0  0  0  0  0  0
  -30.5172  -11.6961   19.9965 H   0  0  0  0  0  0
  -29.8607  -11.7760   17.5818 H   0  0  0  0  0  0
  -29.5910  -13.4969   17.6841 H   0  0  0  0  0  0
  -27.9633  -11.2762   18.9568 H   0  0  0  0  0  0
  -27.3927  -12.4756   17.8202 H   0  0  0  0  0  0
  -27.6106  -14.2308   19.4366 H   0  0  0  0  0  0
  -28.8371  -12.1543   21.3148 H   0  0  0  0  0  0
  -28.3953  -13.6992   21.8909 H   0  0  0  0  0  0
  -25.2771   -9.5655   22.4788 H   0  0  0  0  0  0
  -24.0020   -7.4595   22.7454 H   0  0  0  0  0  0
  -21.0865   -8.8762   19.8940 H   0  0  0  0  0  0
  -22.3723  -10.9664   19.6188 H   0  0  0  0  0  0
  -21.1986   -7.6142   23.9725 H   0  0  0  0  0  0
  -21.1488   -6.0513   25.9087 H   0  0  0  0  0  0
  -22.0604   -2.7607   23.2842 H   0  0  0  0  0  0
  -22.4031  -11.9854   22.4879 H   0  0  0  0  0  0
  -21.1031  -13.1207   22.2632 H   0  0  0  0  0  0
  -24.5651  -15.7639   20.3683 H   0  0  0  0  0  0
  -26.1249  -15.5376   19.7714 H   0  0  0  0  0  0
  -26.7322  -32.5264   23.0999 H   0  0  0  0  0  0
  -25.0078  -33.9590   25.0304 H   0  0  0  0  0  0
  -22.7590  -31.2933   21.3829 H   0  0  0  0  0  0
  -23.3755  -35.9573   23.3291 H   0  0  0  0  0  0
  -24.3567  -36.8891   22.2060 H   0  0  0  0  0  0
  -23.7242  -37.6435   23.6694 H   0  0  0  0  0  0
  -26.1787  -31.4607   20.6202 H   0  0  0  0  0  0
  -26.8831  -30.7477   22.0360 H   0  0  0  0  0  0
  -28.1432  -28.7630   21.2067 H   0  0  0  0  0  0
  -25.7785  -25.8140   19.1095 H   0  0  0  0  0  0
  -23.9510  -27.2953   19.0271 H   0  0  0  0  0  0
  -23.8191  -30.5791   19.4008 H   0  0  0  0  0  0
  -22.7913  -29.2499   19.8400 H   0  0  0  0  0  0
  -25.1308  -36.1834   25.0812 H   0  0  0  0  0  0
  -21.0023  -28.3340   24.1333 H   0  0  0  0  0  0
  -20.5691  -26.2369   23.3620 H   0  0  0  0  0  0
  -21.6664  -26.7441   22.1188 H   0  0  0  0  0  0
  -19.6925  -25.6291   21.1263 H   0  0  0  0  0  0
  -19.6695  -27.3184   20.6722 H   0  0  0  0  0  0
  -17.4214  -26.6680   21.4038 H   0  0  0  0  0  0
  -18.0354  -26.0100   22.9035 H   0  0  0  0  0  0
  -19.7958  -30.7322   24.2219 H   0  0  0  0  0  0
  -17.5026  -31.6276   24.5179 H   0  0  0  0  0  0
  -15.5364  -30.2985   23.7683 H   0  0  0  0  0  0
  -15.8694  -28.0828   22.7076 H   0  0  0  0  0  0
  -24.5903  -30.7104   25.7726 H   0  0  0  0  0  0
  -24.8913  -32.2941   26.4781 H   0  0  0  0  0  0
  -25.7987  -30.8956   27.0230 H   0  0  0  0  0  0
  -26.3063  -29.6644   24.1335 H   0  0  0  0  0  0
  -27.3997  -29.7256   25.4941 H   0  0  0  0  0  0
  -27.8985  -30.4156   23.9706 H   0  0  0  0  0  0
  -27.2663  -33.3653   26.2028 H   0  0  0  0  0  0
  -28.3918  -32.6851   25.0370 H   0  0  0  0  0  0
  -28.0708  -31.8500   26.5482 H   0  0  0  0  0  0
  -28.2580  -38.0078   24.7508 H   0  0  0  0  0  0
  -28.1071  -36.2606   24.6300 H   0  0  0  0  0  0
  -27.2290  -37.1431   25.8871 H   0  0  0  0  0  0
  -20.9505  -29.8782   21.6755 H   0  0  0  0  0  0
  -26.0138  -38.2803   24.1412 H   0  0  0  0  0  0
  -27.6112  -21.4800   19.6173 H   0  0  0  0  0  0
  -31.5846  -21.5186   22.6650 H   0  0  0  0  0  0
  -32.4121  -21.2967   21.0379 H   0  0  0  0  0  0
  -27.8404  -15.5424   21.1325 H   0  0  0  0  0  0
  -28.8199  -15.9439   22.5185 H   0  0  0  0  0  0
  -31.1245  -17.8423   20.0053 H   0  0  0  0  0  0
  -29.6053  -17.8164   19.1880 H   0  0  0  0  0  0
  -26.8771  -17.3888   22.2520 H   0  0  0  0  0  0
  -27.2582  -17.7781   20.5976 H   0  0  0  0  0  0
  -30.3665  -19.1764   21.7262 H   0  0  0  0  0  0
  -30.7649  -23.9051   23.3130 H   0  0  0  0  0  0
  -30.8975  -25.2752   22.2228 H   0  0  0  0  0  0
  -32.3431  -24.5849   22.9492 H   0  0  0  0  0  0
  -32.5317  -23.3198   19.4135 H   0  0  0  0  0  0
  -33.4048  -24.2105   20.6485 H   0  0  0  0  0  0
  -31.9966  -24.9248   19.8684 H   0  0  0  0  0  0
  -27.3282  -25.2168   17.7180 H   0  0  0  0  0  0
  -26.5613  -23.9103   18.6678 H   0  0  0  0  0  0
  -27.9840  -23.6025   17.7099 H   0  0  0  0  0  0
  -27.0356  -19.4197   23.3977 H   0  0  0  0  0  0
  -26.9829  -20.2172   21.8290 H   0  0  0  0  0  0
  -28.2535  -20.6097   23.0020 H   0  0  0  0  0  0
  -29.3302  -24.9234   19.0159 H   0  0  0  0  0  0
  -29.0237  -18.3830   22.8101 H   0  0  0  0  0  0
  1 25  1  0  0  0
  1 30  2  0  0  0
  1 87  1  0  0  0
  2  3  1  0  0  0
  2 25  1  0  0  0
  2 89  1  0  0  0
  2 90  1  0  0  0
  3  4  1  0  0  0
  3 91  1  0  0  0
  3 92  1  0  0  0
  4  5  1  0  0  0
  4 93  1  0  0  0
  4 94  1  0  0  0
  5  6  1  0  0  0
  5 26  1  0  0  0
  5 95  1  0  0  0
  6 25  1  0  0  0
  6 96  1  0  0  0
  6 97  1  0  0  0
  7  8  2  0  0  0
  7 26  1  0  0  0
  7 29  1  0  0  0
  8  9  1  0  0  0
  8 22  1  0  0  0
  9 10  1  0  0  0
  9 27  2  0  0  0
 10 11  2  0  0  0
 10 15  1  0  0  0
 11 12  1  0  0  0
 11 98  1  0  0  0
 12 13  2  0  0  0
 12 99  1  0  0  0
 13 14  1  0  0  0
 13 31  1  0  0  0
 14 15  2  0  0  0
 14100  1  0  0  0
 15101  1  0  0  0
 16 17  2  0  0  0
 16 21  1  0  0  0
 16 31  1  0  0  0
 17 18  1  0  0  0
 17102  1  0  0  0
 18 19  2  0  0  0
 18103  1  0  0  0
 19 20  1  0  0  0
 19 24  1  0  0  0
 20 21  2  0  0  0
 20104  1  0  0  0
 21 23  1  0  0  0
 22 28  1  0  0  0
 22 32  2  0  0  0
 26 27  1  0  0  0
 28105  1  0  0  0
 28106  1  0  0  0
 29107  1  0  0  0
 29108  1  0  0  0
 33 34  1  0  0  0
 33 66  1  0  0  0
 33 70  2  0  0  0
 34 36  1  0  0  0
 34 59  1  0  0  0
 34109  1  0  0  0
 35 44  2  0  0  0
 35 45  1  0  0  0
 35 68  1  0  0  0
 36 56  1  0  0  0
 36110  1  0  0  0
 37 39  1  0  0  0
 37 47  1  0  0  0
 37 66  1  0  0  0
 37111  1  0  0  0
 38 43  2  0  0  0
 38 46  1  0  0  0
 38 47  1  0  0  0
 39 64  1  0  0  0
 39 67  2  0  0  0
 40 52  1  0  0  0
 40 53  2  0  0  0
 40 58  1  0  0  0
 41112  1  0  0  0
 41113  1  0  0  0
 41114  1  0  0  0
 41 48  1  0  0  0
 42 43  1  0  0  0
 42 66  1  0  0  0
 42115  1  0  0  0
 42116  1  0  0  0
 43 44  1  0  0  0
 44117  1  0  0  0
 45 46  2  0  0  0
 45118  1  0  0  0
 46119  1  0  0  0
 47120  1  0  0  0
 47121  1  0  0  0
 48 56  1  0  0  0
 48 65  1  0  0  0
 48122  1  0  0  0
 49 50  1  0  0  0
 49 53  1  0  0  0
 49 64  1  0  0  0
 49123  1  0  0  0
 50 51  1  0  0  0
 50124  1  0  0  0
 50125  1  0  0  0
 51 52  1  0  0  0
 51126  1  0  0  0
 51127  1  0  0  0
 52128  1  0  0  0
 52129  1  0  0  0
 53 54  1  0  0  0
 54 55  2  0  0  0
 54130  1  0  0  0
 55 57  1  0  0  0
 55131  1  0  0  0
 56 69  2  0  0  0
 57 58  2  0  0  0
 57132  1  0  0  0
 58133  1  0  0  0
 59 60  1  0  0  0
 59 61  1  0  0  0
 59 62  1  0  0  0
 60134  1  0  0  0
 60135  1  0  0  0
 60136  1  0  0  0
 61137  1  0  0  0
 61138  1  0  0  0
 61139  1  0  0  0
 62140  1  0  0  0
 62141  1  0  0  0
 62142  1  0  0  0
 63 65  1  0  0  0
 63143  1  0  0  0
 63144  1  0  0  0
 63145  1  0  0  0
 64146  1  0  0  0
 65147  1  0  0  0
 68 85  1  0  0  0
 71 72  1  0  0  0
 71 73  2  0  0  0
 71148  1  0  0  0
 72 74  2  0  0  0
 72 85  1  0  0  0
 73 86  1  0  0  0
 73 79  1  0  0  0
 74 80  1  0  0  0
 74 86  1  0  0  0
 75 80  1  0  0  0
 75 86  1  0  0  0
 75149  1  0  0  0
 75150  1  0  0  0
 76 78  1  0  0  0
 76 87  1  0  0  0
 76151  1  0  0  0
 76152  1  0  0  0
 77 79  1  0  0  0
 77 87  1  0  0  0
 77153  1  0  0  0
 77154  1  0  0  0
 78 88  1  0  0  0
 78155  1  0  0  0
 78156  1  0  0  0
 79 88  1  0  0  0
 79157  1  0  0  0
 80 81  1  0  0  0
 80 82  1  0  0  0
 81158  1  0  0  0
 81159  1  0  0  0
 81160  1  0  0  0
 82161  1  0  0  0
 82162  1  0  0  0
 82163  1  0  0  0
 83164  1  0  0  0
 83165  1  0  0  0
 83166  1  0  0  0
 83 85  1  0  0  0
 84167  1  0  0  0
 84168  1  0  0  0
 84169  1  0  0  0
 84 88  1  0  0  0
 85170  1  0  0  0
 88171  1  0  0  0
M  CHG  1  88   1
M  ISO  4   1 100  68 101  85 101  87 100
M  END
> <chiral flag>
0

> <version>
0

> <s_m_source_file>
/data/baiqing/PycharmProjects/Reinvent-master-3.2/result/LINK_invent/BTK/process_docking_weight1_custom_sum_contain_oxygen_bond_distance_aromatic_linkinvent_7_9_3/rearranged_h_0166.sdf

> <i_m_source_file_index>
37

> <r_mmod_Potential_Energy-OPLS-2005>
1182.37048339844

> <r_mmod_Stretch_Energy-OPLS-2005>
338.787719726562

> <r_mmod_Bend_Energy-OPLS-2005>
769.554748535156

> <r_mmod_Torsional_Energy-OPLS-2005>
419.253631591797

> <r_mmod_Improper_Torsional_Energy-OPLS-2005>
12.1625061035156

> <r_mmod_Van_der_Waal_Energy-OPLS-2005>
135.29736328125

> <r_mmod_Electrostatic_Energy-OPLS-2005>
-285.205535888672

> <r_mmod_Solvation_Energy-OPLS-2005>
-431.967987060547

> <b_mmod_Minimization_Converged-OPLS-2005>
0

> <r_mmod_RMS_Derivative-OPLS-2005>
2.28102326393127

$$$$
37
                    3D
 Structure written by MMmdl.
179189  0  0  1  0            999 V2000
  -30.6756  -14.4574   20.6031 C   0  0  0  0  0  0
  -30.4312  -12.3069   19.4126 C   0  0  0  0  0  0
  -29.4933  -12.5120   18.2019 C   0  0  0  0  0  0
  -28.0104  -12.3782   18.6106 C   0  0  0  0  0  0
  -27.6654  -13.1924   19.8867 C   0  0  2  0  0  0
  -28.7058  -12.8918   20.9850 C   0  0  0  0  0  0
  -25.2630  -13.8147   20.5698 C   0  0  0  0  0  0
  -24.1846  -13.0440   20.9167 C   0  0  0  0  0  0
  -24.6377  -11.6902   20.8727 C   0  0  0  0  0  0
  -23.9044  -10.4291   21.0403 C   0  0  0  0  0  0
  -24.3603   -9.4207   21.9183 C   0  0  0  0  0  0
  -23.6282   -8.2242   22.0760 C   0  0  0  0  0  0
  -22.4265   -8.0284   21.3549 C   0  0  0  0  0  0
  -21.9896   -9.0257   20.4656 C   0  0  0  0  0  0
  -22.7218  -10.2136   20.3056 C   0  0  0  0  0  0
  -21.6852   -6.0735   22.5277 C   0  0  0  0  0  0
  -21.4009   -6.5642   23.8211 C   0  0  0  0  0  0
  -21.3658   -5.6798   24.9178 C   0  0  0  0  0  0
  -21.6042   -4.3062   24.7229 C   0  0  0  0  0  0
  -21.8819   -3.8151   23.4352 C   0  0  0  0  0  0
  -21.9192   -4.6963   22.3405 C   0  0  0  0  0  0
  -22.7878  -13.5254   21.1840 C   0  0  0  0  0  0
  -22.1663   -4.2147   21.0984 F   0  0  0  0  0  0
  -21.5626   -3.4548   25.7743 F   0  0  0  0  0  0
  -30.0271  -13.2648   20.4553 N   0  0  0  0  0  0
  -26.3040  -12.9272   20.3423 N   0  0  0  0  0  0
  -25.9292  -11.6443   20.5760 N   0  0  0  0  0  0
  -22.0526  -12.8232   22.0404 N   0  0  0  0  0  0
  -25.4417  -15.1859   20.4141 N   0  0  0  0  0  0
  -31.7978  -14.6454   20.1152 O   0  0  0  0  0  0
  -21.6637   -6.8874   21.4239 O   0  0  0  0  0  0
  -22.3559  -14.5560   20.6710 O   0  0  0  0  0  0
  -24.6126  -31.8679   23.2121 C   0  0  0  0  0  0
  -25.9011  -32.4837   23.8409 C   0  0  1  0  0  0
  -27.2285  -27.4317   20.0844 C   0  0  0  0  0  0
  -25.5850  -33.8638   24.2307 N   0  0  0  0  0  0
  -23.3995  -30.4951   21.5531 C   0  0  2  0  0  0
  -24.8413  -28.9632   20.1206 C   0  0  0  0  0  0
  -22.7411  -29.4648   22.4984 C   0  0  0  0  0  0
  -18.0293  -28.1350   22.8487 C   0  0  0  0  0  0
  -24.1460  -36.7347   23.2636 C   0  0  0  0  0  0
  -25.9289  -30.8371   21.3627 C   0  0  0  0  0  0
  -26.0040  -29.4709   20.7094 C   0  0  0  0  0  0
  -27.1981  -28.7136   20.6866 C   0  0  0  0  0  0
  -26.0324  -26.9360   19.5125 C   0  0  0  0  0  0
  -24.8487  -27.6926   19.5258 C   0  0  0  0  0  0
  -23.6082  -29.8343   20.1653 C   0  0  0  0  0  0
  -25.4087  -36.3125   24.0315 C   0  0  1  0  0  0
  -20.5878  -28.3626   23.1330 C   0  0  2  0  0  0
  -20.6758  -26.9366   22.5382 C   0  0  0  0  0  0
  -19.5744  -26.6401   21.5153 C   0  0  0  0  0  0
  -18.1937  -26.7905   22.1599 C   0  0  0  0  0  0
  -19.1538  -28.8802   23.2925 C   0  0  0  0  0  0
  -18.9463  -30.1411   23.8924 C   0  0  0  0  0  0
  -17.6460  -30.6554   24.0551 C   0  0  0  0  0  0
  -25.9017  -34.9488   23.5121 C   0  0  0  0  0  0
  -16.5365  -29.9059   23.6280 C   0  0  0  0  0  0
  -16.7284  -28.6478   23.0306 C   0  0  0  0  0  0
  -26.4456  -31.6643   25.0741 C   0  0  0  0  0  0
  -25.3730  -31.3758   26.1501 C   0  0  0  0  0  0
  -27.0273  -30.3081   24.6120 C   0  0  0  0  0  0
  -27.6017  -32.4388   25.7498 C   0  0  0  0  0  0
  -27.5564  -37.1822   24.8447 C   0  0  0  0  0  0
  -21.4132  -29.3047   22.3777 N   0  0  0  0  0  0
  -26.4272  -37.3811   23.9394 N   0  0  0  0  0  0
  -24.6659  -31.0783   22.1019 N   0  0  0  0  0  0
  -23.4211  -28.8153   23.2967 O   0  0  0  0  0  0
  -28.4315  -26.7446   20.0910 O   0  0  0  0  0  0
  -26.5631  -34.8931   22.4710 O   0  0  0  0  0  0
  -23.5313  -32.1437   23.7505 O   0  0  0  0  0  0
  -27.7398  -18.9335   22.3280 C   0  0  0  0  0  0
  -28.7127  -18.0024   21.9284 C   0  0  0  0  0  0
  -29.0346  -17.8873   20.5635 C   0  0  0  0  0  0
  -27.1328  -19.8065   21.4067 C   0  0  0  0  0  0
  -28.4604  -18.7848   19.6137 C   0  0  0  0  0  0
  -27.5466  -19.8085   20.0398 C   0  0  0  0  0  0
  -30.0249  -16.7706   20.1810 C   0  0  0  0  0  0
  -30.5960  -17.5513   23.6622 C   0  0  0  0  0  0
  -29.3108  -17.2746   24.4043 C   0  0  0  0  0  0
  -29.3710  -15.6654   22.3318 C   0  0  0  0  0  0
  -29.3809  -17.0687   22.9022 C   0  0  0  0  0  0
  -26.0075  -20.6729   21.9568 C   0  0  0  0  0  0
  -28.8155  -18.5882   18.1354 C   0  0  0  0  0  0
  -25.6945  -20.2766   18.3652 C   0  0  0  0  0  0
  -28.4333  -25.3047   18.0698 C   0  0  0  0  0  0
  -26.7938  -22.3057   19.4471 C   0  0  0  0  0  0
  -27.7979  -24.3481   20.4549 C   0  0  0  0  0  0
  -26.9820  -20.8250   19.0102 C   0  0  1  0  0  0
  -28.5749  -25.3946   19.6045 C   0  0  2  0  0  0
  -29.9061  -15.5195   20.9653 N   0  0  0  0  0  0
  -28.0038  -22.9343   20.0294 N   0  3  0  0  0  0
  -31.4718  -12.4283   19.1075 H   0  0  0  0  0  0
  -30.3558  -11.2844   19.7880 H   0  0  0  0  0  0
  -29.7277  -11.7886   17.4197 H   0  0  0  0  0  0
  -29.6640  -13.4988   17.7681 H   0  0  0  0  0  0
  -27.8117  -11.3193   18.7855 H   0  0  0  0  0  0
  -27.3616  -12.6768   17.7857 H   0  0  0  0  0  0
  -27.7287  -14.2497   19.6303 H   0  0  0  0  0  0
  -28.6964  -11.8234   21.2077 H   0  0  0  0  0  0
  -28.4564  -13.3451   21.9371 H   0  0  0  0  0  0
  -25.2749   -9.5687   22.4755 H   0  0  0  0  0  0
  -24.0001   -7.4623   22.7471 H   0  0  0  0  0  0
  -21.0834   -8.8772   19.8955 H   0  0  0  0  0  0
  -22.3678  -10.9681   19.6168 H   0  0  0  0  0  0
  -21.1999   -7.6150   23.9711 H   0  0  0  0  0  0
  -21.1480   -6.0535   25.9080 H   0  0  0  0  0  0
  -22.0598   -2.7613   23.2854 H   0  0  0  0  0  0
  -22.4134  -11.9869   22.4750 H   0  0  0  0  0  0
  -21.1156  -13.1268   22.2642 H   0  0  0  0  0  0
  -24.6901  -15.8542   20.5426 H   0  0  0  0  0  0
  -26.3173  -15.6246   20.1549 H   0  0  0  0  0  0
  -26.7082  -32.5542   23.1182 H   0  0  0  0  0  0
  -24.9887  -33.9817   25.0367 H   0  0  0  0  0  0
  -22.6894  -31.3135   21.4190 H   0  0  0  0  0  0
  -23.3689  -35.9717   23.3315 H   0  0  0  0  0  0
  -24.3534  -36.8963   22.2049 H   0  0  0  0  0  0
  -23.7249  -37.6561   23.6665 H   0  0  0  0  0  0
  -26.0403  -31.6055   20.5957 H   0  0  0  0  0  0
  -26.8172  -30.8887   21.9806 H   0  0  0  0  0  0
  -28.1000  -29.1105   21.1325 H   0  0  0  0  0  0
  -25.9633  -25.9658   19.0527 H   0  0  0  0  0  0
  -23.9469  -27.2910   19.0847 H   0  0  0  0  0  0
  -23.7311  -30.6141   19.4121 H   0  0  0  0  0  0
  -22.7302  -29.2660   19.8541 H   0  0  0  0  0  0
  -25.1257  -36.1996   25.0807 H   0  0  0  0  0  0
  -20.9978  -28.3134   24.1447 H   0  0  0  0  0  0
  -20.5603  -26.2212   23.3536 H   0  0  0  0  0  0
  -21.6628  -26.7360   22.1202 H   0  0  0  0  0  0
  -19.6885  -25.6340   21.1107 H   0  0  0  0  0  0
  -19.6659  -27.3272   20.6734 H   0  0  0  0  0  0
  -17.4190  -26.6677   21.4009 H   0  0  0  0  0  0
  -18.0343  -26.0025   22.8972 H   0  0  0  0  0  0
  -19.7935  -30.7223   24.2314 H   0  0  0  0  0  0
  -17.5010  -31.6225   24.5168 H   0  0  0  0  0  0
  -15.5365  -30.2963   23.7538 H   0  0  0  0  0  0
  -15.8703  -28.0797   22.6958 H   0  0  0  0  0  0
  -24.5873  -30.7131   25.7853 H   0  0  0  0  0  0
  -24.8958  -32.2926   26.4974 H   0  0  0  0  0  0
  -25.8080  -30.8915   27.0254 H   0  0  0  0  0  0
  -26.2783  -29.6861   24.1208 H   0  0  0  0  0  0
  -27.4061  -29.7316   25.4570 H   0  0  0  0  0  0
  -27.8622  -30.4391   23.9237 H   0  0  0  0  0  0
  -27.2587  -33.3657   26.2115 H   0  0  0  0  0  0
  -28.3795  -32.7019   25.0316 H   0  0  0  0  0  0
  -28.0739  -31.8519   26.5389 H   0  0  0  0  0  0
  -28.2585  -38.0116   24.7470 H   0  0  0  0  0  0
  -28.1040  -36.2634   24.6271 H   0  0  0  0  0  0
  -27.2286  -37.1495   25.8856 H   0  0  0  0  0  0
  -20.9260  -29.8915   21.7155 H   0  0  0  0  0  0
  -26.0153  -38.2885   24.1396 H   0  0  0  0  0  0
  -27.4284  -18.9705   23.3613 H   0  0  0  0  0  0
  -31.0336  -17.1718   20.2988 H   0  0  0  0  0  0
  -29.9374  -16.4910   19.1334 H   0  0  0  0  0  0
  -31.4143  -16.8517   23.8230 H   0  0  0  0  0  0
  -30.8900  -18.5927   23.5424 H   0  0  0  0  0  0
  -28.7940  -18.1375   24.8170 H   0  0  0  0  0  0
  -29.2987  -16.3908   25.0394 H   0  0  0  0  0  0
  -28.3187  -15.3825   22.3091 H   0  0  0  0  0  0
  -29.8736  -14.9881   23.0253 H   0  0  0  0  0  0
  -25.1507  -20.6936   21.2851 H   0  0  0  0  0  0
  -26.3492  -21.6866   22.1606 H   0  0  0  0  0  0
  -25.6277  -20.2778   22.8998 H   0  0  0  0  0  0
  -28.6812  -17.5479   17.8436 H   0  0  0  0  0  0
  -29.8501  -18.8742   17.9463 H   0  0  0  0  0  0
  -28.1893  -19.1200   17.4275 H   0  0  0  0  0  0
  -25.8684  -19.3125   17.8872 H   0  0  0  0  0  0
  -25.3139  -20.9545   17.6013 H   0  0  0  0  0  0
  -24.9002  -20.1310   19.0963 H   0  0  0  0  0  0
  -28.7470  -24.3306   17.6969 H   0  0  0  0  0  0
  -29.0776  -26.0455   17.5952 H   0  0  0  0  0  0
  -27.4288  -25.4718   17.6953 H   0  0  0  0  0  0
  -25.9488  -22.4264   20.1197 H   0  0  0  0  0  0
  -26.5150  -22.8874   18.5678 H   0  0  0  0  0  0
  -26.7352  -24.5725   20.5161 H   0  0  0  0  0  0
  -28.1499  -24.4239   21.4835 H   0  0  0  0  0  0
  -27.7210  -20.9373   18.2199 H   0  0  0  0  0  0
  -29.6286  -25.1795   19.7858 H   0  0  0  0  0  0
  -28.7687  -22.8695   19.3750 H   0  0  0  0  0  0
  -28.2700  -22.3893   20.8356 H   0  0  0  0  0  0
  1 25  1  0  0  0
  1 30  2  0  0  0
  1 90  1  0  0  0
  2  3  1  0  0  0
  2 25  1  0  0  0
  2 92  1  0  0  0
  2 93  1  0  0  0
  3  4  1  0  0  0
  3 94  1  0  0  0
  3 95  1  0  0  0
  4  5  1  0  0  0
  4 96  1  0  0  0
  4 97  1  0  0  0
  5  6  1  0  0  0
  5 26  1  0  0  0
  5 98  1  0  0  0
  6 25  1  0  0  0
  6 99  1  0  0  0
  6100  1  0  0  0
  7  8  2  0  0  0
  7 26  1  0  0  0
  7 29  1  0  0  0
  8  9  1  0  0  0
  8 22  1  0  0  0
  9 10  1  0  0  0
  9 27  2  0  0  0
 10 11  2  0  0  0
 10 15  1  0  0  0
 11 12  1  0  0  0
 11101  1  0  0  0
 12 13  2  0  0  0
 12102  1  0  0  0
 13 14  1  0  0  0
 13 31  1  0  0  0
 14 15  2  0  0  0
 14103  1  0  0  0
 15104  1  0  0  0
 16 17  2  0  0  0
 16 21  1  0  0  0
 16 31  1  0  0  0
 17 18  1  0  0  0
 17105  1  0  0  0
 18 19  2  0  0  0
 18106  1  0  0  0
 19 20  1  0  0  0
 19 24  1  0  0  0
 20 21  2  0  0  0
 20107  1  0  0  0
 21 23  1  0  0  0
 22 28  1  0  0  0
 22 32  2  0  0  0
 26 27  1  0  0  0
 28108  1  0  0  0
 28109  1  0  0  0
 29110  1  0  0  0
 29111  1  0  0  0
 33 34  1  0  0  0
 33 66  1  0  0  0
 33 70  2  0  0  0
 34 36  1  0  0  0
 34 59  1  0  0  0
 34112  1  0  0  0
 35 44  2  0  0  0
 35 45  1  0  0  0
 35 68  1  0  0  0
 36 56  1  0  0  0
 36113  1  0  0  0
 37 39  1  0  0  0
 37 47  1  0  0  0
 37 66  1  0  0  0
 37114  1  0  0  0
 38 43  2  0  0  0
 38 46  1  0  0  0
 38 47  1  0  0  0
 39 64  1  0  0  0
 39 67  2  0  0  0
 40 52  1  0  0  0
 40 53  2  0  0  0
 40 58  1  0  0  0
 41115  1  0  0  0
 41116  1  0  0  0
 41117  1  0  0  0
 41 48  1  0  0  0
 42 43  1  0  0  0
 42 66  1  0  0  0
 42118  1  0  0  0
 42119  1  0  0  0
 43 44  1  0  0  0
 44120  1  0  0  0
 45 46  2  0  0  0
 45121  1  0  0  0
 46122  1  0  0  0
 47123  1  0  0  0
 47124  1  0  0  0
 48 56  1  0  0  0
 48 65  1  0  0  0
 48125  1  0  0  0
 49 50  1  0  0  0
 49 53  1  0  0  0
 49 64  1  0  0  0
 49126  1  0  0  0
 50 51  1  0  0  0
 50127  1  0  0  0
 50128  1  0  0  0
 51 52  1  0  0  0
 51129  1  0  0  0
 51130  1  0  0  0
 52131  1  0  0  0
 52132  1  0  0  0
 53 54  1  0  0  0
 54 55  2  0  0  0
 54133  1  0  0  0
 55 57  1  0  0  0
 55134  1  0  0  0
 56 69  2  0  0  0
 57 58  2  0  0  0
 57135  1  0  0  0
 58136  1  0  0  0
 59 60  1  0  0  0
 59 61  1  0  0  0
 59 62  1  0  0  0
 60137  1  0  0  0
 60138  1  0  0  0
 60139  1  0  0  0
 61140  1  0  0  0
 61141  1  0  0  0
 61142  1  0  0  0
 62143  1  0  0  0
 62144  1  0  0  0
 62145  1  0  0  0
 63 65  1  0  0  0
 63146  1  0  0  0
 63147  1  0  0  0
 63148  1  0  0  0
 64149  1  0  0  0
 65150  1  0  0  0
 68 89  1  0  0  0
 71 72  2  0  0  0
 71 74  1  0  0  0
 71151  1  0  0  0
 72 73  1  0  0  0
 72 81  1  0  0  0
 73 75  2  0  0  0
 73 77  1  0  0  0
 74 76  2  0  0  0
 74 82  1  0  0  0
 75 76  1  0  0  0
 75 83  1  0  0  0
 76 88  1  0  0  0
 77 90  1  0  0  0
 77152  1  0  0  0
 77153  1  0  0  0
 78 79  1  0  0  0
 78154  1  0  0  0
 78155  1  0  0  0
 78 81  1  0  0  0
 79 81  1  0  0  0
 79156  1  0  0  0
 79157  1  0  0  0
 80 81  1  0  0  0
 80 90  1  0  0  0
 80158  1  0  0  0
 80159  1  0  0  0
 82160  1  0  0  0
 82161  1  0  0  0
 82162  1  0  0  0
 83163  1  0  0  0
 83164  1  0  0  0
 83165  1  0  0  0
 84166  1  0  0  0
 84167  1  0  0  0
 84168  1  0  0  0
 84 88  1  0  0  0
 85169  1  0  0  0
 85170  1  0  0  0
 85171  1  0  0  0
 85 89  1  0  0  0
 86 88  1  0  0  0
 86 91  1  0  0  0
 86172  1  0  0  0
 86173  1  0  0  0
 87 89  1  0  0  0
 87 91  1  0  0  0
 87174  1  0  0  0
 87175  1  0  0  0
 88176  1  0  0  0
 89177  1  0  0  0
 91178  1  0  0  0
 91179  1  0  0  0
M  CHG  1  91   1
M  ISO  4   1 100  68 101  89 101  90 100
M  END
> <chiral flag>
0

> <version>
0

> <s_m_source_file>
/data/baiqing/PycharmProjects/Reinvent-master-3.2/result/LINK_invent/BTK/process_docking_weight1_custom_sum_contain_oxygen_bond_distance_aromatic_linkinvent_7_9_3/rearranged_h_0166.sdf

> <i_m_source_file_index>
38

> <r_mmod_Potential_Energy-OPLS-2005>
20.7159881591797

> <r_mmod_Stretch_Energy-OPLS-2005>
49.7684173583984

> <r_mmod_Bend_Energy-OPLS-2005>
143.990371704102

> <r_mmod_Torsional_Energy-OPLS-2005>
348.188018798828

> <r_mmod_Improper_Torsional_Energy-OPLS-2005>
11.4868316650391

> <r_mmod_Van_der_Waal_Energy-OPLS-2005>
178.474945068359

> <r_mmod_Electrostatic_Energy-OPLS-2005>
-316.315368652344

> <r_mmod_Solvation_Energy-OPLS-2005>
-407.194183349609

> <b_mmod_Minimization_Converged-OPLS-2005>
0

> <r_mmod_RMS_Derivative-OPLS-2005>
2.16875743865967

$$$$
38
                    3D
 Structure written by MMmdl.
176185  0  0  1  0            999 V2000
  -30.7181  -14.4222   20.6751 C   0  0  0  0  0  0
  -30.4174  -12.3292   19.3944 C   0  0  0  0  0  0
  -29.4811  -12.5362   18.1880 C   0  0  0  0  0  0
  -28.0098  -12.3503   18.6064 C   0  0  0  0  0  0
  -27.6519  -13.1826   19.8629 C   0  0  2  0  0  0
  -28.6887  -12.9487   20.9829 C   0  0  0  0  0  0
  -25.2570  -13.8121   20.5624 C   0  0  0  0  0  0
  -24.1818  -13.0447   20.9156 C   0  0  0  0  0  0
  -24.6331  -11.6898   20.8707 C   0  0  0  0  0  0
  -23.8995  -10.4306   21.0386 C   0  0  0  0  0  0
  -24.3580   -9.4228   21.9157 C   0  0  0  0  0  0
  -23.6262   -8.2270   22.0740 C   0  0  0  0  0  0
  -22.4228   -8.0309   21.3551 C   0  0  0  0  0  0
  -21.9855   -9.0266   20.4640 C   0  0  0  0  0  0
  -22.7177  -10.2141   20.3031 C   0  0  0  0  0  0
  -21.6850   -6.0742   22.5277 C   0  0  0  0  0  0
  -21.4030   -6.5648   23.8215 C   0  0  0  0  0  0
  -21.3641   -5.6787   24.9168 C   0  0  0  0  0  0
  -21.6035   -4.3050   24.7208 C   0  0  0  0  0  0
  -21.8823   -3.8147   23.4329 C   0  0  0  0  0  0
  -21.9197   -4.6972   22.3393 C   0  0  0  0  0  0
  -22.7852  -13.5285   21.1849 C   0  0  0  0  0  0
  -22.1660   -4.2166   21.0964 F   0  0  0  0  0  0
  -21.5604   -3.4524   25.7710 F   0  0  0  0  0  0
  -30.0218  -13.2762   20.4482 N   0  0  0  0  0  0
  -26.2950  -12.9240   20.3261 N   0  0  0  0  0  0
  -25.9236  -11.6422   20.5681 N   0  0  0  0  0  0
  -22.0483  -12.8303   22.0401 N   0  0  0  0  0  0
  -25.4322  -15.1851   20.4041 N   0  0  0  0  0  0
  -31.7989  -14.6656   20.1238 O   0  0  0  0  0  0
  -21.6624   -6.8887   21.4236 O   0  0  0  0  0  0
  -22.3564  -14.5606   20.6693 O   0  0  0  0  0  0
  -24.6115  -31.8696   23.2169 C   0  0  0  0  0  0
  -25.9011  -32.4828   23.8448 C   0  0  1  0  0  0
  -27.2637  -27.4574   20.1080 C   0  0  0  0  0  0
  -25.5879  -33.8647   24.2346 N   0  0  0  0  0  0
  -23.4019  -30.4881   21.5535 C   0  0  2  0  0  0
  -24.8597  -28.9536   20.1273 C   0  0  0  0  0  0
  -22.7386  -29.4670   22.5012 C   0  0  0  0  0  0
  -18.0248  -28.1375   22.8471 C   0  0  0  0  0  0
  -24.1471  -36.7330   23.2639 C   0  0  0  0  0  0
  -25.9278  -30.8386   21.3764 C   0  0  0  0  0  0
  -26.0132  -29.4733   20.7278 C   0  0  0  0  0  0
  -27.2149  -28.7311   20.7267 C   0  0  0  0  0  0
  -26.0932  -26.9514   19.5087 C   0  0  0  0  0  0
  -24.8904  -27.6831   19.5252 C   0  0  0  0  0  0
  -23.6155  -29.8130   20.1712 C   0  0  0  0  0  0
  -25.4095  -36.3127   24.0331 C   0  0  1  0  0  0
  -20.5843  -28.3673   23.1312 C   0  0  2  0  0  0
  -20.6753  -26.9410   22.5436 C   0  0  0  0  0  0
  -19.5734  -26.6376   21.5235 C   0  0  0  0  0  0
  -18.1908  -26.7928   22.1626 C   0  0  0  0  0  0
  -19.1491  -28.8839   23.2884 C   0  0  0  0  0  0
  -18.9429  -30.1436   23.8901 C   0  0  0  0  0  0
  -17.6435  -30.6584   24.0553 C   0  0  0  0  0  0
  -25.9019  -34.9486   23.5130 C   0  0  0  0  0  0
  -16.5311  -29.9085   23.6337 C   0  0  0  0  0  0
  -16.7238  -28.6507   23.0359 C   0  0  0  0  0  0
  -26.4478  -31.6607   25.0765 C   0  0  0  0  0  0
  -25.3783  -31.3682   26.1537 C   0  0  0  0  0  0
  -27.0308  -30.3032   24.6186 C   0  0  0  0  0  0
  -27.6027  -32.4375   25.7525 C   0  0  0  0  0  0
  -27.5582  -37.1809   24.8443 C   0  0  0  0  0  0
  -21.4117  -29.3041   22.3719 N   0  0  0  0  0  0
  -26.4276  -37.3823   23.9411 N   0  0  0  0  0  0
  -24.6638  -31.0772   22.1077 N   0  0  0  0  0  0
  -23.4145  -28.8260   23.3102 O   0  0  0  0  0  0
  -28.3887  -26.6603   20.0248 O   0  0  0  0  0  0
  -26.5575  -34.8936   22.4687 O   0  0  0  0  0  0
  -23.5307  -32.1446   23.7573 O   0  0  0  0  0  0
  -31.5542  -19.9238   21.2706 C   0  0  0  0  0  0
  -30.7696  -19.5124   22.3656 C   0  0  0  0  0  0
  -31.8341  -21.2847   21.0426 C   0  0  0  0  0  0
  -30.3321  -20.4818   23.3063 C   0  0  0  0  0  0
  -31.3440  -22.2657   21.9377 C   0  0  0  0  0  0
  -30.6523  -21.8490   23.1095 C   0  0  0  0  0  0
  -29.4724  -17.5939   21.3184 C   0  0  0  0  0  0
  -31.5945  -17.0870   22.5622 C   0  0  0  0  0  0
  -29.0701  -16.1102   21.4409 C   0  0  0  0  0  0
  -31.0864  -15.6485   22.7709 C   0  0  0  0  0  0
  -30.3871  -18.0355   22.4747 C   0  0  0  0  0  0
  -32.6522  -21.6603   19.8165 C   0  0  0  0  0  0
  -29.5139  -20.0692   24.5283 C   0  0  0  0  0  0
  -31.3415  -23.2890   24.8312 C   0  0  0  0  0  0
  -30.4063  -24.5450   21.7350 C   0  0  0  0  0  0
  -29.4489  -26.8541   20.9585 C   0  0  0  0  0  0
  -30.5455  -25.7605   20.7817 C   0  0  1  0  0  0
  -30.2339  -15.2255   21.6535 N   0  0  0  0  0  0
  -31.5454  -23.6229   21.6283 N   0  0  0  0  0  0
  -31.8308  -26.3290   20.9962 O   0  0  0  0  0  0
  -30.2640  -22.7522   24.0674 O   0  0  0  0  0  0
  -31.4583  -12.4584   19.0900 H   0  0  0  0  0  0
  -30.3413  -11.3062   19.7678 H   0  0  0  0  0  0
  -29.7368  -11.8384   17.3896 H   0  0  0  0  0  0
  -29.6205  -13.5384   17.7751 H   0  0  0  0  0  0
  -27.8524  -11.2897   18.8067 H   0  0  0  0  0  0
  -27.3469  -12.6106   17.7805 H   0  0  0  0  0  0
  -27.6856  -14.2190   19.5419 H   0  0  0  0  0  0
  -28.6743  -11.9043   21.2936 H   0  0  0  0  0  0
  -28.4236  -13.5063   21.8808 H   0  0  0  0  0  0
  -25.2748   -9.5728   22.4697 H   0  0  0  0  0  0
  -23.9984   -7.4674   22.7467 H   0  0  0  0  0  0
  -21.0782   -8.8803   19.8945 H   0  0  0  0  0  0
  -22.3655  -10.9685   19.6129 H   0  0  0  0  0  0
  -21.2039   -7.6161   23.9740 H   0  0  0  0  0  0
  -21.1433   -6.0495   25.9076 H   0  0  0  0  0  0
  -22.0602   -2.7609   23.2808 H   0  0  0  0  0  0
  -22.4077  -11.9962   22.4810 H   0  0  0  0  0  0
  -21.1113  -13.1371   22.2622 H   0  0  0  0  0  0
  -24.6650  -15.8381   20.5146 H   0  0  0  0  0  0
  -26.2829  -15.6242   20.0797 H   0  0  0  0  0  0
  -26.7082  -32.5564   23.1220 H   0  0  0  0  0  0
  -24.9950  -33.9845   25.0434 H   0  0  0  0  0  0
  -22.6865  -31.3013   21.4083 H   0  0  0  0  0  0
  -23.3737  -35.9660   23.3289 H   0  0  0  0  0  0
  -24.3546  -36.8982   22.2054 H   0  0  0  0  0  0
  -23.7228  -37.6527   23.6674 H   0  0  0  0  0  0
  -26.0415  -31.6105   20.6143 H   0  0  0  0  0  0
  -26.8114  -30.8880   22.0001 H   0  0  0  0  0  0
  -28.0928  -29.1570   21.1915 H   0  0  0  0  0  0
  -26.1131  -25.9780   19.0371 H   0  0  0  0  0  0
  -24.0009  -27.2660   19.0752 H   0  0  0  0  0  0
  -23.7152  -30.5807   19.4026 H   0  0  0  0  0  0
  -22.7446  -29.2196   19.8854 H   0  0  0  0  0  0
  -25.1286  -36.1979   25.0826 H   0  0  0  0  0  0
  -20.9890  -28.3241   24.1453 H   0  0  0  0  0  0
  -20.5645  -26.2289   23.3628 H   0  0  0  0  0  0
  -21.6621  -26.7460   22.1229 H   0  0  0  0  0  0
  -19.6906  -25.6288   21.1288 H   0  0  0  0  0  0
  -19.6700  -27.3146   20.6728 H   0  0  0  0  0  0
  -17.4197  -26.6656   21.4011 H   0  0  0  0  0  0
  -18.0289  -26.0054   22.8998 H   0  0  0  0  0  0
  -19.7892  -30.7244   24.2278 H   0  0  0  0  0  0
  -17.4992  -31.6276   24.5126 H   0  0  0  0  0  0
  -15.5333  -30.3003   23.7643 H   0  0  0  0  0  0
  -15.8631  -28.0828   22.7101 H   0  0  0  0  0  0
  -24.5900  -30.7099   25.7868 H   0  0  0  0  0  0
  -24.9063  -32.2832   26.5122 H   0  0  0  0  0  0
  -25.8198  -30.8738   27.0202 H   0  0  0  0  0  0
  -26.2851  -29.6776   24.1248 H   0  0  0  0  0  0
  -27.4001  -29.7301   25.4702 H   0  0  0  0  0  0
  -27.8753  -30.4269   23.9394 H   0  0  0  0  0  0
  -27.2564  -33.3613   26.2165 H   0  0  0  0  0  0
  -28.3798  -32.7048   25.0354 H   0  0  0  0  0  0
  -28.0737  -31.8484   26.5402 H   0  0  0  0  0  0
  -28.2573  -38.0132   24.7536 H   0  0  0  0  0  0
  -28.1111  -36.2671   24.6212 H   0  0  0  0  0  0
  -27.2295  -37.1374   25.8841 H   0  0  0  0  0  0
  -20.9273  -29.8703   21.6889 H   0  0  0  0  0  0
  -26.0159  -38.2895   24.1467 H   0  0  0  0  0  0
  -31.9164  -19.1827   20.5720 H   0  0  0  0  0  0
  -28.5748  -18.2145   21.2990 H   0  0  0  0  0  0
  -29.9694  -17.7507   20.3610 H   0  0  0  0  0  0
  -32.2029  -17.1410   21.6571 H   0  0  0  0  0  0
  -32.2450  -17.3763   23.3871 H   0  0  0  0  0  0
  -28.5336  -15.8495   20.5321 H   0  0  0  0  0  0
  -28.3669  -15.9786   22.2647 H   0  0  0  0  0  0
  -30.5004  -15.5932   23.6907 H   0  0  0  0  0  0
  -31.9218  -14.9606   22.9080 H   0  0  0  0  0  0
  -29.8193  -17.8778   23.3887 H   0  0  0  0  0  0
  -32.7425  -20.8226   19.1242 H   0  0  0  0  0  0
  -33.6605  -21.9580   20.1096 H   0  0  0  0  0  0
  -32.1885  -22.4802   19.2701 H   0  0  0  0  0  0
  -28.5851  -19.5965   24.2098 H   0  0  0  0  0  0
  -29.2355  -20.9034   25.1711 H   0  0  0  0  0  0
  -30.0692  -19.3605   25.1462 H   0  0  0  0  0  0
  -30.9416  -23.9185   25.6281 H   0  0  0  0  0  0
  -32.0054  -23.9110   24.2289 H   0  0  0  0  0  0
  -31.9405  -22.5049   25.3001 H   0  0  0  0  0  0
  -29.4805  -24.0130   21.5071 H   0  0  0  0  0  0
  -30.3238  -24.8952   22.7638 H   0  0  0  0  0  0
  -29.0641  -26.8455   21.9786 H   0  0  0  0  0  0
  -29.8721  -27.8439   20.7819 H   0  0  0  0  0  0
  -30.5285  -25.4063   19.7507 H   0  0  0  0  0  0
  -32.1539  -23.8149   20.8403 H   0  0  0  0  0  0
  -32.1022  -26.7385   20.1793 H   0  0  0  0  0  0
  1 25  1  0  0  0
  1 30  2  0  0  0
  1 88  1  0  0  0
  2  3  1  0  0  0
  2 25  1  0  0  0
  2 92  1  0  0  0
  2 93  1  0  0  0
  3  4  1  0  0  0
  3 94  1  0  0  0
  3 95  1  0  0  0
  4  5  1  0  0  0
  4 96  1  0  0  0
  4 97  1  0  0  0
  5  6  1  0  0  0
  5 26  1  0  0  0
  5 98  1  0  0  0
  6 25  1  0  0  0
  6 99  1  0  0  0
  6100  1  0  0  0
  7  8  2  0  0  0
  7 26  1  0  0  0
  7 29  1  0  0  0
  8  9  1  0  0  0
  8 22  1  0  0  0
  9 10  1  0  0  0
  9 27  2  0  0  0
 10 11  2  0  0  0
 10 15  1  0  0  0
 11 12  1  0  0  0
 11101  1  0  0  0
 12 13  2  0  0  0
 12102  1  0  0  0
 13 14  1  0  0  0
 13 31  1  0  0  0
 14 15  2  0  0  0
 14103  1  0  0  0
 15104  1  0  0  0
 16 17  2  0  0  0
 16 21  1  0  0  0
 16 31  1  0  0  0
 17 18  1  0  0  0
 17105  1  0  0  0
 18 19  2  0  0  0
 18106  1  0  0  0
 19 20  1  0  0  0
 19 24  1  0  0  0
 20 21  2  0  0  0
 20107  1  0  0  0
 21 23  1  0  0  0
 22 28  1  0  0  0
 22 32  2  0  0  0
 26 27  1  0  0  0
 28108  1  0  0  0
 28109  1  0  0  0
 29110  1  0  0  0
 29111  1  0  0  0
 33 34  1  0  0  0
 33 66  1  0  0  0
 33 70  2  0  0  0
 34 36  1  0  0  0
 34 59  1  0  0  0
 34112  1  0  0  0
 35 44  2  0  0  0
 35 45  1  0  0  0
 35 68  1  0  0  0
 36 56  1  0  0  0
 36113  1  0  0  0
 37 39  1  0  0  0
 37 47  1  0  0  0
 37 66  1  0  0  0
 37114  1  0  0  0
 38 43  2  0  0  0
 38 46  1  0  0  0
 38 47  1  0  0  0
 39 64  1  0  0  0
 39 67  2  0  0  0
 40 52  1  0  0  0
 40 53  2  0  0  0
 40 58  1  0  0  0
 41115  1  0  0  0
 41116  1  0  0  0
 41117  1  0  0  0
 41 48  1  0  0  0
 42 43  1  0  0  0
 42 66  1  0  0  0
 42118  1  0  0  0
 42119  1  0  0  0
 43 44  1  0  0  0
 44120  1  0  0  0
 45 46  2  0  0  0
 45121  1  0  0  0
 46122  1  0  0  0
 47123  1  0  0  0
 47124  1  0  0  0
 48 56  1  0  0  0
 48 65  1  0  0  0
 48125  1  0  0  0
 49 50  1  0  0  0
 49 53  1  0  0  0
 49 64  1  0  0  0
 49126  1  0  0  0
 50 51  1  0  0  0
 50127  1  0  0  0
 50128  1  0  0  0
 51 52  1  0  0  0
 51129  1  0  0  0
 51130  1  0  0  0
 52131  1  0  0  0
 52132  1  0  0  0
 53 54  1  0  0  0
 54 55  2  0  0  0
 54133  1  0  0  0
 55 57  1  0  0  0
 55134  1  0  0  0
 56 69  2  0  0  0
 57 58  2  0  0  0
 57135  1  0  0  0
 58136  1  0  0  0
 59 60  1  0  0  0
 59 61  1  0  0  0
 59 62  1  0  0  0
 60137  1  0  0  0
 60138  1  0  0  0
 60139  1  0  0  0
 61140  1  0  0  0
 61141  1  0  0  0
 61142  1  0  0  0
 62143  1  0  0  0
 62144  1  0  0  0
 62145  1  0  0  0
 63 65  1  0  0  0
 63146  1  0  0  0
 63147  1  0  0  0
 63148  1  0  0  0
 64149  1  0  0  0
 65150  1  0  0  0
 68 86  1  0  0  0
 71 72  2  0  0  0
 71 73  1  0  0  0
 71151  1  0  0  0
 72 74  1  0  0  0
 72 81  1  0  0  0
 73 75  2  0  0  0
 73 82  1  0  0  0
 74 76  2  0  0  0
 74 83  1  0  0  0
 75 76  1  0  0  0
 75 89  1  0  0  0
 76 91  1  0  0  0
 77 79  1  0  0  0
 77 81  1  0  0  0
 77152  1  0  0  0
 77153  1  0  0  0
 78 80  1  0  0  0
 78 81  1  0  0  0
 78154  1  0  0  0
 78155  1  0  0  0
 79 88  1  0  0  0
 79156  1  0  0  0
 79157  1  0  0  0
 80 88  1  0  0  0
 80158  1  0  0  0
 80159  1  0  0  0
 81160  1  0  0  0
 82161  1  0  0  0
 82162  1  0  0  0
 82163  1  0  0  0
 83164  1  0  0  0
 83165  1  0  0  0
 83166  1  0  0  0
 84 91  1  0  0  0
 84167  1  0  0  0
 84168  1  0  0  0
 84169  1  0  0  0
 85 87  1  0  0  0
 85 89  1  0  0  0
 85170  1  0  0  0
 85171  1  0  0  0
 86 87  1  0  0  0
 86172  1  0  0  0
 86173  1  0  0  0
 87 90  1  0  0  0
 87174  1  0  0  0
 89175  1  0  0  0
 90176  1  0  0  0
M  ISO  4   1 100  68 101  86 101  88 100
M  END
> <chiral flag>
0

> <version>
0

> <s_m_source_file>
/data/baiqing/PycharmProjects/Reinvent-master-3.2/result/LINK_invent/BTK/process_docking_weight1_custom_sum_contain_oxygen_bond_distance_aromatic_linkinvent_7_9_3/rearranged_h_0166.sdf

> <i_m_source_file_index>
39

> <r_mmod_Potential_Energy-OPLS-2005>
150.951965332031

> <r_mmod_Stretch_Energy-OPLS-2005>
40.0785331726074

> <r_mmod_Bend_Energy-OPLS-2005>
107.599472045898

> <r_mmod_Torsional_Energy-OPLS-2005>
376.262634277344

> <r_mmod_Improper_Torsional_Energy-OPLS-2005>
7.55731630325317

> <r_mmod_Van_der_Waal_Energy-OPLS-2005>
173.432571411133

> <r_mmod_Electrostatic_Energy-OPLS-2005>
-340.641265869141

> <r_mmod_Solvation_Energy-OPLS-2005>
-222.553024291992

> <b_mmod_Minimization_Converged-OPLS-2005>
0

> <r_mmod_RMS_Derivative-OPLS-2005>
4.01046276092529

$$$$
39
                    3D
 Structure written by MMmdl.
174184  0  0  1  0            999 V2000
  -30.7022  -14.4293   20.5104 C   0  0  0  0  0  0
  -30.4243  -12.2600   19.4138 C   0  0  0  0  0  0
  -29.4963  -12.4762   18.2002 C   0  0  0  0  0  0
  -28.0130  -12.3585   18.6077 C   0  0  0  0  0  0
  -27.6608  -13.1883   19.8728 C   0  0  2  0  0  0
  -28.7102  -12.9682   20.9902 C   0  0  0  0  0  0
  -25.2589  -13.8082   20.5611 C   0  0  0  0  0  0
  -24.1837  -13.0396   20.9185 C   0  0  0  0  0  0
  -24.6379  -11.6870   20.8778 C   0  0  0  0  0  0
  -23.9039  -10.4283   21.0443 C   0  0  0  0  0  0
  -24.3606   -9.4202   21.9206 C   0  0  0  0  0  0
  -23.6289   -8.2240   22.0762 C   0  0  0  0  0  0
  -22.4265   -8.0305   21.3571 C   0  0  0  0  0  0
  -21.9898   -9.0261   20.4657 C   0  0  0  0  0  0
  -22.7224  -10.2138   20.3076 C   0  0  0  0  0  0
  -21.6860   -6.0758   22.5292 C   0  0  0  0  0  0
  -21.4021   -6.5652   23.8224 C   0  0  0  0  0  0
  -21.3634   -5.6800   24.9178 C   0  0  0  0  0  0
  -21.6031   -4.3071   24.7223 C   0  0  0  0  0  0
  -21.8832   -3.8168   23.4349 C   0  0  0  0  0  0
  -21.9189   -4.6985   22.3410 C   0  0  0  0  0  0
  -22.7863  -13.5233   21.1844 C   0  0  0  0  0  0
  -22.1655   -4.2178   21.0985 F   0  0  0  0  0  0
  -21.5593   -3.4539   25.7726 F   0  0  0  0  0  0
  -30.0429  -13.2463   20.4291 N   0  0  0  0  0  0
  -26.3025  -12.9225   20.3373 N   0  0  0  0  0  0
  -25.9302  -11.6411   20.5804 N   0  0  0  0  0  0
  -22.0474  -12.8262   22.0408 N   0  0  0  0  0  0
  -25.4278  -15.1778   20.3860 N   0  0  0  0  0  0
  -31.8781  -14.5834   20.1674 O   0  0  0  0  0  0
  -21.6640   -6.8910   21.4267 O   0  0  0  0  0  0
  -22.3569  -14.5522   20.6658 O   0  0  0  0  0  0
  -24.6076  -31.8725   23.2144 C   0  0  0  0  0  0
  -25.8996  -32.4844   23.8419 C   0  0  1  0  0  0
  -27.2491  -27.5041   20.0857 C   0  0  0  0  0  0
  -25.5891  -33.8644   24.2355 N   0  0  0  0  0  0
  -23.3930  -30.4926   21.5528 C   0  0  2  0  0  0
  -24.8437  -28.9601   20.1202 C   0  0  0  0  0  0
  -22.7374  -29.4664   22.5028 C   0  0  0  0  0  0
  -18.0262  -28.1371   22.8491 C   0  0  0  0  0  0
  -24.1489  -36.7324   23.2632 C   0  0  0  0  0  0
  -25.9127  -30.8545   21.3605 C   0  0  0  0  0  0
  -25.9938  -29.4890   20.7191 C   0  0  0  0  0  0
  -27.1961  -28.7590   20.7156 C   0  0  0  0  0  0
  -26.0890  -26.9659   19.4904 C   0  0  0  0  0  0
  -24.8809  -27.6915   19.5103 C   0  0  0  0  0  0
  -23.6001  -29.8179   20.1684 C   0  0  0  0  0  0
  -25.4104  -36.3122   24.0341 C   0  0  1  0  0  0
  -20.5846  -28.3644   23.1341 C   0  0  2  0  0  0
  -20.6756  -26.9390   22.5421 C   0  0  0  0  0  0
  -19.5739  -26.6380   21.5210 C   0  0  0  0  0  0
  -18.1914  -26.7924   22.1613 C   0  0  0  0  0  0
  -19.1509  -28.8826   23.2911 C   0  0  0  0  0  0
  -18.9441  -30.1440   23.8911 C   0  0  0  0  0  0
  -17.6445  -30.6584   24.0562 C   0  0  0  0  0  0
  -25.9025  -34.9484   23.5137 C   0  0  0  0  0  0
  -16.5336  -29.9082   23.6330 C   0  0  0  0  0  0
  -16.7252  -28.6498   23.0348 C   0  0  0  0  0  0
  -26.4458  -31.6609   25.0722 C   0  0  0  0  0  0
  -25.3744  -31.3719   26.1489 C   0  0  0  0  0  0
  -27.0274  -30.3058   24.6055 C   0  0  0  0  0  0
  -27.6052  -32.4316   25.7471 C   0  0  0  0  0  0
  -27.5591  -37.1807   24.8455 C   0  0  0  0  0  0
  -21.4111  -29.3018   22.3761 N   0  0  0  0  0  0
  -26.4296  -37.3800   23.9410 N   0  0  0  0  0  0
  -24.6550  -31.0868   22.1019 N   0  0  0  0  0  0
  -23.4168  -28.8215   23.3058 O   0  0  0  0  0  0
  -28.4401  -26.8352   20.0547 O   0  0  0  0  0  0
  -26.5567  -34.8926   22.4688 O   0  0  0  0  0  0
  -23.5287  -32.1446   23.7577 O   0  0  0  0  0  0
  -28.3315  -22.3525   16.3197 C   0  0  0  0  0  0
  -30.0302  -21.0781   18.1478 C   0  0  0  0  0  0
  -29.0646  -23.1372   17.2404 C   0  0  0  0  0  0
  -29.9166  -22.4773   18.1552 C   0  0  0  0  0  0
  -28.4163  -20.9432   16.3248 C   0  0  0  0  0  0
  -29.2647  -20.2995   17.2586 C   0  0  0  0  0  0
  -28.8976  -24.6102   17.3238 C   0  0  0  0  0  0
  -29.2741  -25.2560   18.4553 C   0  0  0  0  0  0
  -30.6955  -23.2754   19.1781 C   0  0  0  0  0  0
  -29.9276  -24.5228   19.6192 C   0  0  0  0  0  0
  -28.7131  -17.4863   20.9883 C   0  0  0  0  0  0
  -29.4810  -16.3042   21.5913 C   0  0  0  0  0  0
  -29.7370  -16.2513   19.2042 C   0  0  0  0  0  0
  -29.3944  -17.6758   19.6371 C   0  0  1  0  0  0
  -27.5793  -20.1568   15.3289 C   0  0  0  0  0  0
  -28.2724  -25.2957   16.1121 C   0  0  0  0  0  0
  -29.3403  -18.7894   17.4077 C   0  0  0  0  0  0
  -29.0229  -26.7198   18.7615 C   0  0  0  0  0  0
  -29.8656  -15.4802   20.4451 N   0  0  0  0  0  0
  -28.6018  -18.4113   18.6284 N   0  3  0  0  0  0
  -31.4688  -12.3503   19.1120 H   0  0  0  0  0  0
  -30.3144  -11.2489   19.8086 H   0  0  0  0  0  0
  -29.7302  -11.7528   17.4173 H   0  0  0  0  0  0
  -29.6806  -13.4583   17.7642 H   0  0  0  0  0  0
  -27.8007  -11.3035   18.7839 H   0  0  0  0  0  0
  -27.3753  -12.6580   17.7762 H   0  0  0  0  0  0
  -27.6908  -14.2337   19.5789 H   0  0  0  0  0  0
  -28.6727  -11.9405   21.3528 H   0  0  0  0  0  0
  -28.4934  -13.5938   21.8548 H   0  0  0  0  0  0
  -25.2767   -9.5652   22.4767 H   0  0  0  0  0  0
  -24.0000   -7.4615   22.7459 H   0  0  0  0  0  0
  -21.0835   -8.8789   19.8942 H   0  0  0  0  0  0
  -22.3714  -10.9680   19.6172 H   0  0  0  0  0  0
  -21.2049   -7.6168   23.9743 H   0  0  0  0  0  0
  -21.1408   -6.0523   25.9081 H   0  0  0  0  0  0
  -22.0630   -2.7635   23.2833 H   0  0  0  0  0  0
  -22.4037  -11.9933   22.4862 H   0  0  0  0  0  0
  -21.1083  -13.1300   22.2552 H   0  0  0  0  0  0
  -24.6460  -15.8224   20.4364 H   0  0  0  0  0  0
  -26.2730  -15.5974   20.0258 H   0  0  0  0  0  0
  -26.7072  -32.5589   23.1202 H   0  0  0  0  0  0
  -25.0108  -33.9822   25.0542 H   0  0  0  0  0  0
  -22.6782  -31.3060   21.4132 H   0  0  0  0  0  0
  -23.3743  -35.9668   23.3313 H   0  0  0  0  0  0
  -24.3589  -36.8909   22.2044 H   0  0  0  0  0  0
  -23.7252  -37.6543   23.6624 H   0  0  0  0  0  0
  -26.0117  -31.6177   20.5876 H   0  0  0  0  0  0
  -26.8054  -30.9162   21.9705 H   0  0  0  0  0  0
  -28.0886  -29.1667   21.1700 H   0  0  0  0  0  0
  -26.1247  -25.9986   19.0089 H   0  0  0  0  0  0
  -23.9954  -27.2762   19.0490 H   0  0  0  0  0  0
  -23.7013  -30.5874   19.4025 H   0  0  0  0  0  0
  -22.7280  -29.2286   19.8799 H   0  0  0  0  0  0
  -25.1278  -36.1999   25.0834 H   0  0  0  0  0  0
  -20.9929  -28.3202   24.1464 H   0  0  0  0  0  0
  -20.5668  -26.2246   23.3593 H   0  0  0  0  0  0
  -21.6631  -26.7454   22.1213 H   0  0  0  0  0  0
  -19.6904  -25.6293   21.1234 H   0  0  0  0  0  0
  -19.6693  -27.3194   20.6744 H   0  0  0  0  0  0
  -17.4194  -26.6682   21.4003 H   0  0  0  0  0  0
  -18.0306  -26.0057   22.8996 H   0  0  0  0  0  0
  -19.7920  -30.7252   24.2283 H   0  0  0  0  0  0
  -17.5003  -31.6269   24.5153 H   0  0  0  0  0  0
  -15.5338  -30.2986   23.7655 H   0  0  0  0  0  0
  -15.8650  -28.0824   22.7056 H   0  0  0  0  0  0
  -24.5898  -30.7081   25.7840 H   0  0  0  0  0  0
  -24.8958  -32.2884   26.4953 H   0  0  0  0  0  0
  -25.8112  -30.8882   27.0232 H   0  0  0  0  0  0
  -26.2801  -29.6834   24.1119 H   0  0  0  0  0  0
  -27.4075  -29.7279   25.4489 H   0  0  0  0  0  0
  -27.8622  -30.4390   23.9167 H   0  0  0  0  0  0
  -27.2681  -33.3589   26.2115 H   0  0  0  0  0  0
  -28.3826  -32.6919   25.0275 H   0  0  0  0  0  0
  -28.0762  -31.8400   26.5331 H   0  0  0  0  0  0
  -28.2601  -38.0113   24.7527 H   0  0  0  0  0  0
  -28.1096  -36.2649   24.6247 H   0  0  0  0  0  0
  -27.2316  -37.1420   25.8859 H   0  0  0  0  0  0
  -20.9266  -29.8733   21.6983 H   0  0  0  0  0  0
  -26.0193  -38.2882   24.1418 H   0  0  0  0  0  0
  -27.6624  -22.8270   15.6171 H   0  0  0  0  0  0
  -30.6846  -20.5984   18.8636 H   0  0  0  0  0  0
  -31.6436  -23.5699   18.7254 H   0  0  0  0  0  0
  -30.9380  -22.6608   20.0463 H   0  0  0  0  0  0
  -29.1308  -24.2409   20.3091 H   0  0  0  0  0  0
  -30.5952  -25.1886   20.1698 H   0  0  0  0  0  0
  -28.7540  -18.3776   21.6142 H   0  0  0  0  0  0
  -27.6639  -17.2134   20.8581 H   0  0  0  0  0  0
  -30.3810  -16.6532   22.1015 H   0  0  0  0  0  0
  -28.8776  -15.7645   22.3212 H   0  0  0  0  0  0
  -30.6448  -16.2375   18.5989 H   0  0  0  0  0  0
  -28.9451  -15.8139   18.5974 H   0  0  0  0  0  0
  -30.3233  -18.2211   19.8183 H   0  0  0  0  0  0
  -26.9045  -20.8039   14.7675 H   0  0  0  0  0  0
  -26.9661  -19.4087   15.8311 H   0  0  0  0  0  0
  -28.2252  -19.6544   14.6080 H   0  0  0  0  0  0
  -28.7721  -24.9577   15.2032 H   0  0  0  0  0  0
  -28.3612  -26.3788   16.1138 H   0  0  0  0  0  0
  -27.2131  -25.0473   16.0352 H   0  0  0  0  0  0
  -30.3911  -18.4990   17.4608 H   0  0  0  0  0  0
  -28.9307  -18.2602   16.5472 H   0  0  0  0  0  0
  -28.4302  -27.2270   18.0038 H   0  0  0  0  0  0
  -29.9849  -27.2328   18.7837 H   0  0  0  0  0  0
  -28.2848  -19.2735   19.0385 H   0  0  0  0  0  0
  -27.7822  -17.8890   18.3661 H   0  0  0  0  0  0
  1 25  1  0  0  0
  1 30  2  0  0  0
  1 89  1  0  0  0
  2  3  1  0  0  0
  2 25  1  0  0  0
  2 91  1  0  0  0
  2 92  1  0  0  0
  3  4  1  0  0  0
  3 93  1  0  0  0
  3 94  1  0  0  0
  4  5  1  0  0  0
  4 95  1  0  0  0
  4 96  1  0  0  0
  5  6  1  0  0  0
  5 26  1  0  0  0
  5 97  1  0  0  0
  6 25  1  0  0  0
  6 98  1  0  0  0
  6 99  1  0  0  0
  7  8  2  0  0  0
  7 26  1  0  0  0
  7 29  1  0  0  0
  8  9  1  0  0  0
  8 22  1  0  0  0
  9 10  1  0  0  0
  9 27  2  0  0  0
 10 11  2  0  0  0
 10 15  1  0  0  0
 11 12  1  0  0  0
 11100  1  0  0  0
 12 13  2  0  0  0
 12101  1  0  0  0
 13 14  1  0  0  0
 13 31  1  0  0  0
 14 15  2  0  0  0
 14102  1  0  0  0
 15103  1  0  0  0
 16 17  2  0  0  0
 16 21  1  0  0  0
 16 31  1  0  0  0
 17 18  1  0  0  0
 17104  1  0  0  0
 18 19  2  0  0  0
 18105  1  0  0  0
 19 20  1  0  0  0
 19 24  1  0  0  0
 20 21  2  0  0  0
 20106  1  0  0  0
 21 23  1  0  0  0
 22 28  1  0  0  0
 22 32  2  0  0  0
 26 27  1  0  0  0
 28107  1  0  0  0
 28108  1  0  0  0
 29109  1  0  0  0
 29110  1  0  0  0
 33 34  1  0  0  0
 33 66  1  0  0  0
 33 70  2  0  0  0
 34 36  1  0  0  0
 34 59  1  0  0  0
 34111  1  0  0  0
 35 44  2  0  0  0
 35 45  1  0  0  0
 35 68  1  0  0  0
 36 56  1  0  0  0
 36112  1  0  0  0
 37 39  1  0  0  0
 37 47  1  0  0  0
 37 66  1  0  0  0
 37113  1  0  0  0
 38 43  2  0  0  0
 38 46  1  0  0  0
 38 47  1  0  0  0
 39 64  1  0  0  0
 39 67  2  0  0  0
 40 52  1  0  0  0
 40 53  2  0  0  0
 40 58  1  0  0  0
 41114  1  0  0  0
 41115  1  0  0  0
 41116  1  0  0  0
 41 48  1  0  0  0
 42 43  1  0  0  0
 42 66  1  0  0  0
 42117  1  0  0  0
 42118  1  0  0  0
 43 44  1  0  0  0
 44119  1  0  0  0
 45 46  2  0  0  0
 45120  1  0  0  0
 46121  1  0  0  0
 47122  1  0  0  0
 47123  1  0  0  0
 48 56  1  0  0  0
 48 65  1  0  0  0
 48124  1  0  0  0
 49 50  1  0  0  0
 49 53  1  0  0  0
 49 64  1  0  0  0
 49125  1  0  0  0
 50 51  1  0  0  0
 50126  1  0  0  0
 50127  1  0  0  0
 51 52  1  0  0  0
 51128  1  0  0  0
 51129  1  0  0  0
 52130  1  0  0  0
 52131  1  0  0  0
 53 54  1  0  0  0
 54 55  2  0  0  0
 54132  1  0  0  0
 55 57  1  0  0  0
 55133  1  0  0  0
 56 69  2  0  0  0
 57 58  2  0  0  0
 57134  1  0  0  0
 58135  1  0  0  0
 59 60  1  0  0  0
 59 61  1  0  0  0
 59 62  1  0  0  0
 60136  1  0  0  0
 60137  1  0  0  0
 60138  1  0  0  0
 61139  1  0  0  0
 61140  1  0  0  0
 61141  1  0  0  0
 62142  1  0  0  0
 62143  1  0  0  0
 62144  1  0  0  0
 63 65  1  0  0  0
 63145  1  0  0  0
 63146  1  0  0  0
 63147  1  0  0  0
 64148  1  0  0  0
 65149  1  0  0  0
 68 88  1  0  0  0
 71 73  2  0  0  0
 71 75  1  0  0  0
 71150  1  0  0  0
 72 74  2  0  0  0
 72 76  1  0  0  0
 72151  1  0  0  0
 73 74  1  0  0  0
 73 77  1  0  0  0
 74 79  1  0  0  0
 75 76  2  0  0  0
 75 85  1  0  0  0
 76 87  1  0  0  0
 77 78  2  0  0  0
 77 86  1  0  0  0
 78 80  1  0  0  0
 78 88  1  0  0  0
 79 80  1  0  0  0
 79152  1  0  0  0
 79153  1  0  0  0
 80154  1  0  0  0
 80155  1  0  0  0
 81 82  1  0  0  0
 81 84  1  0  0  0
 81156  1  0  0  0
 81157  1  0  0  0
 82 89  1  0  0  0
 82158  1  0  0  0
 82159  1  0  0  0
 83 84  1  0  0  0
 83 89  1  0  0  0
 83160  1  0  0  0
 83161  1  0  0  0
 84 90  1  0  0  0
 84162  1  0  0  0
 85163  1  0  0  0
 85164  1  0  0  0
 85165  1  0  0  0
 86166  1  0  0  0
 86167  1  0  0  0
 86168  1  0  0  0
 87 90  1  0  0  0
 87169  1  0  0  0
 87170  1  0  0  0
 88171  1  0  0  0
 88172  1  0  0  0
 90173  1  0  0  0
 90174  1  0  0  0
M  CHG  1  90   1
M  ISO  4   1 100  68 101  88 101  89 100
M  END
> <chiral flag>
0

> <version>
0

> <s_m_source_file>
/data/baiqing/PycharmProjects/Reinvent-master-3.2/result/LINK_invent/BTK/process_docking_weight1_custom_sum_contain_oxygen_bond_distance_aromatic_linkinvent_7_9_3/rearranged_h_0166.sdf

> <i_m_source_file_index>
40

> <r_mmod_Potential_Energy-OPLS-2005>
21.1066761016846

> <r_mmod_Stretch_Energy-OPLS-2005>
32.5428428649902

> <r_mmod_Bend_Energy-OPLS-2005>
119.685531616211

> <r_mmod_Torsional_Energy-OPLS-2005>
378.780151367188

> <r_mmod_Improper_Torsional_Energy-OPLS-2005>
20.2683525085449

> <r_mmod_Van_der_Waal_Energy-OPLS-2005>
159.530319213867

> <r_mmod_Electrostatic_Energy-OPLS-2005>
-255.879119873047

> <r_mmod_Solvation_Energy-OPLS-2005>
-447.575775146484

> <b_mmod_Minimization_Converged-OPLS-2005>
0

> <r_mmod_RMS_Derivative-OPLS-2005>
2.37293720245361

$$$$
40
                    3D
 Structure written by MMmdl.
180190  0  0  1  0            999 V2000
  -30.9329  -14.2755   20.0824 C   0  0  0  0  0  0
  -30.3135  -12.0699   19.3709 C   0  0  0  0  0  0
  -29.3897  -12.2623   18.1522 C   0  0  0  0  0  0
  -27.9380  -12.2933   18.6280 C   0  0  0  0  0  0
  -27.6724  -13.2171   19.8524 C   0  0  2  0  0  0
  -28.7954  -13.1398   20.9385 C   0  0  0  0  0  0
  -25.2686  -13.8262   20.5838 C   0  0  0  0  0  0
  -24.1909  -13.0515   20.9272 C   0  0  0  0  0  0
  -24.6463  -11.6992   20.8885 C   0  0  0  0  0  0
  -23.9112  -10.4343   21.0446 C   0  0  0  0  0  0
  -24.3648   -9.4216   21.9198 C   0  0  0  0  0  0
  -23.6307   -8.2253   22.0737 C   0  0  0  0  0  0
  -22.4294   -8.0306   21.3534 C   0  0  0  0  0  0
  -21.9953   -9.0302   20.4635 C   0  0  0  0  0  0
  -22.7286  -10.2185   20.3076 C   0  0  0  0  0  0
  -21.6861   -6.0764   22.5267 C   0  0  0  0  0  0
  -21.4026   -6.5654   23.8210 C   0  0  0  0  0  0
  -21.3666   -5.6793   24.9164 C   0  0  0  0  0  0
  -21.6047   -4.3058   24.7209 C   0  0  0  0  0  0
  -21.8831   -3.8169   23.4321 C   0  0  0  0  0  0
  -21.9202   -4.6993   22.3387 C   0  0  0  0  0  0
  -22.7892  -13.5280   21.1841 C   0  0  0  0  0  0
  -22.1663   -4.2175   21.0965 F   0  0  0  0  0  0
  -21.5630   -3.4534   25.7714 F   0  0  0  0  0  0
  -30.1088  -13.2096   20.2607 N   0  0  0  0  0  0
  -26.3224  -12.9484   20.3688 N   0  0  0  0  0  0
  -25.9457  -11.6637   20.6157 N   0  0  0  0  0  0
  -22.0524  -12.8274   22.0375 N   0  0  0  0  0  0
  -25.4349  -15.1952   20.4105 N   0  0  0  0  0  0
  -31.6082  -14.8464   20.9082 O   0  0  0  0  0  0
  -21.6638   -6.8913   21.4227 O   0  0  0  0  0  0
  -22.3573  -14.5574   20.6659 O   0  0  0  0  0  0
  -24.6081  -31.8716   23.2138 C   0  0  0  0  0  0
  -25.9002  -32.4836   23.8408 C   0  0  1  0  0  0
  -27.2359  -27.4980   20.0703 C   0  0  0  0  0  0
  -25.5873  -33.8634   24.2331 N   0  0  0  0  0  0
  -23.3922  -30.4974   21.5520 C   0  0  2  0  0  0
  -24.8374  -28.9649   20.1192 C   0  0  0  0  0  0
  -22.7367  -29.4681   22.4994 C   0  0  0  0  0  0
  -18.0266  -28.1383   22.8496 C   0  0  0  0  0  0
  -24.1474  -36.7338   23.2627 C   0  0  0  0  0  0
  -25.9140  -30.8534   21.3586 C   0  0  0  0  0  0
  -25.9910  -29.4875   20.7162 C   0  0  0  0  0  0
  -27.1906  -28.7520   20.7061 C   0  0  0  0  0  0
  -26.0652  -26.9625   19.4919 C   0  0  0  0  0  0
  -24.8629  -27.6944   19.5145 C   0  0  0  0  0  0
  -23.6004  -29.8298   20.1658 C   0  0  0  0  0  0
  -25.4083  -36.3116   24.0331 C   0  0  1  0  0  0
  -20.5852  -28.3661   23.1335 C   0  0  2  0  0  0
  -20.6745  -26.9397   22.5434 C   0  0  0  0  0  0
  -19.5736  -26.6405   21.5212 C   0  0  0  0  0  0
  -18.1917  -26.7928   22.1630 C   0  0  0  0  0  0
  -19.1512  -28.8833   23.2917 C   0  0  0  0  0  0
  -18.9443  -30.1441   23.8937 C   0  0  0  0  0  0
  -17.6447  -30.6589   24.0582 C   0  0  0  0  0  0
  -25.9029  -34.9487   23.5130 C   0  0  0  0  0  0
  -16.5340  -29.9110   23.6311 C   0  0  0  0  0  0
  -16.7257  -28.6526   23.0324 C   0  0  0  0  0  0
  -26.4475  -31.6596   25.0707 C   0  0  0  0  0  0
  -25.3769  -31.3729   26.1486 C   0  0  0  0  0  0
  -27.0264  -30.3026   24.6058 C   0  0  0  0  0  0
  -27.6088  -32.4287   25.7440 C   0  0  0  0  0  0
  -27.5590  -37.1767   24.8429 C   0  0  0  0  0  0
  -21.4101  -29.3035   22.3736 N   0  0  0  0  0  0
  -26.4260  -37.3809   23.9443 N   0  0  0  0  0  0
  -24.6563  -31.0868   22.1015 N   0  0  0  0  0  0
  -23.4165  -28.8224   23.3012 O   0  0  0  0  0  0
  -28.4288  -26.8325   20.0286 O   0  0  0  0  0  0
  -26.5601  -34.8931   22.4699 O   0  0  0  0  0  0
  -23.5287  -32.1443   23.7564 O   0  0  0  0  0  0
  -28.4969  -24.2082   17.5856 C   0  0  0  0  0  0
  -29.0542  -24.9055   18.6754 C   0  0  0  0  0  0
  -28.6821  -22.8218   17.4534 C   0  0  0  0  0  0
  -29.7897  -24.2059   19.6669 C   0  0  0  0  0  0
  -29.9142  -22.7985   19.5733 C   0  0  0  0  0  0
  -29.4180  -22.1221   18.4332 C   0  0  0  0  0  0
  -32.0228  -15.2140   17.0424 C   0  0  0  0  0  0
  -30.8285  -19.8385   16.3609 C   0  0  0  0  0  0
  -32.5300  -14.3854   18.2044 C   0  0  0  0  0  0
  -30.6437  -18.3925   16.7841 C   0  0  0  0  0  0
  -30.9824  -20.5503   17.7006 C   0  0  2  0  0  0
  -31.0065  -15.7888   18.0240 C   0  0  2  0  0  0
  -31.7130  -19.5277   18.5961 C   0  0  2  0  0  0
  -28.0947  -22.1098   16.2488 C   0  0  0  0  0  0
  -30.4568  -24.9533   20.8196 C   0  0  0  0  0  0
  -30.5731  -22.0018   20.6911 C   0  0  0  0  0  0
  -33.1913  -19.8893   18.8269 C   0  0  0  0  0  0
  -28.8625  -26.4090   18.7403 C   0  0  0  0  0  0
  -31.3121  -17.0710   18.8164 C   0  0  0  0  0  0
  -31.1868  -14.5403   18.7835 N   0  0  0  0  0  0
  -31.5832  -18.2167   17.9139 N   0  3  1  0  0  0
  -29.6859  -20.7916   18.2523 O   0  0  0  0  0  0
  -31.3561  -11.9457   19.0699 H   0  0  0  0  0  0
  -30.0633  -11.1460   19.8943 H   0  0  0  0  0  0
  -29.5249  -11.4246   17.4657 H   0  0  0  0  0  0
  -29.5957  -13.1506   17.5590 H   0  0  0  0  0  0
  -27.6877  -11.2624   18.8820 H   0  0  0  0  0  0
  -27.2764  -12.5613   17.8032 H   0  0  0  0  0  0
  -27.6823  -14.2360   19.4635 H   0  0  0  0  0  0
  -28.7259  -12.2142   21.5096 H   0  0  0  0  0  0
  -28.6922  -13.9586   21.6525 H   0  0  0  0  0  0
  -25.2790   -9.5666   22.4784 H   0  0  0  0  0  0
  -24.0017   -7.4625   22.7443 H   0  0  0  0  0  0
  -21.0898   -8.8837   19.8934 H   0  0  0  0  0  0
  -22.3747  -10.9744   19.6203 H   0  0  0  0  0  0
  -21.2030   -7.6160   23.9718 H   0  0  0  0  0  0
  -21.1484   -6.0521   25.9068 H   0  0  0  0  0  0
  -22.0626   -2.7632   23.2802 H   0  0  0  0  0  0
  -22.4149  -11.9960   22.4803 H   0  0  0  0  0  0
  -21.1118  -13.1262   22.2561 H   0  0  0  0  0  0
  -24.6691  -15.8524   20.5168 H   0  0  0  0  0  0
  -26.3024  -15.6386   20.1342 H   0  0  0  0  0  0
  -26.7066  -32.5583   23.1176 H   0  0  0  0  0  0
  -24.9941  -33.9795   25.0416 H   0  0  0  0  0  0
  -22.6795  -31.3135   21.4141 H   0  0  0  0  0  0
  -23.3728  -35.9678   23.3246 H   0  0  0  0  0  0
  -24.3584  -36.8996   22.2052 H   0  0  0  0  0  0
  -23.7229  -37.6533   23.6664 H   0  0  0  0  0  0
  -26.0096  -31.6173   20.5853 H   0  0  0  0  0  0
  -26.8091  -30.9148   21.9661 H   0  0  0  0  0  0
  -28.0882  -29.1558   21.1534 H   0  0  0  0  0  0
  -26.0839  -25.9891   19.0214 H   0  0  0  0  0  0
  -23.9715  -27.2839   19.0605 H   0  0  0  0  0  0
  -23.7145  -30.6065   19.4093 H   0  0  0  0  0  0
  -22.7250  -29.2530   19.8629 H   0  0  0  0  0  0
  -25.1250  -36.1956   25.0818 H   0  0  0  0  0  0
  -20.9965  -28.3224   24.1445 H   0  0  0  0  0  0
  -20.5620  -26.2269   23.3620 H   0  0  0  0  0  0
  -21.6616  -26.7424   22.1238 H   0  0  0  0  0  0
  -19.6898  -25.6331   21.1206 H   0  0  0  0  0  0
  -19.6686  -27.3241   20.6763 H   0  0  0  0  0  0
  -17.4184  -26.6670   21.4039 H   0  0  0  0  0  0
  -18.0340  -26.0073   22.9035 H   0  0  0  0  0  0
  -19.7922  -30.7238   24.2327 H   0  0  0  0  0  0
  -17.5009  -31.6263   24.5211 H   0  0  0  0  0  0
  -15.5342  -30.3024   23.7620 H   0  0  0  0  0  0
  -15.8660  -28.0876   22.6986 H   0  0  0  0  0  0
  -24.5916  -30.7093   25.7852 H   0  0  0  0  0  0
  -24.8989  -32.2899   26.4941 H   0  0  0  0  0  0
  -25.8140  -30.8905   27.0236 H   0  0  0  0  0  0
  -26.2767  -29.6794   24.1168 H   0  0  0  0  0  0
  -27.4078  -29.7265   25.4501 H   0  0  0  0  0  0
  -27.8591  -30.4320   23.9141 H   0  0  0  0  0  0
  -27.2737  -33.3559   26.2103 H   0  0  0  0  0  0
  -28.3848  -32.6891   25.0227 H   0  0  0  0  0  0
  -28.0817  -31.8351   26.5277 H   0  0  0  0  0  0
  -28.2526  -38.0146   24.7594 H   0  0  0  0  0  0
  -28.1161  -36.2682   24.6071 H   0  0  0  0  0  0
  -27.2342  -37.1203   25.8834 H   0  0  0  0  0  0
  -20.9244  -29.8767   21.6981 H   0  0  0  0  0  0
  -26.0143  -38.2861   24.1556 H   0  0  0  0  0  0
  -27.9419  -24.7451   16.8276 H   0  0  0  0  0  0
  -31.5561  -14.6117   16.2599 H   0  0  0  0  0  0
  -32.7453  -15.9175   16.6293 H   0  0  0  0  0  0
  -30.0091  -20.2055   15.7481 H   0  0  0  0  0  0
  -31.7477  -19.9416   15.7825 H   0  0  0  0  0  0
  -33.3318  -14.8612   18.7745 H   0  0  0  0  0  0
  -32.7996  -13.3683   17.9170 H   0  0  0  0  0  0
  -30.8390  -17.7006   15.9645 H   0  0  0  0  0  0
  -29.6175  -18.2361   17.1223 H   0  0  0  0  0  0
  -31.5604  -21.4706   17.5836 H   0  0  0  0  0  0
  -30.0205  -15.8248   17.5571 H   0  0  0  0  0  0
  -31.2182  -19.4844   19.5659 H   0  0  0  0  0  0
  -27.1438  -22.5579   15.9595 H   0  0  0  0  0  0
  -27.9056  -21.0570   16.4590 H   0  0  0  0  0  0
  -28.7742  -22.1764   15.3982 H   0  0  0  0  0  0
  -30.7234  -25.9744   20.5526 H   0  0  0  0  0  0
  -31.3930  -24.4828   21.1181 H   0  0  0  0  0  0
  -29.7917  -24.9874   21.6828 H   0  0  0  0  0  0
  -30.4522  -22.4750   21.6645 H   0  0  0  0  0  0
  -31.6382  -21.8800   20.5032 H   0  0  0  0  0  0
  -30.1134  -21.0184   20.7856 H   0  0  0  0  0  0
  -33.7495  -19.9359   17.8914 H   0  0  0  0  0  0
  -33.6849  -19.1683   19.4786 H   0  0  0  0  0  0
  -33.2861  -20.8656   19.3016 H   0  0  0  0  0  0
  -28.1996  -26.7446   17.9402 H   0  0  0  0  0  0
  -29.8224  -26.8821   18.5323 H   0  0  0  0  0  0
  -32.1789  -16.9539   19.4695 H   0  0  0  0  0  0
  -30.4666  -17.3117   19.4635 H   0  0  0  0  0  0
  -32.4788  -18.0334   17.4848 H   0  0  0  0  0  0
  1 25  1  0  0  0
  1 30  2  0  0  0
  1 90  1  0  0  0
  2  3  1  0  0  0
  2 25  1  0  0  0
  2 93  1  0  0  0
  2 94  1  0  0  0
  3  4  1  0  0  0
  3 95  1  0  0  0
  3 96  1  0  0  0
  4  5  1  0  0  0
  4 97  1  0  0  0
  4 98  1  0  0  0
  5  6  1  0  0  0
  5 26  1  0  0  0
  5 99  1  0  0  0
  6 25  1  0  0  0
  6100  1  0  0  0
  6101  1  0  0  0
  7  8  2  0  0  0
  7 26  1  0  0  0
  7 29  1  0  0  0
  8  9  1  0  0  0
  8 22  1  0  0  0
  9 10  1  0  0  0
  9 27  2  0  0  0
 10 11  2  0  0  0
 10 15  1  0  0  0
 11 12  1  0  0  0
 11102  1  0  0  0
 12 13  2  0  0  0
 12103  1  0  0  0
 13 14  1  0  0  0
 13 31  1  0  0  0
 14 15  2  0  0  0
 14104  1  0  0  0
 15105  1  0  0  0
 16 17  2  0  0  0
 16 21  1  0  0  0
 16 31  1  0  0  0
 17 18  1  0  0  0
 17106  1  0  0  0
 18 19  2  0  0  0
 18107  1  0  0  0
 19 20  1  0  0  0
 19 24  1  0  0  0
 20 21  2  0  0  0
 20108  1  0  0  0
 21 23  1  0  0  0
 22 28  1  0  0  0
 22 32  2  0  0  0
 26 27  1  0  0  0
 28109  1  0  0  0
 28110  1  0  0  0
 29111  1  0  0  0
 29112  1  0  0  0
 33 34  1  0  0  0
 33 66  1  0  0  0
 33 70  2  0  0  0
 34 36  1  0  0  0
 34 59  1  0  0  0
 34113  1  0  0  0
 35 44  2  0  0  0
 35 45  1  0  0  0
 35 68  1  0  0  0
 36 56  1  0  0  0
 36114  1  0  0  0
 37 39  1  0  0  0
 37 47  1  0  0  0
 37 66  1  0  0  0
 37115  1  0  0  0
 38 43  2  0  0  0
 38 46  1  0  0  0
 38 47  1  0  0  0
 39 64  1  0  0  0
 39 67  2  0  0  0
 40 52  1  0  0  0
 40 53  2  0  0  0
 40 58  1  0  0  0
 41116  1  0  0  0
 41117  1  0  0  0
 41118  1  0  0  0
 41 48  1  0  0  0
 42 43  1  0  0  0
 42 66  1  0  0  0
 42119  1  0  0  0
 42120  1  0  0  0
 43 44  1  0  0  0
 44121  1  0  0  0
 45 46  2  0  0  0
 45122  1  0  0  0
 46123  1  0  0  0
 47124  1  0  0  0
 47125  1  0  0  0
 48 56  1  0  0  0
 48 65  1  0  0  0
 48126  1  0  0  0
 49 50  1  0  0  0
 49 53  1  0  0  0
 49 64  1  0  0  0
 49127  1  0  0  0
 50 51  1  0  0  0
 50128  1  0  0  0
 50129  1  0  0  0
 51 52  1  0  0  0
 51130  1  0  0  0
 51131  1  0  0  0
 52132  1  0  0  0
 52133  1  0  0  0
 53 54  1  0  0  0
 54 55  2  0  0  0
 54134  1  0  0  0
 55 57  1  0  0  0
 55135  1  0  0  0
 56 69  2  0  0  0
 57 58  2  0  0  0
 57136  1  0  0  0
 58137  1  0  0  0
 59 60  1  0  0  0
 59 61  1  0  0  0
 59 62  1  0  0  0
 60138  1  0  0  0
 60139  1  0  0  0
 60140  1  0  0  0
 61141  1  0  0  0
 61142  1  0  0  0
 61143  1  0  0  0
 62144  1  0  0  0
 62145  1  0  0  0
 62146  1  0  0  0
 63 65  1  0  0  0
 63147  1  0  0  0
 63148  1  0  0  0
 63149  1  0  0  0
 64150  1  0  0  0
 65151  1  0  0  0
 68 88  1  0  0  0
 71 72  2  0  0  0
 71 73  1  0  0  0
 71152  1  0  0  0
 72 74  1  0  0  0
 72 88  1  0  0  0
 73 76  2  0  0  0
 73 84  1  0  0  0
 74 75  2  0  0  0
 74 85  1  0  0  0
 75 76  1  0  0  0
 75 86  1  0  0  0
 76 92  1  0  0  0
 77 79  1  0  0  0
 77 82  1  0  0  0
 77153  1  0  0  0
 77154  1  0  0  0
 78 80  1  0  0  0
 78 81  1  0  0  0
 78155  1  0  0  0
 78156  1  0  0  0
 79 90  1  0  0  0
 79157  1  0  0  0
 79158  1  0  0  0
 80 91  1  0  0  0
 80159  1  0  0  0
 80160  1  0  0  0
 81 83  1  0  0  0
 81 92  1  0  0  0
 81161  1  0  0  0
 82 89  1  0  0  0
 82 90  1  0  0  0
 82162  1  0  0  0
 83 87  1  0  0  0
 83 91  1  0  0  0
 83163  1  0  0  0
 84164  1  0  0  0
 84165  1  0  0  0
 84166  1  0  0  0
 85167  1  0  0  0
 85168  1  0  0  0
 85169  1  0  0  0
 86170  1  0  0  0
 86171  1  0  0  0
 86172  1  0  0  0
 87173  1  0  0  0
 87174  1  0  0  0
 87175  1  0  0  0
 88176  1  0  0  0
 88177  1  0  0  0
 89178  1  0  0  0
 89179  1  0  0  0
 89 91  1  0  0  0
 91180  1  0  0  0
M  CHG  1  91   1
M  ISO  4   1 100  68 101  88 101  90 100
M  END
> <chiral flag>
0

> <version>
0

> <s_m_source_file>
/data/baiqing/PycharmProjects/Reinvent-master-3.2/result/LINK_invent/BTK/process_docking_weight1_custom_sum_contain_oxygen_bond_distance_aromatic_linkinvent_7_9_3/rearranged_h_0166.sdf

> <i_m_source_file_index>
41

> <r_mmod_Potential_Energy-OPLS-2005>
309.806762695312

> <r_mmod_Stretch_Energy-OPLS-2005>
38.1474990844727

> <r_mmod_Bend_Energy-OPLS-2005>
141.406021118164

> <r_mmod_Torsional_Energy-OPLS-2005>
463.161407470703

> <r_mmod_Improper_Torsional_Energy-OPLS-2005>
11.9337482452393

> <r_mmod_Van_der_Waal_Energy-OPLS-2005>
171.86506652832

> <r_mmod_Electrostatic_Energy-OPLS-2005>
-260.063690185547

> <r_mmod_Solvation_Energy-OPLS-2005>
-405.155151367188

> <b_mmod_Minimization_Converged-OPLS-2005>
0

> <r_mmod_RMS_Derivative-OPLS-2005>
2.5772819519043

$$$$
41
                    3D
 Structure written by MMmdl.
172182  0  0  1  0            999 V2000
  -30.7055  -14.7275   20.4666 C   0  0  0  0  0  0
  -30.4106  -12.4576   19.4684 C   0  0  0  0  0  0
  -29.4947  -12.4921   18.2303 C   0  0  0  0  0  0
  -28.0298  -12.2943   18.6564 C   0  0  0  0  0  0
  -27.6265  -13.2116   19.8389 C   0  0  2  0  0  0
  -28.6808  -13.2311   20.9718 C   0  0  0  0  0  0
  -25.2495  -13.8125   20.5733 C   0  0  0  0  0  0
  -24.1777  -13.0393   20.9241 C   0  0  0  0  0  0
  -24.6354  -11.6869   20.8789 C   0  0  0  0  0  0
  -23.9035  -10.4267   21.0438 C   0  0  0  0  0  0
  -24.3599   -9.4178   21.9201 C   0  0  0  0  0  0
  -23.6281   -8.2213   22.0760 C   0  0  0  0  0  0
  -22.4263   -8.0265   21.3549 C   0  0  0  0  0  0
  -21.9895   -9.0236   20.4649 C   0  0  0  0  0  0
  -22.7221  -10.2115   20.3070 C   0  0  0  0  0  0
  -21.6848   -6.0725   22.5281 C   0  0  0  0  0  0
  -21.4002   -6.5629   23.8210 C   0  0  0  0  0  0
  -21.3658   -5.6787   24.9176 C   0  0  0  0  0  0
  -21.6048   -4.3052   24.7231 C   0  0  0  0  0  0
  -21.8824   -3.8140   23.4354 C   0  0  0  0  0  0
  -21.9192   -4.6954   22.3407 C   0  0  0  0  0  0
  -22.7809  -13.5198   21.1890 C   0  0  0  0  0  0
  -22.1666   -4.2138   21.0986 F   0  0  0  0  0  0
  -21.5633   -3.4537   25.7745 F   0  0  0  0  0  0
  -29.9809  -13.5557   20.3713 N   0  0  0  0  0  0
  -26.2875  -12.9274   20.3313 N   0  0  0  0  0  0
  -25.9272  -11.6445   20.5799 N   0  0  0  0  0  0
  -22.0451  -12.8184   22.0439 N   0  0  0  0  0  0
  -25.4206  -15.1851   20.4140 N   0  0  0  0  0  0
  -31.9039  -14.6960   20.1760 O   0  0  0  0  0  0
  -21.6629   -6.8865   21.4244 O   0  0  0  0  0  0
  -22.3505  -14.5514   20.6743 O   0  0  0  0  0  0
  -24.6278  -31.8572   23.2012 C   0  0  0  0  0  0
  -25.9120  -32.4762   23.8341 C   0  0  1  0  0  0
  -27.2156  -27.2790   20.1282 C   0  0  0  0  0  0
  -25.5935  -33.8568   24.2264 N   0  0  0  0  0  0
  -23.4237  -30.4797   21.5435 C   0  0  2  0  0  0
  -24.8703  -28.9315   20.1053 C   0  0  0  0  0  0
  -22.7482  -29.4606   22.4920 C   0  0  0  0  0  0
  -18.0292  -28.1385   22.8492 C   0  0  0  0  0  0
  -24.1495  -36.7288   23.2639 C   0  0  0  0  0  0
  -25.9669  -30.7710   21.3827 C   0  0  0  0  0  0
  -26.0363  -29.3957   20.7257 C   0  0  0  0  0  0
  -27.2067  -28.5762   20.7360 C   0  0  0  0  0  0
  -26.0435  -26.8991   19.4388 C   0  0  0  0  0  0
  -24.8784  -27.6903   19.4514 C   0  0  0  0  0  0
  -23.6398  -29.8152   20.1580 C   0  0  0  0  0  0
  -25.4123  -36.3075   24.0324 C   0  0  1  0  0  0
  -20.5890  -28.3694   23.1277 C   0  0  2  0  0  0
  -20.6782  -26.9415   22.5409 C   0  0  0  0  0  0
  -19.5754  -26.6383   21.5216 C   0  0  0  0  0  0
  -18.1933  -26.7931   22.1626 C   0  0  0  0  0  0
  -19.1541  -28.8857   23.2881 C   0  0  0  0  0  0
  -18.9466  -30.1465   23.8888 C   0  0  0  0  0  0
  -17.6463  -30.6589   24.0563 C   0  0  0  0  0  0
  -25.9059  -34.9443   23.5093 C   0  0  0  0  0  0
  -16.5359  -29.9084   23.6330 C   0  0  0  0  0  0
  -16.7278  -28.6501   23.0353 C   0  0  0  0  0  0
  -26.4492  -31.6587   25.0725 C   0  0  0  0  0  0
  -25.3719  -31.3736   26.1446 C   0  0  0  0  0  0
  -27.0348  -30.3009   24.6211 C   0  0  0  0  0  0
  -27.6041  -32.4344   25.7493 C   0  0  0  0  0  0
  -27.5584  -37.1801   24.8465 C   0  0  0  0  0  0
  -21.4192  -29.3044   22.3664 N   0  0  0  0  0  0
  -26.4299  -37.3772   23.9403 N   0  0  0  0  0  0
  -24.6914  -31.0545   22.0982 N   0  0  0  0  0  0
  -23.4196  -28.8154   23.3016 O   0  0  0  0  0  0
  -28.3125  -26.4008   20.2486 O   0  0  0  0  0  0
  -26.5627  -34.8915   22.4659 O   0  0  0  0  0  0
  -23.5437  -32.1391   23.7317 O   0  0  0  0  0  0
  -31.4407  -19.7563   19.0298 C   0  0  0  0  0  0
  -31.6089  -21.6188   17.5238 C   0  0  0  0  0  0
  -30.2834  -20.2845   19.6532 C   0  0  0  0  0  0
  -32.1294  -20.4211   18.0114 C   0  0  0  0  0  0
  -30.4870  -22.2119   18.1303 C   0  0  0  0  0  0
  -29.9005  -21.6715   19.3263 C   0  0  0  0  0  0
  -29.0126  -18.0046   19.6081 C   0  0  0  0  0  0
  -30.3715  -18.4731   21.6324 C   0  0  0  0  0  0
  -27.1458  -24.0080   20.3478 C   0  0  0  0  0  0
  -28.9016  -16.5493   20.2163 C   0  0  0  0  0  0
  -31.0127  -17.0507   21.3438 C   0  0  0  0  0  0
  -27.6302  -22.5757   19.9626 C   0  0  0  0  0  0
  -29.4533  -24.0153   20.2831 C   0  0  0  0  0  0
  -29.5413  -19.1805   20.5068 C   0  0  0  0  0  0
  -28.2572  -24.9586   19.8416 C   0  0  2  0  0  0
  -33.3565  -19.8017   17.3748 C   0  0  0  0  0  0
  -29.9107  -23.3967   17.3640 C   0  0  0  0  0  0
  -29.0819  -22.5658   20.1168 N   0  0  0  0  0  0
  -30.1361  -15.9627   20.8038 N   0  0  0  0  0  0
  -31.4523  -12.5432   19.1555 H   0  0  0  0  0  0
  -30.3363  -11.4952   19.9779 H   0  0  0  0  0  0
  -29.7848  -11.7157   17.5208 H   0  0  0  0  0  0
  -29.6070  -13.4444   17.7087 H   0  0  0  0  0  0
  -27.9076  -11.2485   18.9411 H   0  0  0  0  0  0
  -27.3636  -12.4557   17.8089 H   0  0  0  0  0  0
  -27.5664  -14.1948   19.3953 H   0  0  0  0  0  0
  -28.7266  -12.2666   21.4785 H   0  0  0  0  0  0
  -28.4123  -13.9686   21.7304 H   0  0  0  0  0  0
  -25.2744   -9.5649   22.4770 H   0  0  0  0  0  0
  -23.9998   -7.4595   22.7460 H   0  0  0  0  0  0
  -21.0838   -8.8752   19.8945 H   0  0  0  0  0  0
  -22.3691  -10.9659   19.6181 H   0  0  0  0  0  0
  -21.1988   -7.6132   23.9709 H   0  0  0  0  0  0
  -21.1480   -6.0517   25.9075 H   0  0  0  0  0  0
  -22.0608   -2.7602   23.2858 H   0  0  0  0  0  0
  -22.4072  -11.9845   22.4825 H   0  0  0  0  0  0
  -21.1071  -13.1210   22.2648 H   0  0  0  0  0  0
  -24.6553  -15.8397   20.5325 H   0  0  0  0  0  0
  -26.2752  -15.6265   20.1016 H   0  0  0  0  0  0
  -26.7181  -32.5407   23.1076 H   0  0  0  0  0  0
  -25.0085  -33.9716   25.0412 H   0  0  0  0  0  0
  -22.7203  -31.3021   21.3999 H   0  0  0  0  0  0
  -23.3761  -35.9617   23.3298 H   0  0  0  0  0  0
  -24.3585  -36.8913   22.2054 H   0  0  0  0  0  0
  -23.7247  -37.6487   23.6667 H   0  0  0  0  0  0
  -26.1078  -31.5314   20.6135 H   0  0  0  0  0  0
  -26.8450  -30.8178   22.0149 H   0  0  0  0  0  0
  -28.0922  -28.9169   21.2539 H   0  0  0  0  0  0
  -25.9990  -25.9777   18.8829 H   0  0  0  0  0  0
  -23.9919  -27.3390   18.9405 H   0  0  0  0  0  0
  -23.7626  -30.5927   19.4035 H   0  0  0  0  0  0
  -22.7586  -29.2479   19.8529 H   0  0  0  0  0  0
  -25.1308  -36.1920   25.0818 H   0  0  0  0  0  0
  -20.9989  -28.3275   24.1393 H   0  0  0  0  0  0
  -20.5690  -26.2309   23.3614 H   0  0  0  0  0  0
  -21.6651  -26.7444   22.1196 H   0  0  0  0  0  0
  -19.6915  -25.6291   21.1253 H   0  0  0  0  0  0
  -19.6689  -27.3186   20.6740 H   0  0  0  0  0  0
  -17.4208  -26.6688   21.4024 H   0  0  0  0  0  0
  -18.0325  -26.0070   22.9018 H   0  0  0  0  0  0
  -19.7944  -30.7290   24.2242 H   0  0  0  0  0  0
  -17.5018  -31.6259   24.5180 H   0  0  0  0  0  0
  -15.5359  -30.2982   23.7656 H   0  0  0  0  0  0
  -15.8683  -28.0818   22.7065 H   0  0  0  0  0  0
  -24.5885  -30.7096   25.7768 H   0  0  0  0  0  0
  -24.8920  -32.2909   26.4869 H   0  0  0  0  0  0
  -25.8032  -30.8905   27.0222 H   0  0  0  0  0  0
  -26.2928  -29.6751   24.1235 H   0  0  0  0  0  0
  -27.4032  -29.7277   25.4729 H   0  0  0  0  0  0
  -27.8807  -30.4290   23.9454 H   0  0  0  0  0  0
  -27.2631  -33.3646   26.2052 H   0  0  0  0  0  0
  -28.3848  -32.6909   25.0320 H   0  0  0  0  0  0
  -28.0711  -31.8491   26.5422 H   0  0  0  0  0  0
  -28.2598  -38.0101   24.7515 H   0  0  0  0  0  0
  -28.1086  -36.2632   24.6292 H   0  0  0  0  0  0
  -27.2300  -37.1447   25.8867 H   0  0  0  0  0  0
  -20.9378  -29.8774   21.6869 H   0  0  0  0  0  0
  -26.0179  -38.2845   24.1404 H   0  0  0  0  0  0
  -31.7859  -18.7706   19.2932 H   0  0  0  0  0  0
  -32.0675  -22.0808   16.6604 H   0  0  0  0  0  0
  -28.0519  -18.2989   19.1844 H   0  0  0  0  0  0
  -29.6635  -17.8989   18.7407 H   0  0  0  0  0  0
  -31.1289  -19.1589   22.0160 H   0  0  0  0  0  0
  -29.6896  -18.3257   22.4717 H   0  0  0  0  0  0
  -27.0598  -24.0878   21.4327 H   0  0  0  0  0  0
  -26.1562  -24.1928   19.9377 H   0  0  0  0  0  0
  -28.5946  -15.9310   19.3808 H   0  0  0  0  0  0
  -28.1104  -16.5131   20.9655 H   0  0  0  0  0  0
  -31.4412  -16.6835   22.2778 H   0  0  0  0  0  0
  -31.8675  -17.1760   20.6810 H   0  0  0  0  0  0
  -27.3636  -22.3470   18.9293 H   0  0  0  0  0  0
  -27.1654  -21.8172   20.5941 H   0  0  0  0  0  0
  -29.6312  -24.1680   21.3488 H   0  0  0  0  0  0
  -30.3963  -24.2810   19.8090 H   0  0  0  0  0  0
  -28.6934  -19.6765   20.9808 H   0  0  0  0  0  0
  -28.1992  -24.9822   18.7564 H   0  0  0  0  0  0
  -33.7708  -19.0082   17.9977 H   0  0  0  0  0  0
  -34.1342  -20.5521   17.2293 H   0  0  0  0  0  0
  -33.1059  -19.3767   16.4029 H   0  0  0  0  0  0
  -30.1481  -23.3139   16.3032 H   0  0  0  0  0  0
  -30.3130  -24.3510   17.6977 H   0  0  0  0  0  0
  -28.8239  -23.4023   17.4204 H   0  0  0  0  0  0
  1 25  1  0  0  0
  1 30  2  0  0  0
  1 89  1  0  0  0
  2  3  1  0  0  0
  2 25  1  0  0  0
  2 90  1  0  0  0
  2 91  1  0  0  0
  3  4  1  0  0  0
  3 92  1  0  0  0
  3 93  1  0  0  0
  4  5  1  0  0  0
  4 94  1  0  0  0
  4 95  1  0  0  0
  5  6  1  0  0  0
  5 26  1  0  0  0
  5 96  1  0  0  0
  6 25  1  0  0  0
  6 97  1  0  0  0
  6 98  1  0  0  0
  7  8  2  0  0  0
  7 26  1  0  0  0
  7 29  1  0  0  0
  8  9  1  0  0  0
  8 22  1  0  0  0
  9 10  1  0  0  0
  9 27  2  0  0  0
 10 11  2  0  0  0
 10 15  1  0  0  0
 11 12  1  0  0  0
 11 99  1  0  0  0
 12 13  2  0  0  0
 12100  1  0  0  0
 13 14  1  0  0  0
 13 31  1  0  0  0
 14 15  2  0  0  0
 14101  1  0  0  0
 15102  1  0  0  0
 16 17  2  0  0  0
 16 21  1  0  0  0
 16 31  1  0  0  0
 17 18  1  0  0  0
 17103  1  0  0  0
 18 19  2  0  0  0
 18104  1  0  0  0
 19 20  1  0  0  0
 19 24  1  0  0  0
 20 21  2  0  0  0
 20105  1  0  0  0
 21 23  1  0  0  0
 22 28  1  0  0  0
 22 32  2  0  0  0
 26 27  1  0  0  0
 28106  1  0  0  0
 28107  1  0  0  0
 29108  1  0  0  0
 29109  1  0  0  0
 33 34  1  0  0  0
 33 66  1  0  0  0
 33 70  2  0  0  0
 34 36  1  0  0  0
 34 59  1  0  0  0
 34110  1  0  0  0
 35 44  2  0  0  0
 35 45  1  0  0  0
 35 68  1  0  0  0
 36 56  1  0  0  0
 36111  1  0  0  0
 37 39  1  0  0  0
 37 47  1  0  0  0
 37 66  1  0  0  0
 37112  1  0  0  0
 38 43  2  0  0  0
 38 46  1  0  0  0
 38 47  1  0  0  0
 39 64  1  0  0  0
 39 67  2  0  0  0
 40 52  1  0  0  0
 40 53  2  0  0  0
 40 58  1  0  0  0
 41113  1  0  0  0
 41114  1  0  0  0
 41115  1  0  0  0
 41 48  1  0  0  0
 42 43  1  0  0  0
 42 66  1  0  0  0
 42116  1  0  0  0
 42117  1  0  0  0
 43 44  1  0  0  0
 44118  1  0  0  0
 45 46  2  0  0  0
 45119  1  0  0  0
 46120  1  0  0  0
 47121  1  0  0  0
 47122  1  0  0  0
 48 56  1  0  0  0
 48 65  1  0  0  0
 48123  1  0  0  0
 49 50  1  0  0  0
 49 53  1  0  0  0
 49 64  1  0  0  0
 49124  1  0  0  0
 50 51  1  0  0  0
 50125  1  0  0  0
 50126  1  0  0  0
 51 52  1  0  0  0
 51127  1  0  0  0
 51128  1  0  0  0
 52129  1  0  0  0
 52130  1  0  0  0
 53 54  1  0  0  0
 54 55  2  0  0  0
 54131  1  0  0  0
 55 57  1  0  0  0
 55132  1  0  0  0
 56 69  2  0  0  0
 57 58  2  0  0  0
 57133  1  0  0  0
 58134  1  0  0  0
 59 60  1  0  0  0
 59 61  1  0  0  0
 59 62  1  0  0  0
 60135  1  0  0  0
 60136  1  0  0  0
 60137  1  0  0  0
 61138  1  0  0  0
 61139  1  0  0  0
 61140  1  0  0  0
 62141  1  0  0  0
 62142  1  0  0  0
 62143  1  0  0  0
 63 65  1  0  0  0
 63144  1  0  0  0
 63145  1  0  0  0
 63146  1  0  0  0
 64147  1  0  0  0
 65148  1  0  0  0
 68 85  1  0  0  0
 71 73  2  0  0  0
 71 74  1  0  0  0
 71149  1  0  0  0
 72 74  2  0  0  0
 72 75  1  0  0  0
 72150  1  0  0  0
 73 76  1  0  0  0
 73 84  1  0  0  0
 74 86  1  0  0  0
 75 76  2  0  0  0
 75 87  1  0  0  0
 76 88  1  0  0  0
 77 80  1  0  0  0
 77 84  1  0  0  0
 77151  1  0  0  0
 77152  1  0  0  0
 78 81  1  0  0  0
 78 84  1  0  0  0
 78153  1  0  0  0
 78154  1  0  0  0
 79 82  1  0  0  0
 79 85  1  0  0  0
 79155  1  0  0  0
 79156  1  0  0  0
 80 89  1  0  0  0
 80157  1  0  0  0
 80158  1  0  0  0
 81 89  1  0  0  0
 81159  1  0  0  0
 81160  1  0  0  0
 82 88  1  0  0  0
 82161  1  0  0  0
 82162  1  0  0  0
 83 85  1  0  0  0
 83 88  1  0  0  0
 83163  1  0  0  0
 83164  1  0  0  0
 84165  1  0  0  0
 85166  1  0  0  0
 86167  1  0  0  0
 86168  1  0  0  0
 86169  1  0  0  0
 87170  1  0  0  0
 87171  1  0  0  0
 87172  1  0  0  0
M  ISO  4   1 100  68 101  85 101  89 100
M  END
> <chiral flag>
0

> <version>
0

> <s_m_source_file>
/data/baiqing/PycharmProjects/Reinvent-master-3.2/result/LINK_invent/BTK/process_docking_weight1_custom_sum_contain_oxygen_bond_distance_aromatic_linkinvent_7_9_3/rearranged_h_0166.sdf

> <i_m_source_file_index>
42

> <r_mmod_Potential_Energy-OPLS-2005>
533.413757324219

> <r_mmod_Stretch_Energy-OPLS-2005>
114.821464538574

> <r_mmod_Bend_Energy-OPLS-2005>
257.701202392578

> <r_mmod_Torsional_Energy-OPLS-2005>
426.511474609375

> <r_mmod_Improper_Torsional_Energy-OPLS-2005>
8.77771282196045

> <r_mmod_Van_der_Waal_Energy-OPLS-2005>
163.700927734375

> <r_mmod_Electrostatic_Energy-OPLS-2005>
-310.411560058594

> <r_mmod_Solvation_Energy-OPLS-2005>
-214.525054931641

> <b_mmod_Minimization_Converged-OPLS-2005>
0

> <r_mmod_RMS_Derivative-OPLS-2005>
1.15946996212006

$$$$
42
                    3D
 Structure written by MMmdl.
172182  0  0  1  0            999 V2000
  -30.6169  -14.6778   20.4563 C   0  0  0  0  0  0
  -30.4068  -12.4066   19.4526 C   0  0  0  0  0  0
  -29.4853  -12.5040   18.2170 C   0  0  0  0  0  0
  -28.0051  -12.3749   18.6261 C   0  0  0  0  0  0
  -27.6378  -13.2363   19.8642 C   0  0  2  0  0  0
  -28.6846  -13.1253   20.9917 C   0  0  0  0  0  0
  -25.2487  -13.8247   20.5773 C   0  0  0  0  0  0
  -24.1757  -13.0462   20.9245 C   0  0  0  0  0  0
  -24.6384  -11.6963   20.8809 C   0  0  0  0  0  0
  -23.9089  -10.4316   21.0467 C   0  0  0  0  0  0
  -24.3652   -9.4242   21.9233 C   0  0  0  0  0  0
  -23.6343   -8.2264   22.0755 C   0  0  0  0  0  0
  -22.4318   -8.0306   21.3562 C   0  0  0  0  0  0
  -21.9986   -9.0294   20.4673 C   0  0  0  0  0  0
  -22.7294  -10.2173   20.3117 C   0  0  0  0  0  0
  -21.6866   -6.0783   22.5271 C   0  0  0  0  0  0
  -21.4035   -6.5690   23.8209 C   0  0  0  0  0  0
  -21.3655   -5.6832   24.9161 C   0  0  0  0  0  0
  -21.6044   -4.3100   24.7204 C   0  0  0  0  0  0
  -21.8826   -3.8205   23.4330 C   0  0  0  0  0  0
  -21.9220   -4.7017   22.3401 C   0  0  0  0  0  0
  -22.7792  -13.5240   21.1954 C   0  0  0  0  0  0
  -22.1696   -4.2198   21.0980 F   0  0  0  0  0  0
  -21.5621   -3.4591   25.7728 F   0  0  0  0  0  0
  -29.9823  -13.4601   20.3995 N   0  0  0  0  0  0
  -26.2905  -12.9452   20.3417 N   0  0  0  0  0  0
  -25.9298  -11.6589   20.5827 N   0  0  0  0  0  0
  -22.0504  -12.8105   22.0476 N   0  0  0  0  0  0
  -25.4219  -15.1931   20.4172 N   0  0  0  0  0  0
  -31.8125  -14.7747   20.1535 O   0  0  0  0  0  0
  -21.6674   -6.8913   21.4233 O   0  0  0  0  0  0
  -22.3437  -14.5584   20.6892 O   0  0  0  0  0  0
  -24.6245  -31.8555   23.2013 C   0  0  0  0  0  0
  -25.9049  -32.4791   23.8373 C   0  0  1  0  0  0
  -27.2471  -27.2868   20.1317 C   0  0  0  0  0  0
  -25.5867  -33.8604   24.2321 N   0  0  0  0  0  0
  -23.4293  -30.4703   21.5428 C   0  0  2  0  0  0
  -24.8872  -28.9134   20.1213 C   0  0  0  0  0  0
  -22.7501  -29.4552   22.4930 C   0  0  0  0  0  0
  -18.0290  -28.1318   22.8525 C   0  0  0  0  0  0
  -24.1491  -36.7307   23.2650 C   0  0  0  0  0  0
  -25.9740  -30.7761   21.3820 C   0  0  0  0  0  0
  -26.0548  -29.3967   20.7265 C   0  0  0  0  0  0
  -27.2380  -28.5964   20.7165 C   0  0  0  0  0  0
  -26.0581  -26.8570   19.5080 C   0  0  0  0  0  0
  -24.8888  -27.6493   19.5057 C   0  0  0  0  0  0
  -23.6557  -29.7966   20.1627 C   0  0  0  0  0  0
  -25.4116  -36.3123   24.0358 C   0  0  1  0  0  0
  -20.5897  -28.3651   23.1309 C   0  0  2  0  0  0
  -20.6770  -26.9358   22.5427 C   0  0  0  0  0  0
  -19.5729  -26.6341   21.5235 C   0  0  0  0  0  0
  -18.1923  -26.7880   22.1645 C   0  0  0  0  0  0
  -19.1541  -28.8800   23.2914 C   0  0  0  0  0  0
  -18.9453  -30.1407   23.8920 C   0  0  0  0  0  0
  -17.6450  -30.6546   24.0544 C   0  0  0  0  0  0
  -25.9037  -34.9474   23.5160 C   0  0  0  0  0  0
  -16.5344  -29.9037   23.6298 C   0  0  0  0  0  0
  -16.7272  -28.6424   23.0383 C   0  0  0  0  0  0
  -26.4432  -31.6604   25.0744 C   0  0  0  0  0  0
  -25.3677  -31.3716   26.1479 C   0  0  0  0  0  0
  -27.0295  -30.3035   24.6203 C   0  0  0  0  0  0
  -27.5978  -32.4333   25.7522 C   0  0  0  0  0  0
  -27.5602  -37.1823   24.8455 C   0  0  0  0  0  0
  -21.4206  -29.3017   22.3716 N   0  0  0  0  0  0
  -26.4309  -37.3805   23.9418 N   0  0  0  0  0  0
  -24.6954  -31.0516   22.0994 N   0  0  0  0  0  0
  -23.4190  -28.8069   23.3011 O   0  0  0  0  0  0
  -28.3689  -26.4352   20.1337 O   0  0  0  0  0  0
  -26.5602  -34.8914   22.4727 O   0  0  0  0  0  0
  -23.5382  -32.1382   23.7285 O   0  0  0  0  0  0
  -29.7512  -21.6171   19.6904 C   0  0  0  0  0  0
  -30.1374  -20.4572   20.4950 C   0  0  0  0  0  0
  -30.6222  -21.8789   18.5915 C   0  0  0  0  0  0
  -31.5372  -20.3244   20.6605 C   0  0  0  0  0  0
  -31.9223  -21.3212   18.6190 C   0  0  0  0  0  0
  -29.7855  -18.0909   19.3235 C   0  0  0  0  0  0
  -29.3860  -18.1522   21.7690 C   0  0  0  0  0  0
  -29.5053  -24.1503   20.7517 C   0  0  0  0  0  0
  -27.9527  -23.8655   19.4161 C   0  0  0  0  0  0
  -29.3421  -16.5774   19.4525 C   0  0  0  0  0  0
  -30.1824  -16.7751   21.7305 C   0  0  0  0  0  0
  -28.8481  -22.8292   20.2173 C   0  0  1  0  0  0
  -29.3611  -19.0585   20.4815 C   0  0  0  0  0  0
  -28.2055  -24.9849   20.4806 C   0  0  2  0  0  0
  -30.2199  -22.7726   17.4250 C   0  0  0  0  0  0
  -32.1907  -19.6683   21.8615 C   0  0  0  0  0  0
  -32.9000  -21.4134   17.4620 C   0  0  0  0  0  0
  -32.4049  -20.7106   19.7122 N   0  0  0  0  0  0
  -29.8519  -15.8234   20.6358 N   0  0  0  0  0  0
  -31.4506  -12.5126   19.1554 H   0  0  0  0  0  0
  -30.3310  -11.4198   19.9176 H   0  0  0  0  0  0
  -29.7336  -11.7355   17.4838 H   0  0  0  0  0  0
  -29.6402  -13.4615   17.7181 H   0  0  0  0  0  0
  -27.7954  -11.3228   18.8240 H   0  0  0  0  0  0
  -27.3623  -12.6595   17.7918 H   0  0  0  0  0  0
  -27.6420  -14.2680   19.5153 H   0  0  0  0  0  0
  -28.7034  -12.1189   21.4131 H   0  0  0  0  0  0
  -28.4408  -13.7950   21.8197 H   0  0  0  0  0  0
  -25.2787   -9.5724   22.4808 H   0  0  0  0  0  0
  -24.0114   -7.4628   22.7409 H   0  0  0  0  0  0
  -21.0972   -8.8828   19.8911 H   0  0  0  0  0  0
  -22.3806  -10.9740   19.6251 H   0  0  0  0  0  0
  -21.2027   -7.6196   23.9716 H   0  0  0  0  0  0
  -21.1470   -6.0569   25.9052 H   0  0  0  0  0  0
  -22.0608   -2.7672   23.2809 H   0  0  0  0  0  0
  -22.4226  -11.9734   22.4713 H   0  0  0  0  0  0
  -21.1131  -13.1003   22.2824 H   0  0  0  0  0  0
  -24.6658  -15.8582   20.5328 H   0  0  0  0  0  0
  -26.2936  -15.6285   20.1404 H   0  0  0  0  0  0
  -26.7120  -32.5463   23.1130 H   0  0  0  0  0  0
  -25.0017  -33.9753   25.0468 H   0  0  0  0  0  0
  -22.7241  -31.2904   21.3877 H   0  0  0  0  0  0
  -23.3788  -35.9602   23.3283 H   0  0  0  0  0  0
  -24.3583  -36.8947   22.2065 H   0  0  0  0  0  0
  -23.7179  -37.6482   23.6678 H   0  0  0  0  0  0
  -26.1053  -31.5398   20.6137 H   0  0  0  0  0  0
  -26.8518  -30.8303   22.0157 H   0  0  0  0  0  0
  -28.1417  -28.9657   21.1867 H   0  0  0  0  0  0
  -26.0331  -25.8956   19.0160 H   0  0  0  0  0  0
  -23.9912  -27.2709   19.0347 H   0  0  0  0  0  0
  -23.7867  -30.5708   19.4066 H   0  0  0  0  0  0
  -22.7806  -29.2260   19.8494 H   0  0  0  0  0  0
  -25.1287  -36.2024   25.0851 H   0  0  0  0  0  0
  -20.9977  -28.3202   24.1433 H   0  0  0  0  0  0
  -20.5689  -26.2237   23.3630 H   0  0  0  0  0  0
  -21.6643  -26.7371   22.1213 H   0  0  0  0  0  0
  -19.6890  -25.6255   21.1256 H   0  0  0  0  0  0
  -19.6658  -27.3175   20.6786 H   0  0  0  0  0  0
  -17.4201  -26.6667   21.4033 H   0  0  0  0  0  0
  -18.0258  -25.9986   22.8982 H   0  0  0  0  0  0
  -19.7920  -30.7212   24.2319 H   0  0  0  0  0  0
  -17.4987  -31.6239   24.5109 H   0  0  0  0  0  0
  -15.5334  -30.2935   23.7587 H   0  0  0  0  0  0
  -15.8678  -28.0717   22.7128 H   0  0  0  0  0  0
  -24.5828  -30.7085   25.7830 H   0  0  0  0  0  0
  -24.8861  -32.2856   26.4957 H   0  0  0  0  0  0
  -25.7989  -30.8866   27.0244 H   0  0  0  0  0  0
  -26.2888  -29.6789   24.1192 H   0  0  0  0  0  0
  -27.3970  -29.7264   25.4706 H   0  0  0  0  0  0
  -27.8764  -30.4348   23.9463 H   0  0  0  0  0  0
  -27.2570  -33.3605   26.2134 H   0  0  0  0  0  0
  -28.3759  -32.6931   25.0344 H   0  0  0  0  0  0
  -28.0677  -31.8438   26.5404 H   0  0  0  0  0  0
  -28.2598  -38.0143   24.7547 H   0  0  0  0  0  0
  -28.1118  -36.2672   24.6241 H   0  0  0  0  0  0
  -27.2313  -37.1426   25.8850 H   0  0  0  0  0  0
  -20.9370  -29.8810   21.7008 H   0  0  0  0  0  0
  -26.0217  -38.2902   24.1395 H   0  0  0  0  0  0
  -29.4097  -18.4818   18.3784 H   0  0  0  0  0  0
  -30.8705  -18.0997   19.2177 H   0  0  0  0  0  0
  -29.6726  -18.7297   22.6429 H   0  0  0  0  0  0
  -28.3516  -17.8774   21.9772 H   0  0  0  0  0  0
  -30.3483  -24.4530   20.1250 H   0  0  0  0  0  0
  -29.8152  -24.0978   21.7966 H   0  0  0  0  0  0
  -26.9148  -23.5479   19.3127 H   0  0  0  0  0  0
  -28.3343  -24.2092   18.4569 H   0  0  0  0  0  0
  -29.6233  -16.0532   18.5360 H   0  0  0  0  0  0
  -28.2520  -16.5411   19.4781 H   0  0  0  0  0  0
  -30.0228  -16.2561   22.6761 H   0  0  0  0  0  0
  -31.2508  -16.9605   21.6872 H   0  0  0  0  0  0
  -28.2386  -22.4137   21.0231 H   0  0  0  0  0  0
  -28.3156  -19.3190   20.3098 H   0  0  0  0  0  0
  -27.5029  -24.8749   21.3087 H   0  0  0  0  0  0
  -29.1552  -22.6992   17.2040 H   0  0  0  0  0  0
  -30.7224  -22.4747   16.5067 H   0  0  0  0  0  0
  -30.4906  -23.8124   17.6187 H   0  0  0  0  0  0
  -31.5664  -19.7175   22.7513 H   0  0  0  0  0  0
  -33.1081  -20.1963   22.1172 H   0  0  0  0  0  0
  -32.4770  -18.6437   21.6570 H   0  0  0  0  0  0
  -33.2070  -22.4436   17.2728 H   0  0  0  0  0  0
  -32.4390  -21.0104   16.5603 H   0  0  0  0  0  0
  -33.7985  -20.8195   17.6470 H   0  0  0  0  0  0
  1 25  1  0  0  0
  1 30  2  0  0  0
  1 89  1  0  0  0
  2  3  1  0  0  0
  2 25  1  0  0  0
  2 90  1  0  0  0
  2 91  1  0  0  0
  3  4  1  0  0  0
  3 92  1  0  0  0
  3 93  1  0  0  0
  4  5  1  0  0  0
  4 94  1  0  0  0
  4 95  1  0  0  0
  5  6  1  0  0  0
  5 26  1  0  0  0
  5 96  1  0  0  0
  6 25  1  0  0  0
  6 97  1  0  0  0
  6 98  1  0  0  0
  7  8  2  0  0  0
  7 26  1  0  0  0
  7 29  1  0  0  0
  8  9  1  0  0  0
  8 22  1  0  0  0
  9 10  1  0  0  0
  9 27  2  0  0  0
 10 11  2  0  0  0
 10 15  1  0  0  0
 11 12  1  0  0  0
 11 99  1  0  0  0
 12 13  2  0  0  0
 12100  1  0  0  0
 13 14  1  0  0  0
 13 31  1  0  0  0
 14 15  2  0  0  0
 14101  1  0  0  0
 15102  1  0  0  0
 16 17  2  0  0  0
 16 21  1  0  0  0
 16 31  1  0  0  0
 17 18  1  0  0  0
 17103  1  0  0  0
 18 19  2  0  0  0
 18104  1  0  0  0
 19 20  1  0  0  0
 19 24  1  0  0  0
 20 21  2  0  0  0
 20105  1  0  0  0
 21 23  1  0  0  0
 22 28  1  0  0  0
 22 32  2  0  0  0
 26 27  1  0  0  0
 28106  1  0  0  0
 28107  1  0  0  0
 29108  1  0  0  0
 29109  1  0  0  0
 33 34  1  0  0  0
 33 66  1  0  0  0
 33 70  2  0  0  0
 34 36  1  0  0  0
 34 59  1  0  0  0
 34110  1  0  0  0
 35 44  2  0  0  0
 35 45  1  0  0  0
 35 68  1  0  0  0
 36 56  1  0  0  0
 36111  1  0  0  0
 37 39  1  0  0  0
 37 47  1  0  0  0
 37 66  1  0  0  0
 37112  1  0  0  0
 38 43  2  0  0  0
 38 46  1  0  0  0
 38 47  1  0  0  0
 39 64  1  0  0  0
 39 67  2  0  0  0
 40 52  1  0  0  0
 40 53  2  0  0  0
 40 58  1  0  0  0
 41113  1  0  0  0
 41114  1  0  0  0
 41115  1  0  0  0
 41 48  1  0  0  0
 42 43  1  0  0  0
 42 66  1  0  0  0
 42116  1  0  0  0
 42117  1  0  0  0
 43 44  1  0  0  0
 44118  1  0  0  0
 45 46  2  0  0  0
 45119  1  0  0  0
 46120  1  0  0  0
 47121  1  0  0  0
 47122  1  0  0  0
 48 56  1  0  0  0
 48 65  1  0  0  0
 48123  1  0  0  0
 49 50  1  0  0  0
 49 53  1  0  0  0
 49 64  1  0  0  0
 49124  1  0  0  0
 50 51  1  0  0  0
 50125  1  0  0  0
 50126  1  0  0  0
 51 52  1  0  0  0
 51127  1  0  0  0
 51128  1  0  0  0
 52129  1  0  0  0
 52130  1  0  0  0
 53 54  1  0  0  0
 54 55  2  0  0  0
 54131  1  0  0  0
 55 57  1  0  0  0
 55132  1  0  0  0
 56 69  2  0  0  0
 57 58  2  0  0  0
 57133  1  0  0  0
 58134  1  0  0  0
 59 60  1  0  0  0
 59 61  1  0  0  0
 59 62  1  0  0  0
 60135  1  0  0  0
 60136  1  0  0  0
 60137  1  0  0  0
 61138  1  0  0  0
 61139  1  0  0  0
 61140  1  0  0  0
 62141  1  0  0  0
 62142  1  0  0  0
 62143  1  0  0  0
 63 65  1  0  0  0
 63144  1  0  0  0
 63145  1  0  0  0
 63146  1  0  0  0
 64147  1  0  0  0
 65148  1  0  0  0
 68 84  1  0  0  0
 71 72  1  0  0  0
 71 73  2  0  0  0
 71 82  1  0  0  0
 72 74  2  0  0  0
 72 83  1  0  0  0
 73 75  1  0  0  0
 73 85  1  0  0  0
 74 86  1  0  0  0
 74 88  1  0  0  0
 75 87  1  0  0  0
 75 88  2  0  0  0
 76 80  1  0  0  0
 76 83  1  0  0  0
 76149  1  0  0  0
 76150  1  0  0  0
 77 81  1  0  0  0
 77 83  1  0  0  0
 77151  1  0  0  0
 77152  1  0  0  0
 78 82  1  0  0  0
 78 84  1  0  0  0
 78153  1  0  0  0
 78154  1  0  0  0
 79 82  1  0  0  0
 79 84  1  0  0  0
 79155  1  0  0  0
 79156  1  0  0  0
 80 89  1  0  0  0
 80157  1  0  0  0
 80158  1  0  0  0
 81 89  1  0  0  0
 81159  1  0  0  0
 81160  1  0  0  0
 82161  1  0  0  0
 83162  1  0  0  0
 84163  1  0  0  0
 85164  1  0  0  0
 85165  1  0  0  0
 85166  1  0  0  0
 86167  1  0  0  0
 86168  1  0  0  0
 86169  1  0  0  0
 87170  1  0  0  0
 87171  1  0  0  0
 87172  1  0  0  0
M  ISO  4   1 100  68 101  84 101  89 100
M  END
> <chiral flag>
0

> <version>
0

> <s_m_source_file>
/data/baiqing/PycharmProjects/Reinvent-master-3.2/result/LINK_invent/BTK/process_docking_weight1_custom_sum_contain_oxygen_bond_distance_aromatic_linkinvent_7_9_3/rearranged_h_0166.sdf

> <i_m_source_file_index>
43

> <r_mmod_Potential_Energy-OPLS-2005>
406.346405029297

> <r_mmod_Stretch_Energy-OPLS-2005>
114.394577026367

> <r_mmod_Bend_Energy-OPLS-2005>
199.076232910156

> <r_mmod_Torsional_Energy-OPLS-2005>
564.080810546875

> <r_mmod_Improper_Torsional_Energy-OPLS-2005>
24.5203819274902

> <r_mmod_Van_der_Waal_Energy-OPLS-2005>
151.99104309082

> <r_mmod_Electrostatic_Energy-OPLS-2005>
-497.680206298828

> <r_mmod_Solvation_Energy-OPLS-2005>
-212.412948608398

> <b_mmod_Minimization_Converged-OPLS-2005>
0

> <r_mmod_RMS_Derivative-OPLS-2005>
5.39353656768799

$$$$
43
                    3D
 Structure written by MMmdl.
167176  0  0  1  0            999 V2000
  -30.5449  -14.7415   20.4790 C   0  0  0  0  0  0
  -30.4584  -12.4595   19.4651 C   0  0  0  0  0  0
  -29.5161  -12.5008   18.2361 C   0  0  0  0  0  0
  -28.0353  -12.3244   18.6438 C   0  0  0  0  0  0
  -27.6410  -13.2175   19.8474 C   0  0  2  0  0  0
  -28.6835  -13.0925   20.9823 C   0  0  0  0  0  0
  -25.2514  -13.8186   20.5714 C   0  0  0  0  0  0
  -24.1768  -13.0425   20.9263 C   0  0  0  0  0  0
  -24.6357  -11.6914   20.8793 C   0  0  0  0  0  0
  -23.9017  -10.4291   21.0440 C   0  0  0  0  0  0
  -24.3582   -9.4190   21.9205 C   0  0  0  0  0  0
  -23.6261   -8.2221   22.0732 C   0  0  0  0  0  0
  -22.4242   -8.0275   21.3533 C   0  0  0  0  0  0
  -21.9894   -9.0243   20.4636 C   0  0  0  0  0  0
  -22.7206  -10.2139   20.3064 C   0  0  0  0  0  0
  -21.6838   -6.0721   22.5290 C   0  0  0  0  0  0
  -21.3993   -6.5622   23.8225 C   0  0  0  0  0  0
  -21.3662   -5.6784   24.9187 C   0  0  0  0  0  0
  -21.6048   -4.3044   24.7247 C   0  0  0  0  0  0
  -21.8805   -3.8139   23.4365 C   0  0  0  0  0  0
  -21.9177   -4.6948   22.3421 C   0  0  0  0  0  0
  -22.7798  -13.5215   21.1919 C   0  0  0  0  0  0
  -22.1640   -4.2134   21.0998 F   0  0  0  0  0  0
  -21.5647   -3.4527   25.7757 F   0  0  0  0  0  0
  -29.9843  -13.4859   20.4172 N   0  0  0  0  0  0
  -26.2888  -12.9338   20.3237 N   0  0  0  0  0  0
  -25.9273  -11.6503   20.5790 N   0  0  0  0  0  0
  -22.0401  -12.8239   22.0485 N   0  0  0  0  0  0
  -25.4274  -15.1890   20.4088 N   0  0  0  0  0  0
  -31.7297  -14.9159   20.1838 O   0  0  0  0  0  0
  -21.6597   -6.8870   21.4247 O   0  0  0  0  0  0
  -22.3486  -14.5511   20.6747 O   0  0  0  0  0  0
  -24.6359  -31.8516   23.1960 C   0  0  0  0  0  0
  -25.9162  -32.4727   23.8321 C   0  0  1  0  0  0
  -27.2209  -27.2378   20.1258 C   0  0  0  0  0  0
  -25.5960  -33.8534   24.2270 N   0  0  0  0  0  0
  -23.4337  -30.4722   21.5413 C   0  0  2  0  0  0
  -24.8789  -28.9168   20.1074 C   0  0  0  0  0  0
  -22.7504  -29.4573   22.4912 C   0  0  0  0  0  0
  -18.0275  -28.1375   22.8511 C   0  0  0  0  0  0
  -24.1500  -36.7273   23.2645 C   0  0  0  0  0  0
  -25.9815  -30.7530   21.3819 C   0  0  0  0  0  0
  -26.0493  -29.3782   20.7210 C   0  0  0  0  0  0
  -27.2174  -28.5470   20.7209 C   0  0  0  0  0  0
  -26.0361  -26.8690   19.4485 C   0  0  0  0  0  0
  -24.8789  -27.6732   19.4610 C   0  0  0  0  0  0
  -23.6505  -29.8031   20.1579 C   0  0  0  0  0  0
  -25.4116  -36.3063   24.0350 C   0  0  1  0  0  0
  -20.5893  -28.3705   23.1251 C   0  0  2  0  0  0
  -20.6789  -26.9422   22.5416 C   0  0  0  0  0  0
  -19.5734  -26.6423   21.5241 C   0  0  0  0  0  0
  -18.1940  -26.7888   22.1750 C   0  0  0  0  0  0
  -19.1539  -28.8859   23.2840 C   0  0  0  0  0  0
  -18.9472  -30.1492   23.8828 C   0  0  0  0  0  0
  -17.6476  -30.6618   24.0500 C   0  0  0  0  0  0
  -25.9052  -34.9420   23.5105 C   0  0  0  0  0  0
  -16.5370  -29.9083   23.6312 C   0  0  0  0  0  0
  -16.7254  -28.6496   23.0391 C   0  0  0  0  0  0
  -26.4494  -31.6568   25.0724 C   0  0  0  0  0  0
  -25.3707  -31.3742   26.1436 C   0  0  0  0  0  0
  -27.0352  -30.2973   24.6282 C   0  0  0  0  0  0
  -27.6029  -32.4326   25.7506 C   0  0  0  0  0  0
  -27.5577  -37.1781   24.8463 C   0  0  0  0  0  0
  -21.4202  -29.3046   22.3646 N   0  0  0  0  0  0
  -26.4285  -37.3773   23.9414 N   0  0  0  0  0  0
  -24.7018  -31.0461   22.0951 N   0  0  0  0  0  0
  -23.4199  -28.8110   23.3025 O   0  0  0  0  0  0
  -28.3025  -26.3289   20.2798 O   0  0  0  0  0  0
  -26.5628  -34.8903   22.4670 O   0  0  0  0  0  0
  -23.5504  -32.1344   23.7259 O   0  0  0  0  0  0
  -29.1271  -22.3534   20.2553 C   0  0  0  0  0  0
  -28.2252  -23.5156   20.3649 C   0  0  0  0  0  0
  -28.7358  -20.9828   20.6240 C   0  0  0  0  0  0
  -26.9946  -23.2090   21.0003 C   0  0  0  0  0  0
  -27.4497  -20.9115   21.2264 C   0  0  0  0  0  0
  -29.0800  -18.3924   20.0122 C   0  0  0  0  0  0
  -30.7191  -19.5139   21.2955 C   0  0  0  0  0  0
  -29.7482  -17.3063   20.9607 C   0  0  2  0  0  0
  -31.0896  -17.9925   21.2007 C   0  0  2  0  0  0
  -30.5492  -22.5393   19.7489 C   0  0  0  0  0  0
  -25.9142  -24.2360   21.2650 C   0  0  0  0  0  0
  -26.8383  -19.6266   21.7588 C   0  0  0  0  0  0
  -28.4124  -24.9611   19.6397 C   0  0  0  0  0  0
  -26.6474  -21.9760   21.4179 N   0  0  0  0  0  0
  -29.5469  -19.7701   20.4354 N   0  0  0  0  0  0
  -29.6765  -15.7920   20.7199 N   0  0  0  0  0  0
  -31.7747  -17.4808   22.3969 N   0  3  0  0  0  0
  -31.4900  -12.6373   19.1519 H   0  0  0  0  0  0
  -30.4664  -11.4722   19.9301 H   0  0  0  0  0  0
  -29.7989  -11.7202   17.5258 H   0  0  0  0  0  0
  -29.6400  -13.4586   17.7273 H   0  0  0  0  0  0
  -27.9006  -11.2803   18.9140 H   0  0  0  0  0  0
  -27.3729  -12.4938   17.7929 H   0  0  0  0  0  0
  -27.6549  -14.2420   19.4747 H   0  0  0  0  0  0
  -28.7223  -12.0625   21.3457 H   0  0  0  0  0  0
  -28.4068  -13.6921   21.8522 H   0  0  0  0  0  0
  -25.2716   -9.5639   22.4782 H   0  0  0  0  0  0
  -23.9964   -7.4587   22.7430 H   0  0  0  0  0  0
  -21.0824   -8.8742   19.8945 H   0  0  0  0  0  0
  -22.3651  -10.9657   19.6164 H   0  0  0  0  0  0
  -21.1954   -7.6124   23.9727 H   0  0  0  0  0  0
  -21.1509   -6.0513   25.9102 H   0  0  0  0  0  0
  -22.0588   -2.7595   23.2870 H   0  0  0  0  0  0
  -22.3965  -11.9904   22.4903 H   0  0  0  0  0  0
  -21.1016  -13.1299   22.2635 H   0  0  0  0  0  0
  -24.6618  -15.8463   20.5071 H   0  0  0  0  0  0
  -26.2567  -15.6116   20.0118 H   0  0  0  0  0  0
  -26.7215  -32.5343   23.1045 H   0  0  0  0  0  0
  -25.0072  -33.9677   25.0399 H   0  0  0  0  0  0
  -22.7358  -31.2976   21.3923 H   0  0  0  0  0  0
  -23.3776  -35.9602   23.3322 H   0  0  0  0  0  0
  -24.3581  -36.8870   22.2049 H   0  0  0  0  0  0
  -23.7229  -37.6472   23.6649 H   0  0  0  0  0  0
  -26.1345  -31.5128   20.6136 H   0  0  0  0  0  0
  -26.8543  -30.7962   22.0210 H   0  0  0  0  0  0
  -28.1136  -28.8870   21.2192 H   0  0  0  0  0  0
  -25.9562  -25.9184   18.9472 H   0  0  0  0  0  0
  -23.9755  -27.3299   18.9726 H   0  0  0  0  0  0
  -23.7648  -30.5775   19.3988 H   0  0  0  0  0  0
  -22.7706  -29.2317   19.8606 H   0  0  0  0  0  0
  -25.1300  -36.1922   25.0854 H   0  0  0  0  0  0
  -20.9979  -28.3231   24.1367 H   0  0  0  0  0  0
  -20.5741  -26.2320   23.3636 H   0  0  0  0  0  0
  -21.6651  -26.7414   22.1207 H   0  0  0  0  0  0
  -19.6884  -25.6370   21.1243 H   0  0  0  0  0  0
  -19.6640  -27.3249   20.6765 H   0  0  0  0  0  0
  -17.4115  -26.6521   21.4254 H   0  0  0  0  0  0
  -18.0480  -26.0073   22.9223 H   0  0  0  0  0  0
  -19.7921  -30.7352   24.2174 H   0  0  0  0  0  0
  -17.5021  -31.6316   24.5049 H   0  0  0  0  0  0
  -15.5368  -30.3010   23.7673 H   0  0  0  0  0  0
  -15.8664  -28.0768   22.7183 H   0  0  0  0  0  0
  -24.5906  -30.7059   25.7786 H   0  0  0  0  0  0
  -24.8843  -32.2901   26.4806 H   0  0  0  0  0  0
  -25.8016  -30.8956   27.0240 H   0  0  0  0  0  0
  -26.2961  -29.6711   24.1268 H   0  0  0  0  0  0
  -27.3968  -29.7257   25.4842 H   0  0  0  0  0  0
  -27.8888  -30.4233   23.9622 H   0  0  0  0  0  0
  -27.2641  -33.3661   26.2035 H   0  0  0  0  0  0
  -28.3872  -32.6843   25.0351 H   0  0  0  0  0  0
  -28.0676  -31.8460   26.5449 H   0  0  0  0  0  0
  -28.2590  -38.0076   24.7515 H   0  0  0  0  0  0
  -28.1074  -36.2599   24.6312 H   0  0  0  0  0  0
  -27.2279  -37.1461   25.8858 H   0  0  0  0  0  0
  -20.9386  -29.8711   21.6808 H   0  0  0  0  0  0
  -26.0178  -38.2866   24.1395 H   0  0  0  0  0  0
  -29.4063  -18.2131   18.9870 H   0  0  0  0  0  0
  -28.0021  -18.2817   19.9638 H   0  0  0  0  0  0
  -31.5810  -20.1111   20.9846 H   0  0  0  0  0  0
  -30.4865  -19.7789   22.3283 H   0  0  0  0  0  0
  -29.1898  -17.3968   21.8903 H   0  0  0  0  0  0
  -31.7246  -17.8466   20.3248 H   0  0  0  0  0  0
  -30.8346  -23.5719   19.5855 H   0  0  0  0  0  0
  -30.7038  -21.9769   18.8281 H   0  0  0  0  0  0
  -31.2515  -22.1785   20.4961 H   0  0  0  0  0  0
  -25.3078  -24.3965   20.3758 H   0  0  0  0  0  0
  -26.3393  -25.1786   21.6020 H   0  0  0  0  0  0
  -25.2402  -23.9035   22.0537 H   0  0  0  0  0  0
  -27.5879  -18.9483   22.1606 H   0  0  0  0  0  0
  -26.2779  -19.1321   20.9663 H   0  0  0  0  0  0
  -26.1346  -19.8290   22.5649 H   0  0  0  0  0  0
  -27.7817  -24.9277   18.7542 H   0  0  0  0  0  0
  -29.4018  -24.9925   19.1987 H   0  0  0  0  0  0
  -28.7510  -15.4449   20.9118 H   0  0  0  0  0  0
  -31.1291  -17.0270   23.0193 H   0  0  0  0  0  0
  -32.2159  -18.2349   22.8900 H   0  0  0  0  0  0
  -32.4863  -16.8230   22.1333 H   0  0  0  0  0  0
  1 25  1  0  0  0
  1 30  2  0  0  0
  1 86  1  0  0  0
  2  3  1  0  0  0
  2 25  1  0  0  0
  2 88  1  0  0  0
  2 89  1  0  0  0
  3  4  1  0  0  0
  3 90  1  0  0  0
  3 91  1  0  0  0
  4  5  1  0  0  0
  4 92  1  0  0  0
  4 93  1  0  0  0
  5  6  1  0  0  0
  5 26  1  0  0  0
  5 94  1  0  0  0
  6 25  1  0  0  0
  6 95  1  0  0  0
  6 96  1  0  0  0
  7  8  2  0  0  0
  7 26  1  0  0  0
  7 29  1  0  0  0
  8  9  1  0  0  0
  8 22  1  0  0  0
  9 10  1  0  0  0
  9 27  2  0  0  0
 10 11  2  0  0  0
 10 15  1  0  0  0
 11 12  1  0  0  0
 11 97  1  0  0  0
 12 13  2  0  0  0
 12 98  1  0  0  0
 13 14  1  0  0  0
 13 31  1  0  0  0
 14 15  2  0  0  0
 14 99  1  0  0  0
 15100  1  0  0  0
 16 17  2  0  0  0
 16 21  1  0  0  0
 16 31  1  0  0  0
 17 18  1  0  0  0
 17101  1  0  0  0
 18 19  2  0  0  0
 18102  1  0  0  0
 19 20  1  0  0  0
 19 24  1  0  0  0
 20 21  2  0  0  0
 20103  1  0  0  0
 21 23  1  0  0  0
 22 28  1  0  0  0
 22 32  2  0  0  0
 26 27  1  0  0  0
 28104  1  0  0  0
 28105  1  0  0  0
 29106  1  0  0  0
 29107  1  0  0  0
 33 34  1  0  0  0
 33 66  1  0  0  0
 33 70  2  0  0  0
 34 36  1  0  0  0
 34 59  1  0  0  0
 34108  1  0  0  0
 35 44  2  0  0  0
 35 45  1  0  0  0
 35 68  1  0  0  0
 36 56  1  0  0  0
 36109  1  0  0  0
 37 39  1  0  0  0
 37 47  1  0  0  0
 37 66  1  0  0  0
 37110  1  0  0  0
 38 43  2  0  0  0
 38 46  1  0  0  0
 38 47  1  0  0  0
 39 64  1  0  0  0
 39 67  2  0  0  0
 40 52  1  0  0  0
 40 53  2  0  0  0
 40 58  1  0  0  0
 41111  1  0  0  0
 41112  1  0  0  0
 41113  1  0  0  0
 41 48  1  0  0  0
 42 43  1  0  0  0
 42 66  1  0  0  0
 42114  1  0  0  0
 42115  1  0  0  0
 43 44  1  0  0  0
 44116  1  0  0  0
 45 46  2  0  0  0
 45117  1  0  0  0
 46118  1  0  0  0
 47119  1  0  0  0
 47120  1  0  0  0
 48 56  1  0  0  0
 48 65  1  0  0  0
 48121  1  0  0  0
 49 50  1  0  0  0
 49 53  1  0  0  0
 49 64  1  0  0  0
 49122  1  0  0  0
 50 51  1  0  0  0
 50123  1  0  0  0
 50124  1  0  0  0
 51 52  1  0  0  0
 51125  1  0  0  0
 51126  1  0  0  0
 52127  1  0  0  0
 52128  1  0  0  0
 53 54  1  0  0  0
 54 55  2  0  0  0
 54129  1  0  0  0
 55 57  1  0  0  0
 55130  1  0  0  0
 56 69  2  0  0  0
 57 58  2  0  0  0
 57131  1  0  0  0
 58132  1  0  0  0
 59 60  1  0  0  0
 59 61  1  0  0  0
 59 62  1  0  0  0
 60133  1  0  0  0
 60134  1  0  0  0
 60135  1  0  0  0
 61136  1  0  0  0
 61137  1  0  0  0
 61138  1  0  0  0
 62139  1  0  0  0
 62140  1  0  0  0
 62141  1  0  0  0
 63 65  1  0  0  0
 63142  1  0  0  0
 63143  1  0  0  0
 63144  1  0  0  0
 64145  1  0  0  0
 65146  1  0  0  0
 68 83  1  0  0  0
 71 72  2  0  0  0
 71 73  1  0  0  0
 71 80  1  0  0  0
 72 74  1  0  0  0
 72 83  1  0  0  0
 73 75  2  0  0  0
 73 85  1  0  0  0
 74 81  1  0  0  0
 74 84  2  0  0  0
 75 82  1  0  0  0
 75 84  1  0  0  0
 76 78  1  0  0  0
 76 85  1  0  0  0
 76147  1  0  0  0
 76148  1  0  0  0
 77 79  1  0  0  0
 77 85  1  0  0  0
 77149  1  0  0  0
 77150  1  0  0  0
 78 79  1  0  0  0
 78 86  1  0  0  0
 78151  1  0  0  0
 79 87  1  0  0  0
 79152  1  0  0  0
 80153  1  0  0  0
 80154  1  0  0  0
 80155  1  0  0  0
 81156  1  0  0  0
 81157  1  0  0  0
 81158  1  0  0  0
 82159  1  0  0  0
 82160  1  0  0  0
 82161  1  0  0  0
 83162  1  0  0  0
 83163  1  0  0  0
 86164  1  0  0  0
 87165  1  0  0  0
 87166  1  0  0  0
 87167  1  0  0  0
M  CHG  1  87   1
M  ISO  4   1 100  68 101  83 101  86 100
M  END
> <chiral flag>
0

> <version>
0

> <s_m_source_file>
/data/baiqing/PycharmProjects/Reinvent-master-3.2/result/LINK_invent/BTK/process_docking_weight1_custom_sum_contain_oxygen_bond_distance_aromatic_linkinvent_7_9_3/rearranged_h_0166.sdf

> <i_m_source_file_index>
44

> <r_mmod_Potential_Energy-OPLS-2005>
-56.3789215087891

> <r_mmod_Stretch_Energy-OPLS-2005>
143.678497314453

> <r_mmod_Bend_Energy-OPLS-2005>
276.748443603516

> <r_mmod_Torsional_Energy-OPLS-2005>
326.733612060547

> <r_mmod_Improper_Torsional_Energy-OPLS-2005>
8.40204238891602

> <r_mmod_Van_der_Waal_Energy-OPLS-2005>
144.212692260742

> <r_mmod_Electrostatic_Energy-OPLS-2005>
-550.155090332031

> <r_mmod_Solvation_Energy-OPLS-2005>
-504.201477050781

> <b_mmod_Minimization_Converged-OPLS-2005>
0

> <r_mmod_RMS_Derivative-OPLS-2005>
6.44562959671021

$$$$
44
                    3D
 Structure written by MMmdl.
185196  0  0  1  0            999 V2000
  -30.6943  -14.5000   20.5460 C   0  0  0  0  0  0
  -30.4213  -12.3166   19.4280 C   0  0  0  0  0  0
  -29.4948  -12.4950   18.2076 C   0  0  0  0  0  0
  -28.0167  -12.3543   18.6229 C   0  0  0  0  0  0
  -27.6575  -13.2100   19.8681 C   0  0  2  0  0  0
  -28.7005  -13.0175   20.9912 C   0  0  0  0  0  0
  -25.2576  -13.8173   20.5676 C   0  0  0  0  0  0
  -24.1834  -13.0446   20.9188 C   0  0  0  0  0  0
  -24.6395  -11.6907   20.8752 C   0  0  0  0  0  0
  -23.9071  -10.4296   21.0416 C   0  0  0  0  0  0
  -24.3618   -9.4211   21.9192 C   0  0  0  0  0  0
  -23.6290   -8.2246   22.0759 C   0  0  0  0  0  0
  -22.4278   -8.0286   21.3546 C   0  0  0  0  0  0
  -21.9912   -9.0265   20.4647 C   0  0  0  0  0  0
  -22.7244  -10.2141   20.3058 C   0  0  0  0  0  0
  -21.6850   -6.0741   22.5288 C   0  0  0  0  0  0
  -21.4005   -6.5641   23.8221 C   0  0  0  0  0  0
  -21.3660   -5.6791   24.9180 C   0  0  0  0  0  0
  -21.6042   -4.3055   24.7227 C   0  0  0  0  0  0
  -21.8819   -3.8149   23.4347 C   0  0  0  0  0  0
  -21.9190   -4.6968   22.3407 C   0  0  0  0  0  0
  -22.7855  -13.5241   21.1850 C   0  0  0  0  0  0
  -22.1659   -4.2156   21.0983 F   0  0  0  0  0  0
  -21.5632   -3.4538   25.7736 F   0  0  0  0  0  0
  -30.0255  -13.3199   20.4294 N   0  0  0  0  0  0
  -26.3003  -12.9342   20.3344 N   0  0  0  0  0  0
  -25.9321  -11.6501   20.5772 N   0  0  0  0  0  0
  -22.0483  -12.8238   22.0405 N   0  0  0  0  0  0
  -25.4302  -15.1890   20.4071 N   0  0  0  0  0  0
  -31.8382  -14.6543   20.1114 O   0  0  0  0  0  0
  -21.6634   -6.8886   21.4250 O   0  0  0  0  0  0
  -22.3549  -14.5557   20.6712 O   0  0  0  0  0  0
  -24.6150  -31.8682   23.2086 C   0  0  0  0  0  0
  -25.9045  -32.4839   23.8389 C   0  0  1  0  0  0
  -27.2261  -27.4003   20.0952 C   0  0  0  0  0  0
  -25.5914  -33.8643   24.2305 N   0  0  0  0  0  0
  -23.4044  -30.4946   21.5469 C   0  0  2  0  0  0
  -24.8511  -28.9629   20.1042 C   0  0  0  0  0  0
  -22.7415  -29.4663   22.4938 C   0  0  0  0  0  0
  -18.0295  -28.1359   22.8514 C   0  0  0  0  0  0
  -24.1499  -36.7298   23.2652 C   0  0  0  0  0  0
  -25.9384  -30.8175   21.3741 C   0  0  0  0  0  0
  -26.0095  -29.4517   20.7172 C   0  0  0  0  0  0
  -27.1921  -28.6724   20.7217 C   0  0  0  0  0  0
  -26.0519  -26.9503   19.4502 C   0  0  0  0  0  0
  -24.8701  -27.7118   19.4674 C   0  0  0  0  0  0
  -23.6145  -29.8339   20.1589 C   0  0  0  0  0  0
  -25.4120  -36.3116   24.0347 C   0  0  1  0  0  0
  -20.5889  -28.3665   23.1304 C   0  0  2  0  0  0
  -20.6790  -26.9403   22.5402 C   0  0  0  0  0  0
  -19.5765  -26.6358   21.5225 C   0  0  0  0  0  0
  -18.1940  -26.7914   22.1628 C   0  0  0  0  0  0
  -19.1544  -28.8827   23.2929 C   0  0  0  0  0  0
  -18.9479  -30.1437   23.8938 C   0  0  0  0  0  0
  -17.6479  -30.6583   24.0574 C   0  0  0  0  0  0
  -25.9053  -34.9492   23.5117 C   0  0  0  0  0  0
  -16.5366  -29.9072   23.6337 C   0  0  0  0  0  0
  -16.7287  -28.6472   23.0385 C   0  0  0  0  0  0
  -26.4452  -31.6646   25.0737 C   0  0  0  0  0  0
  -25.3703  -31.3753   26.1484 C   0  0  0  0  0  0
  -27.0317  -30.3106   24.6121 C   0  0  0  0  0  0
  -27.6018  -32.4397   25.7482 C   0  0  0  0  0  0
  -27.5589  -37.1802   24.8481 C   0  0  0  0  0  0
  -21.4145  -29.3041   22.3689 N   0  0  0  0  0  0
  -26.4299  -37.3795   23.9420 N   0  0  0  0  0  0
  -24.6711  -31.0764   22.0991 N   0  0  0  0  0  0
  -23.4190  -28.8199   23.2980 O   0  0  0  0  0  0
  -28.3841  -26.6415   20.1810 O   0  0  0  0  0  0
  -26.5605  -34.8953   22.4670 O   0  0  0  0  0  0
  -23.5334  -32.1448   23.7440 O   0  0  0  0  0  0
  -31.3452  -16.4197   23.6140 C   0  0  0  0  0  0
  -30.4736  -19.0377   24.2531 C   0  0  0  0  0  0
  -31.4719  -16.8912   24.9398 C   0  0  0  0  0  0
  -30.7712  -17.2551   22.6417 C   0  0  0  0  0  0
  -31.0273  -18.2047   25.2549 C   0  0  0  0  0  0
  -30.3489  -18.5465   22.9373 C   0  0  0  0  0  0
  -31.8006  -14.5072   26.0003 C   0  0  0  0  0  0
  -31.2536  -15.3968   27.0898 C   0  0  0  0  0  0
  -28.0616  -21.0516   21.8932 C   0  0  0  0  0  0
  -29.5631  -18.1005   20.8170 C   0  0  0  0  0  0
  -27.4954  -22.0295   20.8409 C   0  0  0  0  0  0
  -29.6155  -22.3881   19.7555 C   0  0  0  0  0  0
  -32.0833  -15.9934   25.9771 C   0  0  0  0  0  0
  -30.5079  -16.9176   21.2055 C   0  0  2  0  0  0
  -30.4113  -21.4885   20.7416 C   0  0  1  0  0  0
  -29.5463  -20.6391   21.7392 C   0  0  2  0  0  0
  -31.1212  -18.7286   26.6780 C   0  0  0  0  0  0
  -31.5133  -20.6994   20.0063 C   0  0  0  0  0  0
  -27.2539  -23.6232   18.2306 C   0  0  0  0  0  0
  -28.6181  -25.4884   19.3385 C   0  0  0  0  0  0
  -27.7891  -24.1672   19.5817 C   0  0  2  0  0  0
  -29.7894  -19.1754   21.8117 N   0  0  0  0  0  0
  -29.9887  -15.5451   21.0267 N   0  0  0  0  0  0
  -28.4602  -23.0784   20.3978 N   0  3  1  0  0  0
  -31.4671  -12.4103   19.1288 H   0  0  0  0  0  0
  -30.3211  -11.3126   19.8422 H   0  0  0  0  0  0
  -29.7392  -11.7588   17.4402 H   0  0  0  0  0  0
  -29.6612  -13.4743   17.7562 H   0  0  0  0  0  0
  -27.8360  -11.3006   18.8358 H   0  0  0  0  0  0
  -27.3649  -12.6087   17.7868 H   0  0  0  0  0  0
  -27.6944  -14.2529   19.5536 H   0  0  0  0  0  0
  -28.6827  -11.9882   21.3516 H   0  0  0  0  0  0
  -28.4661  -13.6367   21.8575 H   0  0  0  0  0  0
  -25.2760   -9.5678   22.4764 H   0  0  0  0  0  0
  -23.9996   -7.4633   22.7475 H   0  0  0  0  0  0
  -21.0846   -8.8787   19.8949 H   0  0  0  0  0  0
  -22.3720  -10.9676   19.6163 H   0  0  0  0  0  0
  -21.1993   -7.6148   23.9728 H   0  0  0  0  0  0
  -21.1479   -6.0520   25.9085 H   0  0  0  0  0  0
  -22.0597   -2.7613   23.2849 H   0  0  0  0  0  0
  -22.4066  -11.9887   22.4787 H   0  0  0  0  0  0
  -21.1104  -13.1277   22.2586 H   0  0  0  0  0  0
  -24.6639  -15.8444   20.5137 H   0  0  0  0  0  0
  -26.2785  -15.6254   20.0693 H   0  0  0  0  0  0
  -26.7098  -32.5533   23.1141 H   0  0  0  0  0  0
  -25.0172  -33.9821   25.0530 H   0  0  0  0  0  0
  -22.6965  -31.3147   21.4085 H   0  0  0  0  0  0
  -23.3786  -35.9611   23.3324 H   0  0  0  0  0  0
  -24.3606  -36.8881   22.2065 H   0  0  0  0  0  0
  -23.7211  -37.6486   23.6656 H   0  0  0  0  0  0
  -26.0683  -31.5814   20.6075 H   0  0  0  0  0  0
  -26.8206  -30.8582   22.0012 H   0  0  0  0  0  0
  -28.0798  -29.0349   21.2214 H   0  0  0  0  0  0
  -26.0043  -26.0066   18.9380 H   0  0  0  0  0  0
  -23.9835  -27.3310   18.9787 H   0  0  0  0  0  0
  -23.7228  -30.6143   19.4053 H   0  0  0  0  0  0
  -22.7368  -29.2603   19.8568 H   0  0  0  0  0  0
  -25.1287  -36.1982   25.0831 H   0  0  0  0  0  0
  -21.0032  -28.3224   24.1408 H   0  0  0  0  0  0
  -20.5732  -26.2270   23.3586 H   0  0  0  0  0  0
  -21.6647  -26.7451   22.1173 H   0  0  0  0  0  0
  -19.6938  -25.6259   21.1274 H   0  0  0  0  0  0
  -19.6711  -27.3172   20.6763 H   0  0  0  0  0  0
  -17.4214  -26.6729   21.4012 H   0  0  0  0  0  0
  -18.0317  -26.0008   22.8975 H   0  0  0  0  0  0
  -19.7953  -30.7243   24.2325 H   0  0  0  0  0  0
  -17.5039  -31.6292   24.5111 H   0  0  0  0  0  0
  -15.5383  -30.3002   23.7631 H   0  0  0  0  0  0
  -15.8680  -28.0805   22.7106 H   0  0  0  0  0  0
  -24.5875  -30.7116   25.7801 H   0  0  0  0  0  0
  -24.8923  -32.2926   26.4948 H   0  0  0  0  0  0
  -25.8036  -30.8897   27.0244 H   0  0  0  0  0  0
  -26.2872  -29.6851   24.1189 H   0  0  0  0  0  0
  -27.4138  -29.7344   25.4556 H   0  0  0  0  0  0
  -27.8678  -30.4467   23.9258 H   0  0  0  0  0  0
  -27.2638  -33.3712   26.2038 H   0  0  0  0  0  0
  -28.3816  -32.6943   25.0291 H   0  0  0  0  0  0
  -28.0721  -31.8563   26.5404 H   0  0  0  0  0  0
  -28.2589  -38.0119   24.7534 H   0  0  0  0  0  0
  -28.1084  -36.2634   24.6274 H   0  0  0  0  0  0
  -27.2318  -37.1399   25.8891 H   0  0  0  0  0  0
  -20.9279  -29.8756   21.6918 H   0  0  0  0  0  0
  -26.0197  -38.2878   24.1404 H   0  0  0  0  0  0
  -31.6767  -15.4278   23.3443 H   0  0  0  0  0  0
  -30.1270  -20.0261   24.5189 H   0  0  0  0  0  0
  -31.0812  -14.0999   25.2926 H   0  0  0  0  0  0
  -32.6170  -13.8406   26.2714 H   0  0  0  0  0  0
  -31.7109  -15.2987   28.0722 H   0  0  0  0  0  0
  -30.1821  -15.5900   27.0885 H   0  0  0  0  0  0
  -27.4256  -20.1654   21.9238 H   0  0  0  0  0  0
  -27.9373  -21.5110   22.8759 H   0  0  0  0  0  0
  -28.5210  -17.7901   20.9031 H   0  0  0  0  0  0
  -29.7132  -18.4224   19.7877 H   0  0  0  0  0  0
  -26.5866  -22.4841   21.2413 H   0  0  0  0  0  0
  -27.1784  -21.4424   19.9777 H   0  0  0  0  0  0
  -29.2567  -21.7738   18.9282 H   0  0  0  0  0  0
  -30.2976  -23.1170   19.3192 H   0  0  0  0  0  0
  -33.0960  -16.3134   26.2161 H   0  0  0  0  0  0
  -31.4532  -17.0527   20.6759 H   0  0  0  0  0  0
  -30.9549  -22.1953   21.3734 H   0  0  0  0  0  0
  -29.9606  -20.9895   22.6829 H   0  0  0  0  0  0
  -30.8810  -19.7907   26.7311 H   0  0  0  0  0  0
  -32.1251  -18.5929   27.0804 H   0  0  0  0  0  0
  -30.4178  -18.1972   27.3193 H   0  0  0  0  0  0
  -31.0954  -20.0117   19.2718 H   0  0  0  0  0  0
  -32.1281  -20.1252   20.7016 H   0  0  0  0  0  0
  -32.1817  -21.3705   19.4646 H   0  0  0  0  0  0
  -26.7641  -24.4030   17.6484 H   0  0  0  0  0  0
  -26.5113  -22.8373   18.3633 H   0  0  0  0  0  0
  -28.0528  -23.2328   17.5989 H   0  0  0  0  0  0
  -28.4818  -25.8308   18.3121 H   0  0  0  0  0  0
  -29.6828  -25.2738   19.4078 H   0  0  0  0  0  0
  -26.9217  -24.4646   20.1686 H   0  0  0  0  0  0
  -29.0436  -15.3675   21.3268 H   0  0  0  0  0  0
  -28.8054  -23.5339   21.2335 H   0  0  0  0  0  0
  1 25  1  0  0  0
  1 30  2  0  0  0
  1 93  1  0  0  0
  2  3  1  0  0  0
  2 25  1  0  0  0
  2 95  1  0  0  0
  2 96  1  0  0  0
  3  4  1  0  0  0
  3 97  1  0  0  0
  3 98  1  0  0  0
  4  5  1  0  0  0
  4 99  1  0  0  0
  4100  1  0  0  0
  5  6  1  0  0  0
  5 26  1  0  0  0
  5101  1  0  0  0
  6 25  1  0  0  0
  6102  1  0  0  0
  6103  1  0  0  0
  7  8  2  0  0  0
  7 26  1  0  0  0
  7 29  1  0  0  0
  8  9  1  0  0  0
  8 22  1  0  0  0
  9 10  1  0  0  0
  9 27  2  0  0  0
 10 11  2  0  0  0
 10 15  1  0  0  0
 11 12  1  0  0  0
 11104  1  0  0  0
 12 13  2  0  0  0
 12105  1  0  0  0
 13 14  1  0  0  0
 13 31  1  0  0  0
 14 15  2  0  0  0
 14106  1  0  0  0
 15107  1  0  0  0
 16 17  2  0  0  0
 16 21  1  0  0  0
 16 31  1  0  0  0
 17 18  1  0  0  0
 17108  1  0  0  0
 18 19  2  0  0  0
 18109  1  0  0  0
 19 20  1  0  0  0
 19 24  1  0  0  0
 20 21  2  0  0  0
 20110  1  0  0  0
 21 23  1  0  0  0
 22 28  1  0  0  0
 22 32  2  0  0  0
 26 27  1  0  0  0
 28111  1  0  0  0
 28112  1  0  0  0
 29113  1  0  0  0
 29114  1  0  0  0
 33 34  1  0  0  0
 33 66  1  0  0  0
 33 70  2  0  0  0
 34 36  1  0  0  0
 34 59  1  0  0  0
 34115  1  0  0  0
 35 44  2  0  0  0
 35 45  1  0  0  0
 35 68  1  0  0  0
 36 56  1  0  0  0
 36116  1  0  0  0
 37 39  1  0  0  0
 37 47  1  0  0  0
 37 66  1  0  0  0
 37117  1  0  0  0
 38 43  2  0  0  0
 38 46  1  0  0  0
 38 47  1  0  0  0
 39 64  1  0  0  0
 39 67  2  0  0  0
 40 52  1  0  0  0
 40 53  2  0  0  0
 40 58  1  0  0  0
 41118  1  0  0  0
 41119  1  0  0  0
 41120  1  0  0  0
 41 48  1  0  0  0
 42 43  1  0  0  0
 42 66  1  0  0  0
 42121  1  0  0  0
 42122  1  0  0  0
 43 44  1  0  0  0
 44123  1  0  0  0
 45 46  2  0  0  0
 45124  1  0  0  0
 46125  1  0  0  0
 47126  1  0  0  0
 47127  1  0  0  0
 48 56  1  0  0  0
 48 65  1  0  0  0
 48128  1  0  0  0
 49 50  1  0  0  0
 49 53  1  0  0  0
 49 64  1  0  0  0
 49129  1  0  0  0
 50 51  1  0  0  0
 50130  1  0  0  0
 50131  1  0  0  0
 51 52  1  0  0  0
 51132  1  0  0  0
 51133  1  0  0  0
 52134  1  0  0  0
 52135  1  0  0  0
 53 54  1  0  0  0
 54 55  2  0  0  0
 54136  1  0  0  0
 55 57  1  0  0  0
 55137  1  0  0  0
 56 69  2  0  0  0
 57 58  2  0  0  0
 57138  1  0  0  0
 58139  1  0  0  0
 59 60  1  0  0  0
 59 61  1  0  0  0
 59 62  1  0  0  0
 60140  1  0  0  0
 60141  1  0  0  0
 60142  1  0  0  0
 61143  1  0  0  0
 61144  1  0  0  0
 61145  1  0  0  0
 62146  1  0  0  0
 62147  1  0  0  0
 62148  1  0  0  0
 63 65  1  0  0  0
 63149  1  0  0  0
 63150  1  0  0  0
 63151  1  0  0  0
 64152  1  0  0  0
 65153  1  0  0  0
 68 90  1  0  0  0
 71 73  2  0  0  0
 71 74  1  0  0  0
 71154  1  0  0  0
 72 75  2  0  0  0
 72 76  1  0  0  0
 72155  1  0  0  0
 73 75  1  0  0  0
 73 83  1  0  0  0
 74 76  2  0  0  0
 74 84  1  0  0  0
 75 87  1  0  0  0
 76 92  1  0  0  0
 77 78  1  0  0  0
 77 83  1  0  0  0
 77156  1  0  0  0
 77157  1  0  0  0
 78 83  1  0  0  0
 78158  1  0  0  0
 78159  1  0  0  0
 79 81  1  0  0  0
 79 86  1  0  0  0
 79160  1  0  0  0
 79161  1  0  0  0
 80 84  1  0  0  0
 80 92  1  0  0  0
 80162  1  0  0  0
 80163  1  0  0  0
 81164  1  0  0  0
 81165  1  0  0  0
 81 94  1  0  0  0
 82 85  1  0  0  0
 82 94  1  0  0  0
 82166  1  0  0  0
 82167  1  0  0  0
 83168  1  0  0  0
 84 93  1  0  0  0
 84169  1  0  0  0
 85 86  1  0  0  0
 85 88  1  0  0  0
 85170  1  0  0  0
 86 92  1  0  0  0
 86171  1  0  0  0
 87172  1  0  0  0
 87173  1  0  0  0
 87174  1  0  0  0
 88175  1  0  0  0
 88176  1  0  0  0
 88177  1  0  0  0
 89178  1  0  0  0
 89179  1  0  0  0
 89180  1  0  0  0
 89 91  1  0  0  0
 90 91  1  0  0  0
 90181  1  0  0  0
 90182  1  0  0  0
 91 94  1  0  0  0
 91183  1  0  0  0
 93184  1  0  0  0
 94185  1  0  0  0
M  CHG  1  94   1
M  ISO  4   1 100  68 101  90 101  93 100
M  END
> <chiral flag>
0

> <version>
0

> <s_m_source_file>
/data/baiqing/PycharmProjects/Reinvent-master-3.2/result/LINK_invent/BTK/process_docking_weight1_custom_sum_contain_oxygen_bond_distance_aromatic_linkinvent_7_9_3/rearranged_h_0166.sdf

> <i_m_source_file_index>
45

> <r_mmod_Potential_Energy-OPLS-2005>
39.0661277770996

> <r_mmod_Stretch_Energy-OPLS-2005>
54.1059722900391

> <r_mmod_Bend_Energy-OPLS-2005>
220.841934204102

> <r_mmod_Torsional_Energy-OPLS-2005>
317.682098388672

> <r_mmod_Improper_Torsional_Energy-OPLS-2005>
3.3805558681488

> <r_mmod_Van_der_Waal_Energy-OPLS-2005>
156.379043579102

> <r_mmod_Electrostatic_Energy-OPLS-2005>
-322.556884765625

> <r_mmod_Solvation_Energy-OPLS-2005>
-411.392181396484

> <b_mmod_Minimization_Converged-OPLS-2005>
0

> <r_mmod_RMS_Derivative-OPLS-2005>
2.56327414512634

$$$$
45
                    3D
 Structure written by MMmdl.
178188  0  0  1  0            999 V2000
  -30.7427  -14.4563   20.6130 C   0  0  0  0  0  0
  -30.4095  -12.3131   19.4201 C   0  0  0  0  0  0
  -29.4853  -12.5237   18.2053 C   0  0  0  0  0  0
  -28.0077  -12.3703   18.6122 C   0  0  0  0  0  0
  -27.6548  -13.1863   19.8803 C   0  0  2  0  0  0
  -28.7035  -12.9715   20.9991 C   0  0  0  0  0  0
  -25.2587  -13.8103   20.5697 C   0  0  0  0  0  0
  -24.1819  -13.0397   20.9205 C   0  0  0  0  0  0
  -24.6349  -11.6869   20.8771 C   0  0  0  0  0  0
  -23.9003  -10.4265   21.0437 C   0  0  0  0  0  0
  -24.3562   -9.4197   21.9218 C   0  0  0  0  0  0
  -23.6255   -8.2219   22.0774 C   0  0  0  0  0  0
  -22.4244   -8.0247   21.3552 C   0  0  0  0  0  0
  -21.9879   -9.0222   20.4647 C   0  0  0  0  0  0
  -22.7186  -10.2111   20.3071 C   0  0  0  0  0  0
  -21.6838   -6.0704   22.5290 C   0  0  0  0  0  0
  -21.4014   -6.5628   23.8216 C   0  0  0  0  0  0
  -21.3676   -5.6803   24.9188 C   0  0  0  0  0  0
  -21.6040   -4.3064   24.7241 C   0  0  0  0  0  0
  -21.8832   -3.8130   23.4370 C   0  0  0  0  0  0
  -21.9193   -4.6932   22.3415 C   0  0  0  0  0  0
  -22.7856  -13.5241   21.1834 C   0  0  0  0  0  0
  -22.1667   -4.2124   21.0989 F   0  0  0  0  0  0
  -21.5626   -3.4551   25.7756 F   0  0  0  0  0  0
  -30.0274  -13.3025   20.4476 N   0  0  0  0  0  0
  -26.2988  -12.9214   20.3424 N   0  0  0  0  0  0
  -25.9269  -11.6396   20.5813 N   0  0  0  0  0  0
  -22.0467  -12.8212   22.0356 N   0  0  0  0  0  0
  -25.4296  -15.1798   20.3991 N   0  0  0  0  0  0
  -31.8559  -14.5940   20.0934 O   0  0  0  0  0  0
  -21.6613   -6.8842   21.4247 O   0  0  0  0  0  0
  -22.3565  -14.5537   20.6687 O   0  0  0  0  0  0
  -24.6126  -31.8697   23.2130 C   0  0  0  0  0  0
  -25.9043  -32.4810   23.8421 C   0  0  1  0  0  0
  -27.2475  -27.4638   20.0887 C   0  0  0  0  0  0
  -25.5964  -33.8622   24.2368 N   0  0  0  0  0  0
  -23.3998  -30.4911   21.5528 C   0  0  2  0  0  0
  -24.8516  -28.9544   20.1252 C   0  0  0  0  0  0
  -22.7377  -29.4678   22.5007 C   0  0  0  0  0  0
  -18.0267  -28.1385   22.8491 C   0  0  0  0  0  0
  -24.1494  -36.7279   23.2627 C   0  0  0  0  0  0
  -25.9255  -30.8395   21.3650 C   0  0  0  0  0  0
  -26.0084  -29.4707   20.7244 C   0  0  0  0  0  0
  -27.2110  -28.7284   20.7186 C   0  0  0  0  0  0
  -26.0762  -26.9556   19.4911 C   0  0  0  0  0  0
  -24.8760  -27.6899   19.5163 C   0  0  0  0  0  0
  -23.6100  -29.8179   20.1693 C   0  0  0  0  0  0
  -25.4112  -36.3103   24.0339 C   0  0  1  0  0  0
  -20.5845  -28.3684   23.1334 C   0  0  2  0  0  0
  -20.6756  -26.9419   22.5444 C   0  0  0  0  0  0
  -19.5743  -26.6393   21.5237 C   0  0  0  0  0  0
  -18.1920  -26.7926   22.1640 C   0  0  0  0  0  0
  -19.1509  -28.8847   23.2908 C   0  0  0  0  0  0
  -18.9448  -30.1443   23.8940 C   0  0  0  0  0  0
  -17.6463  -30.6609   24.0567 C   0  0  0  0  0  0
  -25.9059  -34.9470   23.5145 C   0  0  0  0  0  0
  -16.5351  -29.9125   23.6299 C   0  0  0  0  0  0
  -16.7266  -28.6513   23.0369 C   0  0  0  0  0  0
  -26.4513  -31.6567   25.0726 C   0  0  0  0  0  0
  -25.3799  -31.3639   26.1483 C   0  0  0  0  0  0
  -27.0342  -30.3030   24.6048 C   0  0  0  0  0  0
  -27.6053  -32.4298   25.7523 C   0  0  0  0  0  0
  -27.5593  -37.1781   24.8450 C   0  0  0  0  0  0
  -21.4111  -29.3053   22.3734 N   0  0  0  0  0  0
  -26.4282  -37.3800   23.9433 N   0  0  0  0  0  0
  -24.6633  -31.0809   22.1024 N   0  0  0  0  0  0
  -23.4150  -28.8216   23.3036 O   0  0  0  0  0  0
  -28.3877  -26.7106   19.9542 O   0  0  0  0  0  0
  -26.5584  -34.8912   22.4676 O   0  0  0  0  0  0
  -23.5338  -32.1435   23.7556 O   0  0  0  0  0  0
  -30.5131  -20.2153   17.6767 C   0  0  0  0  0  0
  -29.7488  -21.3220   18.0658 C   0  0  0  0  0  0
  -30.5954  -19.1062   18.5397 C   0  0  0  0  0  0
  -29.1215  -21.2926   19.3210 C   0  0  0  0  0  0
  -30.0491  -19.2244   19.8424 C   0  0  0  0  0  0
  -30.7591  -17.3364   16.5979 C   0  0  0  0  0  0
  -30.1601  -16.6702   17.8053 C   0  0  0  0  0  0
  -31.3890  -17.6832   21.3041 C   0  0  0  0  0  0
  -28.8998  -17.6118   21.3330 C   0  0  0  0  0  0
  -31.1969  -16.3514   22.0815 C   0  0  0  0  0  0
  -28.9255  -16.0790   21.1518 C   0  0  0  0  0  0
  -31.1257  -17.8150   17.9909 C   0  0  0  0  0  0
  -26.8554  -21.8057   20.3342 C   0  0  0  0  0  0
  -29.7685  -24.2633   19.8777 C   0  0  0  0  0  0
  -29.1955  -26.5016   21.1032 C   0  0  0  0  0  0
  -28.1394  -22.3890   19.7127 C   0  0  1  0  0  0
  -30.2625  -25.4221   20.7710 C   0  0  1  0  0  0
  -29.3451  -20.3103   20.2248 N   0  0  0  0  0  0
  -30.1190  -18.1790   20.7810 N   0  0  0  0  0  0
  -30.2421  -15.4382   21.4133 N   0  0  0  0  0  0
  -28.7885  -23.3961   20.5719 N   0  3  0  0  0  0
  -30.7772  -24.8424   21.9601 O   0  0  0  0  0  0
  -31.4554  -12.3893   19.1187 H   0  0  0  0  0  0
  -30.2937  -11.3012   19.8119 H   0  0  0  0  0  0
  -29.7316  -11.8221   17.4073 H   0  0  0  0  0  0
  -29.6473  -13.5174   17.7895 H   0  0  0  0  0  0
  -27.8168  -11.3104   18.7807 H   0  0  0  0  0  0
  -27.3622  -12.6734   17.7883 H   0  0  0  0  0  0
  -27.6719  -14.2197   19.5580 H   0  0  0  0  0  0
  -28.6916  -11.9260   21.3124 H   0  0  0  0  0  0
  -28.4678  -13.5264   21.9049 H   0  0  0  0  0  0
  -25.2708   -9.5679   22.4789 H   0  0  0  0  0  0
  -23.9971   -7.4614   22.7492 H   0  0  0  0  0  0
  -21.0836   -8.8722   19.8933 H   0  0  0  0  0  0
  -22.3654  -10.9644   19.6171 H   0  0  0  0  0  0
  -21.2010   -7.6142   23.9702 H   0  0  0  0  0  0
  -21.1497   -6.0544   25.9094 H   0  0  0  0  0  0
  -22.0586   -2.7580   23.2880 H   0  0  0  0  0  0
  -22.4068  -11.9849   22.4708 H   0  0  0  0  0  0
  -21.1104  -13.1266   22.2567 H   0  0  0  0  0  0
  -24.6503  -15.8258   20.4642 H   0  0  0  0  0  0
  -26.2604  -15.6000   20.0067 H   0  0  0  0  0  0
  -26.7123  -32.5559   23.1191 H   0  0  0  0  0  0
  -25.0179  -33.9769   25.0573 H   0  0  0  0  0  0
  -22.6887  -31.3088   21.4129 H   0  0  0  0  0  0
  -23.3797  -35.9575   23.3237 H   0  0  0  0  0  0
  -24.3615  -36.8941   22.2057 H   0  0  0  0  0  0
  -23.7195  -37.6438   23.6683 H   0  0  0  0  0  0
  -26.0352  -31.6026   20.5932 H   0  0  0  0  0  0
  -26.8127  -30.8986   21.9833 H   0  0  0  0  0  0
  -28.1064  -29.1430   21.1632 H   0  0  0  0  0  0
  -26.0934  -25.9889   19.0049 H   0  0  0  0  0  0
  -23.9843  -27.2816   19.0612 H   0  0  0  0  0  0
  -23.7134  -30.5899   19.4059 H   0  0  0  0  0  0
  -22.7341  -29.2339   19.8810 H   0  0  0  0  0  0
  -25.1275  -36.1951   25.0829 H   0  0  0  0  0  0
  -20.9953  -28.3282   24.1448 H   0  0  0  0  0  0
  -20.5697  -26.2297   23.3646 H   0  0  0  0  0  0
  -21.6626  -26.7491   22.1223 H   0  0  0  0  0  0
  -19.6924  -25.6304   21.1279 H   0  0  0  0  0  0
  -19.6688  -27.3174   20.6738 H   0  0  0  0  0  0
  -17.4193  -26.6686   21.4037 H   0  0  0  0  0  0
  -18.0301  -26.0077   22.9029 H   0  0  0  0  0  0
  -19.7929  -30.7220   24.2386 H   0  0  0  0  0  0
  -17.5031  -31.6302   24.5170 H   0  0  0  0  0  0
  -15.5354  -30.3086   23.7583 H   0  0  0  0  0  0
  -15.8642  -28.0856   22.7122 H   0  0  0  0  0  0
  -24.5946  -30.7008   25.7800 H   0  0  0  0  0  0
  -24.9024  -32.2791   26.5006 H   0  0  0  0  0  0
  -25.8175  -30.8741   27.0188 H   0  0  0  0  0  0
  -26.2861  -29.6791   24.1141 H   0  0  0  0  0  0
  -27.4170  -29.7259   25.4455 H   0  0  0  0  0  0
  -27.8666  -30.4355   23.9147 H   0  0  0  0  0  0
  -27.2637  -33.3562   26.2152 H   0  0  0  0  0  0
  -28.3881  -32.6902   25.0392 H   0  0  0  0  0  0
  -28.0722  -31.8401   26.5427 H   0  0  0  0  0  0
  -28.2527  -38.0154   24.7639 H   0  0  0  0  0  0
  -28.1180  -36.2697   24.6127 H   0  0  0  0  0  0
  -27.2330  -37.1235   25.8848 H   0  0  0  0  0  0
  -20.9309  -29.8761   21.6913 H   0  0  0  0  0  0
  -26.0161  -38.2842   24.1544 H   0  0  0  0  0  0
  -30.9528  -20.1851   16.6885 H   0  0  0  0  0  0
  -29.5911  -22.1384   17.3753 H   0  0  0  0  0  0
  -30.0950  -17.9507   15.9933 H   0  0  0  0  0  0
  -31.4782  -16.7374   16.0407 H   0  0  0  0  0  0
  -30.5136  -15.6750   18.0490 H   0  0  0  0  0  0
  -29.1059  -16.8560   18.0028 H   0  0  0  0  0  0
  -32.0913  -17.5246   20.4873 H   0  0  0  0  0  0
  -31.8384  -18.4407   21.9495 H   0  0  0  0  0  0
  -28.8414  -17.8690   22.3920 H   0  0  0  0  0  0
  -28.0119  -18.0353   20.8614 H   0  0  0  0  0  0
  -30.8085  -16.5652   23.0774 H   0  0  0  0  0  0
  -32.1680  -15.8798   22.2501 H   0  0  0  0  0  0
  -28.6777  -15.9272   20.1062 H   0  0  0  0  0  0
  -28.1250  -15.6347   21.7405 H   0  0  0  0  0  0
  -32.1354  -17.5992   18.3335 H   0  0  0  0  0  0
  -26.4271  -21.0473   19.6769 H   0  0  0  0  0  0
  -26.0945  -22.5698   20.4828 H   0  0  0  0  0  0
  -27.0520  -21.3285   21.2953 H   0  0  0  0  0  0
  -30.6265  -23.6591   19.5729 H   0  0  0  0  0  0
  -29.3487  -24.6611   18.9523 H   0  0  0  0  0  0
  -29.6797  -27.4280   21.4174 H   0  0  0  0  0  0
  -28.5625  -26.1650   21.9260 H   0  0  0  0  0  0
  -27.8187  -22.8885   18.7967 H   0  0  0  0  0  0
  -31.0849  -25.9107   20.2390 H   0  0  0  0  0  0
  -28.0762  -23.9818   20.9699 H   0  0  0  0  0  0
  -29.2670  -22.9208   21.3213 H   0  0  0  0  0  0
  -31.2707  -25.5138   22.4240 H   0  0  0  0  0  0
  1 25  1  0  0  0
  1 30  2  0  0  0
  1 90  1  0  0  0
  2  3  1  0  0  0
  2 25  1  0  0  0
  2 93  1  0  0  0
  2 94  1  0  0  0
  3  4  1  0  0  0
  3 95  1  0  0  0
  3 96  1  0  0  0
  4  5  1  0  0  0
  4 97  1  0  0  0
  4 98  1  0  0  0
  5  6  1  0  0  0
  5 26  1  0  0  0
  5 99  1  0  0  0
  6 25  1  0  0  0
  6100  1  0  0  0
  6101  1  0  0  0
  7  8  2  0  0  0
  7 26  1  0  0  0
  7 29  1  0  0  0
  8  9  1  0  0  0
  8 22  1  0  0  0
  9 10  1  0  0  0
  9 27  2  0  0  0
 10 11  2  0  0  0
 10 15  1  0  0  0
 11 12  1  0  0  0
 11102  1  0  0  0
 12 13  2  0  0  0
 12103  1  0  0  0
 13 14  1  0  0  0
 13 31  1  0  0  0
 14 15  2  0  0  0
 14104  1  0  0  0
 15105  1  0  0  0
 16 17  2  0  0  0
 16 21  1  0  0  0
 16 31  1  0  0  0
 17 18  1  0  0  0
 17106  1  0  0  0
 18 19  2  0  0  0
 18107  1  0  0  0
 19 20  1  0  0  0
 19 24  1  0  0  0
 20 21  2  0  0  0
 20108  1  0  0  0
 21 23  1  0  0  0
 22 28  1  0  0  0
 22 32  2  0  0  0
 26 27  1  0  0  0
 28109  1  0  0  0
 28110  1  0  0  0
 29111  1  0  0  0
 29112  1  0  0  0
 33 34  1  0  0  0
 33 66  1  0  0  0
 33 70  2  0  0  0
 34 36  1  0  0  0
 34 59  1  0  0  0
 34113  1  0  0  0
 35 44  2  0  0  0
 35 45  1  0  0  0
 35 68  1  0  0  0
 36 56  1  0  0  0
 36114  1  0  0  0
 37 39  1  0  0  0
 37 47  1  0  0  0
 37 66  1  0  0  0
 37115  1  0  0  0
 38 43  2  0  0  0
 38 46  1  0  0  0
 38 47  1  0  0  0
 39 64  1  0  0  0
 39 67  2  0  0  0
 40 52  1  0  0  0
 40 53  2  0  0  0
 40 58  1  0  0  0
 41116  1  0  0  0
 41117  1  0  0  0
 41118  1  0  0  0
 41 48  1  0  0  0
 42 43  1  0  0  0
 42 66  1  0  0  0
 42119  1  0  0  0
 42120  1  0  0  0
 43 44  1  0  0  0
 44121  1  0  0  0
 45 46  2  0  0  0
 45122  1  0  0  0
 46123  1  0  0  0
 47124  1  0  0  0
 47125  1  0  0  0
 48 56  1  0  0  0
 48 65  1  0  0  0
 48126  1  0  0  0
 49 50  1  0  0  0
 49 53  1  0  0  0
 49 64  1  0  0  0
 49127  1  0  0  0
 50 51  1  0  0  0
 50128  1  0  0  0
 50129  1  0  0  0
 51 52  1  0  0  0
 51130  1  0  0  0
 51131  1  0  0  0
 52132  1  0  0  0
 52133  1  0  0  0
 53 54  1  0  0  0
 54 55  2  0  0  0
 54134  1  0  0  0
 55 57  1  0  0  0
 55135  1  0  0  0
 56 69  2  0  0  0
 57 58  2  0  0  0
 57136  1  0  0  0
 58137  1  0  0  0
 59 60  1  0  0  0
 59 61  1  0  0  0
 59 62  1  0  0  0
 60138  1  0  0  0
 60139  1  0  0  0
 60140  1  0  0  0
 61141  1  0  0  0
 61142  1  0  0  0
 61143  1  0  0  0
 62144  1  0  0  0
 62145  1  0  0  0
 62146  1  0  0  0
 63 65  1  0  0  0
 63147  1  0  0  0
 63148  1  0  0  0
 63149  1  0  0  0
 64150  1  0  0  0
 65151  1  0  0  0
 68 85  1  0  0  0
 71 72  2  0  0  0
 71 73  1  0  0  0
 71152  1  0  0  0
 72 74  1  0  0  0
 72153  1  0  0  0
 73 75  2  0  0  0
 73 82  1  0  0  0
 74 86  1  0  0  0
 74 88  2  0  0  0
 75 88  1  0  0  0
 75 89  1  0  0  0
 76 77  1  0  0  0
 76 82  1  0  0  0
 76154  1  0  0  0
 76155  1  0  0  0
 77 82  1  0  0  0
 77156  1  0  0  0
 77157  1  0  0  0
 78 80  1  0  0  0
 78 89  1  0  0  0
 78158  1  0  0  0
 78159  1  0  0  0
 79 81  1  0  0  0
 79 89  1  0  0  0
 79160  1  0  0  0
 79161  1  0  0  0
 80 90  1  0  0  0
 80162  1  0  0  0
 80163  1  0  0  0
 81 90  1  0  0  0
 81164  1  0  0  0
 81165  1  0  0  0
 82166  1  0  0  0
 83167  1  0  0  0
 83168  1  0  0  0
 83169  1  0  0  0
 83 86  1  0  0  0
 84 87  1  0  0  0
 84 91  1  0  0  0
 84170  1  0  0  0
 84171  1  0  0  0
 85 87  1  0  0  0
 85172  1  0  0  0
 85173  1  0  0  0
 86 91  1  0  0  0
 86174  1  0  0  0
 87 92  1  0  0  0
 87175  1  0  0  0
 91176  1  0  0  0
 91177  1  0  0  0
 92178  1  0  0  0
M  CHG  1  91   1
M  ISO  4   1 100  68 101  85 101  90 100
M  END
> <chiral flag>
0

> <version>
0

> <s_m_source_file>
/data/baiqing/PycharmProjects/Reinvent-master-3.2/result/LINK_invent/BTK/process_docking_weight1_custom_sum_contain_oxygen_bond_distance_aromatic_linkinvent_7_9_3/rearranged_h_0166.sdf

> <i_m_source_file_index>
46

> <r_mmod_Potential_Energy-OPLS-2005>
-306.302642822266

> <r_mmod_Stretch_Energy-OPLS-2005>
39.8715400695801

> <r_mmod_Bend_Energy-OPLS-2005>
127.969337463379

> <r_mmod_Torsional_Energy-OPLS-2005>
412.311553955078

> <r_mmod_Improper_Torsional_Energy-OPLS-2005>
5.52894353866577

> <r_mmod_Van_der_Waal_Energy-OPLS-2005>
163.926971435547

> <r_mmod_Electrostatic_Energy-OPLS-2005>
-634.937377929688

> <r_mmod_Solvation_Energy-OPLS-2005>
-431.453308105469

> <b_mmod_Minimization_Converged-OPLS-2005>
0

> <r_mmod_RMS_Derivative-OPLS-2005>
4.502601146698

$$$$
46
                    3D
 Structure written by MMmdl.
192203  0  0  1  0            999 V2000
  -30.8285  -14.2902   20.7420 C   0  0  0  0  0  0
  -30.4109  -12.2784   19.3763 C   0  0  0  0  0  0
  -29.4784  -12.5524   18.1857 C   0  0  0  0  0  0
  -28.0072  -12.3948   18.6078 C   0  0  0  0  0  0
  -27.6724  -13.2082   19.8846 C   0  0  2  0  0  0
  -28.7119  -12.9469   20.9984 C   0  0  0  0  0  0
  -25.2654  -13.8160   20.5720 C   0  0  0  0  0  0
  -24.1890  -13.0430   20.9155 C   0  0  0  0  0  0
  -24.6446  -11.6891   20.8724 C   0  0  0  0  0  0
  -23.9113  -10.4287   21.0407 C   0  0  0  0  0  0
  -24.3646   -9.4199   21.9187 C   0  0  0  0  0  0
  -23.6303   -8.2241   22.0759 C   0  0  0  0  0  0
  -22.4292   -8.0286   21.3538 C   0  0  0  0  0  0
  -21.9934   -9.0265   20.4648 C   0  0  0  0  0  0
  -22.7280  -10.2136   20.3053 C   0  0  0  0  0  0
  -21.6848   -6.0746   22.5280 C   0  0  0  0  0  0
  -21.4004   -6.5650   23.8208 C   0  0  0  0  0  0
  -21.3664   -5.6806   24.9175 C   0  0  0  0  0  0
  -21.6048   -4.3069   24.7233 C   0  0  0  0  0  0
  -21.8816   -3.8157   23.4356 C   0  0  0  0  0  0
  -21.9186   -4.6972   22.3408 C   0  0  0  0  0  0
  -22.7909  -13.5219   21.1816 C   0  0  0  0  0  0
  -22.1653   -4.2155   21.0980 F   0  0  0  0  0  0
  -21.5645   -3.4557   25.7744 F   0  0  0  0  0  0
  -30.0642  -13.2022   20.4661 N   0  0  0  0  0  0
  -26.3107  -12.9339   20.3424 N   0  0  0  0  0  0
  -25.9376  -11.6486   20.5756 N   0  0  0  0  0  0
  -22.0547  -12.8192   22.0364 N   0  0  0  0  0  0
  -25.4457  -15.1862   20.4251 N   0  0  0  0  0  0
  -31.7799  -14.6470   20.0375 O   0  0  0  0  0  0
  -21.6637   -6.8893   21.4240 O   0  0  0  0  0  0
  -22.3574  -14.5530   20.6691 O   0  0  0  0  0  0
  -24.6154  -31.8744   23.2185 C   0  0  0  0  0  0
  -25.9054  -32.4868   23.8460 C   0  0  1  0  0  0
  -27.2134  -27.4452   20.0545 C   0  0  0  0  0  0
  -25.5911  -33.8665   24.2375 N   0  0  0  0  0  0
  -23.3990  -30.5075   21.5631 C   0  0  2  0  0  0
  -24.8327  -28.9903   20.1175 C   0  0  0  0  0  0
  -22.7396  -29.4702   22.5029 C   0  0  0  0  0  0
  -18.0273  -28.1376   22.8517 C   0  0  0  0  0  0
  -24.1484  -36.7324   23.2632 C   0  0  0  0  0  0
  -25.9323  -30.8360   21.3768 C   0  0  0  0  0  0
  -26.0012  -29.4747   20.7198 C   0  0  0  0  0  0
  -27.1904  -28.7053   20.6994 C   0  0  0  0  0  0
  -26.0105  -26.9949   19.4474 C   0  0  0  0  0  0
  -24.8320  -27.7447   19.4874 C   0  0  0  0  0  0
  -23.6010  -29.8582   20.1727 C   0  0  0  0  0  0
  -25.4110  -36.3143   24.0335 C   0  0  1  0  0  0
  -20.5860  -28.3666   23.1333 C   0  0  2  0  0  0
  -20.6772  -26.9409   22.5424 C   0  0  0  0  0  0
  -19.5737  -26.6398   21.5224 C   0  0  0  0  0  0
  -18.1916  -26.7935   22.1632 C   0  0  0  0  0  0
  -19.1525  -28.8839   23.2934 C   0  0  0  0  0  0
  -18.9448  -30.1443   23.8948 C   0  0  0  0  0  0
  -17.6450  -30.6586   24.0585 C   0  0  0  0  0  0
  -25.9044  -34.9500   23.5148 C   0  0  0  0  0  0
  -16.5337  -29.9089   23.6331 C   0  0  0  0  0  0
  -16.7267  -28.6500   23.0367 C   0  0  0  0  0  0
  -26.4487  -31.6634   25.0773 C   0  0  0  0  0  0
  -25.3743  -31.3690   26.1499 C   0  0  0  0  0  0
  -27.0293  -30.3069   24.6142 C   0  0  0  0  0  0
  -27.6098  -32.4322   25.7516 C   0  0  0  0  0  0
  -27.5593  -37.1822   24.8465 C   0  0  0  0  0  0
  -21.4124  -29.3049   22.3751 N   0  0  0  0  0  0
  -26.4302  -37.3822   23.9411 N   0  0  0  0  0  0
  -24.6682  -31.0854   22.1106 N   0  0  0  0  0  0
  -23.4176  -28.8210   23.3039 O   0  0  0  0  0  0
  -28.3866  -26.7014   20.0285 O   0  0  0  0  0  0
  -26.5601  -34.8939   22.4708 O   0  0  0  0  0  0
  -23.5351  -32.1510   23.7579 O   0  0  0  0  0  0
  -28.6822  -20.3699   19.8350 C   0  0  0  0  0  0
  -27.9558  -18.2610   18.8269 C   0  0  0  0  0  0
  -27.3988  -20.3523   17.7565 C   0  0  0  0  0  0
  -28.0503  -21.0358   18.7730 C   0  0  0  0  0  0
  -27.3304  -18.9359   17.7503 C   0  0  0  0  0  0
  -28.6284  -18.9589   19.8656 C   0  0  0  0  0  0
  -26.7626  -21.3483   16.8512 C   0  0  0  0  0  0
  -31.4105  -15.8336   23.9875 C   0  0  0  0  0  0
  -23.7661  -24.7675   17.2290 C   0  0  0  0  0  0
  -23.5769  -23.2835   17.0273 C   0  0  0  0  0  0
  -30.9225  -16.9526   23.0869 C   0  0  0  0  0  0
  -31.5066  -14.6317   23.0480 C   0  0  0  0  0  0
  -27.8647  -22.5247   18.5922 C   0  0  1  0  0  0
  -24.8205  -23.7997   17.7174 C   0  0  0  0  0  0
  -30.0265  -16.2359   22.0697 C   0  0  1  0  0  0
  -25.3906  -17.3710   17.3134 C   0  0  0  0  0  0
  -27.5315  -17.1485   15.9579 C   0  0  0  0  0  0
  -30.8388  -25.1473   19.0209 C   0  0  0  0  0  0
  -29.2163  -23.2840   18.3871 C   0  0  0  0  0  0
  -26.1829  -23.7321   17.0439 C   0  0  0  0  0  0
  -29.8450  -17.0059   20.7431 C   0  0  0  0  0  0
  -28.3469  -25.5284   19.2067 C   0  0  0  0  0  0
  -26.5871  -18.1099   16.6964 C   0  0  0  0  0  0
  -29.4790  -24.5021   19.3274 C   0  0  2  0  0  0
  -26.9840  -22.5613   17.3980 N   0  0  0  0  0  0
  -30.5814  -14.8769   21.9321 N   0  0  0  0  0  0
  -29.2093  -18.2987   20.9565 N   0  0  0  0  0  0
  -26.0885  -21.1039   15.8473 O   0  0  0  0  0  0
  -31.4535  -12.3702   19.0648 H   0  0  0  0  0  0
  -30.2959  -11.2493   19.7187 H   0  0  0  0  0  0
  -29.7042  -11.8797   17.3564 H   0  0  0  0  0  0
  -29.6500  -13.5642   17.8141 H   0  0  0  0  0  0
  -27.8176  -11.3340   18.7756 H   0  0  0  0  0  0
  -27.3505  -12.6955   17.7905 H   0  0  0  0  0  0
  -27.7315  -14.2650   19.6205 H   0  0  0  0  0  0
  -28.6544  -11.9115   21.3347 H   0  0  0  0  0  0
  -28.4703  -13.5504   21.8747 H   0  0  0  0  0  0
  -25.2794   -9.5654   22.4769 H   0  0  0  0  0  0
  -24.0007   -7.4630   22.7482 H   0  0  0  0  0  0
  -21.0867   -8.8801   19.8952 H   0  0  0  0  0  0
  -22.3758  -10.9684   19.6164 H   0  0  0  0  0  0
  -21.1979   -7.6155   23.9704 H   0  0  0  0  0  0
  -21.1495   -6.0548   25.9074 H   0  0  0  0  0  0
  -22.0591   -2.7617   23.2863 H   0  0  0  0  0  0
  -22.4143  -11.9829   22.4727 H   0  0  0  0  0  0
  -21.1174  -13.1223   22.2562 H   0  0  0  0  0  0
  -24.6978  -15.8566   20.5575 H   0  0  0  0  0  0
  -26.3297  -15.6207   20.1960 H   0  0  0  0  0  0
  -26.7128  -32.5582   23.1235 H   0  0  0  0  0  0
  -25.0035  -33.9851   25.0498 H   0  0  0  0  0  0
  -22.6907  -31.3286   21.4374 H   0  0  0  0  0  0
  -23.3765  -35.9639   23.3289 H   0  0  0  0  0  0
  -24.3581  -36.8947   22.2049 H   0  0  0  0  0  0
  -23.7204  -37.6511   23.6651 H   0  0  0  0  0  0
  -26.0536  -31.6020   20.6096 H   0  0  0  0  0  0
  -26.8172  -30.8792   21.9989 H   0  0  0  0  0  0
  -28.0904  -29.0794   21.1675 H   0  0  0  0  0  0
  -25.9152  -26.0684   18.9089 H   0  0  0  0  0  0
  -23.9351  -27.3684   19.0139 H   0  0  0  0  0  0
  -23.7127  -30.6399   19.4206 H   0  0  0  0  0  0
  -22.7208  -29.2857   19.8752 H   0  0  0  0  0  0
  -25.1294  -36.2018   25.0831 H   0  0  0  0  0  0
  -20.9967  -28.3226   24.1444 H   0  0  0  0  0  0
  -20.5697  -26.2270   23.3609 H   0  0  0  0  0  0
  -21.6644  -26.7483   22.1199 H   0  0  0  0  0  0
  -19.6887  -25.6319   21.1228 H   0  0  0  0  0  0
  -19.6645  -27.3245   20.6778 H   0  0  0  0  0  0
  -17.4198  -26.6720   21.4016 H   0  0  0  0  0  0
  -18.0292  -26.0060   22.9010 H   0  0  0  0  0  0
  -19.7918  -30.7263   24.2323 H   0  0  0  0  0  0
  -17.4995  -31.6266   24.5181 H   0  0  0  0  0  0
  -15.5341  -30.3001   23.7608 H   0  0  0  0  0  0
  -15.8675  -28.0809   22.7065 H   0  0  0  0  0  0
  -24.5968  -30.7010   25.7776 H   0  0  0  0  0  0
  -24.8882  -32.2813   26.4962 H   0  0  0  0  0  0
  -25.8087  -30.8828   27.0242 H   0  0  0  0  0  0
  -26.2816  -29.6847   24.1213 H   0  0  0  0  0  0
  -27.4055  -29.7302   25.4602 H   0  0  0  0  0  0
  -27.8673  -30.4377   23.9290 H   0  0  0  0  0  0
  -27.2788  -33.3635   26.2125 H   0  0  0  0  0  0
  -28.3887  -32.6853   25.0309 H   0  0  0  0  0  0
  -28.0799  -31.8415   26.5395 H   0  0  0  0  0  0
  -28.2622  -38.0113   24.7561 H   0  0  0  0  0  0
  -28.1078  -36.2662   24.6243 H   0  0  0  0  0  0
  -27.2319  -37.1428   25.8866 H   0  0  0  0  0  0
  -20.9272  -29.8777   21.6987 H   0  0  0  0  0  0
  -26.0194  -38.2893   24.1431 H   0  0  0  0  0  0
  -29.1678  -20.9343   20.6186 H   0  0  0  0  0  0
  -27.8669  -17.1878   18.8523 H   0  0  0  0  0  0
  -30.6745  -15.6426   24.7703 H   0  0  0  0  0  0
  -32.3614  -16.0638   24.4722 H   0  0  0  0  0  0
  -23.1411  -25.2520   17.9772 H   0  0  0  0  0  0
  -23.9895  -25.3692   16.3498 H   0  0  0  0  0  0
  -23.6816  -22.8966   16.0156 H   0  0  0  0  0  0
  -22.8251  -22.7886   17.6396 H   0  0  0  0  0  0
  -31.7718  -17.4108   22.5771 H   0  0  0  0  0  0
  -30.4018  -17.7359   23.6408 H   0  0  0  0  0  0
  -31.2665  -13.7005   23.5624 H   0  0  0  0  0  0
  -32.5297  -14.5428   22.6772 H   0  0  0  0  0  0
  -27.3184  -22.8669   19.4704 H   0  0  0  0  0  0
  -24.8606  -23.6740   18.7984 H   0  0  0  0  0  0
  -29.0389  -16.0946   22.5161 H   0  0  0  0  0  0
  -24.7126  -18.0726   17.7995 H   0  0  0  0  0  0
  -25.6999  -16.6376   18.0577 H   0  0  0  0  0  0
  -24.8205  -16.8410   16.5501 H   0  0  0  0  0  0
  -28.3295  -17.6985   15.4584 H   0  0  0  0  0  0
  -26.9958  -16.5894   15.1902 H   0  0  0  0  0  0
  -27.9936  -16.4220   16.6275 H   0  0  0  0  0  0
  -31.6575  -24.4511   19.2062 H   0  0  0  0  0  0
  -31.0062  -26.0246   19.6472 H   0  0  0  0  0  0
  -30.9033  -25.4680   17.9800 H   0  0  0  0  0  0
  -29.2984  -23.6002   17.3458 H   0  0  0  0  0  0
  -30.0404  -22.5825   18.5211 H   0  0  0  0  0  0
  -26.7320  -24.6363   17.2693 H   0  0  0  0  0  0
  -26.0468  -23.7544   15.9616 H   0  0  0  0  0  0
  -29.2551  -16.3867   20.0706 H   0  0  0  0  0  0
  -30.8085  -17.1691   20.2576 H   0  0  0  0  0  0
  -27.4677  -24.9635   19.4935 H   0  0  0  0  0  0
  -28.2578  -25.8486   18.1680 H   0  0  0  0  0  0
  -26.1747  -18.7554   15.9296 H   0  0  0  0  0  0
  -29.4966  -24.1403   20.3565 H   0  0  0  0  0  0
  -29.6806  -18.9003   21.6272 H   0  0  0  0  0  0
  1 25  1  0  0  0
  1 30  2  0  0  0
  1 96  1  0  0  0
  2  3  1  0  0  0
  2 25  1  0  0  0
  2 99  1  0  0  0
  2100  1  0  0  0
  3  4  1  0  0  0
  3101  1  0  0  0
  3102  1  0  0  0
  4  5  1  0  0  0
  4103  1  0  0  0
  4104  1  0  0  0
  5  6  1  0  0  0
  5 26  1  0  0  0
  5105  1  0  0  0
  6 25  1  0  0  0
  6106  1  0  0  0
  6107  1  0  0  0
  7  8  2  0  0  0
  7 26  1  0  0  0
  7 29  1  0  0  0
  8  9  1  0  0  0
  8 22  1  0  0  0
  9 10  1  0  0  0
  9 27  2  0  0  0
 10 11  2  0  0  0
 10 15  1  0  0  0
 11 12  1  0  0  0
 11108  1  0  0  0
 12 13  2  0  0  0
 12109  1  0  0  0
 13 14  1  0  0  0
 13 31  1  0  0  0
 14 15  2  0  0  0
 14110  1  0  0  0
 15111  1  0  0  0
 16 17  2  0  0  0
 16 21  1  0  0  0
 16 31  1  0  0  0
 17 18  1  0  0  0
 17112  1  0  0  0
 18 19  2  0  0  0
 18113  1  0  0  0
 19 20  1  0  0  0
 19 24  1  0  0  0
 20 21  2  0  0  0
 20114  1  0  0  0
 21 23  1  0  0  0
 22 28  1  0  0  0
 22 32  2  0  0  0
 26 27  1  0  0  0
 28115  1  0  0  0
 28116  1  0  0  0
 29117  1  0  0  0
 29118  1  0  0  0
 33 34  1  0  0  0
 33 66  1  0  0  0
 33 70  2  0  0  0
 34 36  1  0  0  0
 34 59  1  0  0  0
 34119  1  0  0  0
 35 44  2  0  0  0
 35 45  1  0  0  0
 35 68  1  0  0  0
 36 56  1  0  0  0
 36120  1  0  0  0
 37 39  1  0  0  0
 37 47  1  0  0  0
 37 66  1  0  0  0
 37121  1  0  0  0
 38 43  2  0  0  0
 38 46  1  0  0  0
 38 47  1  0  0  0
 39 64  1  0  0  0
 39 67  2  0  0  0
 40 52  1  0  0  0
 40 53  2  0  0  0
 40 58  1  0  0  0
 41122  1  0  0  0
 41123  1  0  0  0
 41124  1  0  0  0
 41 48  1  0  0  0
 42 43  1  0  0  0
 42 66  1  0  0  0
 42125  1  0  0  0
 42126  1  0  0  0
 43 44  1  0  0  0
 44127  1  0  0  0
 45 46  2  0  0  0
 45128  1  0  0  0
 46129  1  0  0  0
 47130  1  0  0  0
 47131  1  0  0  0
 48 56  1  0  0  0
 48 65  1  0  0  0
 48132  1  0  0  0
 49 50  1  0  0  0
 49 53  1  0  0  0
 49 64  1  0  0  0
 49133  1  0  0  0
 50 51  1  0  0  0
 50134  1  0  0  0
 50135  1  0  0  0
 51 52  1  0  0  0
 51136  1  0  0  0
 51137  1  0  0  0
 52138  1  0  0  0
 52139  1  0  0  0
 53 54  1  0  0  0
 54 55  2  0  0  0
 54140  1  0  0  0
 55 57  1  0  0  0
 55141  1  0  0  0
 56 69  2  0  0  0
 57 58  2  0  0  0
 57142  1  0  0  0
 58143  1  0  0  0
 59 60  1  0  0  0
 59 61  1  0  0  0
 59 62  1  0  0  0
 60144  1  0  0  0
 60145  1  0  0  0
 60146  1  0  0  0
 61147  1  0  0  0
 61148  1  0  0  0
 61149  1  0  0  0
 62150  1  0  0  0
 62151  1  0  0  0
 62152  1  0  0  0
 63 65  1  0  0  0
 63153  1  0  0  0
 63154  1  0  0  0
 63155  1  0  0  0
 64156  1  0  0  0
 65157  1  0  0  0
 68 92  1  0  0  0
 71 74  2  0  0  0
 71 76  1  0  0  0
 71158  1  0  0  0
 72 75  1  0  0  0
 72 76  2  0  0  0
 72159  1  0  0  0
 73 74  1  0  0  0
 73 75  2  0  0  0
 73 77  1  0  0  0
 74 83  1  0  0  0
 75 93  1  0  0  0
 76 97  1  0  0  0
 77 95  1  0  0  0
 77 98  2  0  0  0
 78 81  1  0  0  0
 78 82  1  0  0  0
 78160  1  0  0  0
 78161  1  0  0  0
 79 80  1  0  0  0
 79 84  1  0  0  0
 79162  1  0  0  0
 79163  1  0  0  0
 80 84  1  0  0  0
 80164  1  0  0  0
 80165  1  0  0  0
 81 85  1  0  0  0
 81166  1  0  0  0
 81167  1  0  0  0
 82 96  1  0  0  0
 82168  1  0  0  0
 82169  1  0  0  0
 83 89  1  0  0  0
 83 95  1  0  0  0
 83170  1  0  0  0
 84 90  1  0  0  0
 84171  1  0  0  0
 85 91  1  0  0  0
 85 96  1  0  0  0
 85172  1  0  0  0
 86173  1  0  0  0
 86174  1  0  0  0
 86175  1  0  0  0
 86 93  1  0  0  0
 87 93  1  0  0  0
 87176  1  0  0  0
 87177  1  0  0  0
 87178  1  0  0  0
 88179  1  0  0  0
 88180  1  0  0  0
 88181  1  0  0  0
 88 94  1  0  0  0
 89 94  1  0  0  0
 89182  1  0  0  0
 89183  1  0  0  0
 90 95  1  0  0  0
 90184  1  0  0  0
 90185  1  0  0  0
 91 97  1  0  0  0
 91186  1  0  0  0
 91187  1  0  0  0
 92 94  1  0  0  0
 92188  1  0  0  0
 92189  1  0  0  0
 93190  1  0  0  0
 94191  1  0  0  0
 97192  1  0  0  0
M  ISO  4   1 100  68 101  92 101  96 100
M  END
> <chiral flag>
0

> <version>
0

> <s_m_source_file>
/data/baiqing/PycharmProjects/Reinvent-master-3.2/result/LINK_invent/BTK/process_docking_weight1_custom_sum_contain_oxygen_bond_distance_aromatic_linkinvent_7_9_3/rearranged_h_0166.sdf

> <i_m_source_file_index>
47

> <r_mmod_Potential_Energy-OPLS-2005>
345.63671875

> <r_mmod_Stretch_Energy-OPLS-2005>
42.3667640686035

> <r_mmod_Bend_Energy-OPLS-2005>
202.571212768555

> <r_mmod_Torsional_Energy-OPLS-2005>
438.105010986328

> <r_mmod_Improper_Torsional_Energy-OPLS-2005>
10.5782890319824

> <r_mmod_Van_der_Waal_Energy-OPLS-2005>
152.173629760742

> <r_mmod_Electrostatic_Energy-OPLS-2005>
-307.824859619141

> <r_mmod_Solvation_Energy-OPLS-2005>
-203.627304077148

> <b_mmod_Minimization_Converged-OPLS-2005>
0

> <r_mmod_RMS_Derivative-OPLS-2005>
2.38543939590454

$$$$
47
                    3D
 Structure written by MMmdl.
166175  0  0  1  0            999 V2000
  -30.7064  -14.6301   20.5263 C   0  0  0  0  0  0
  -30.4150  -12.4009   19.4651 C   0  0  0  0  0  0
  -29.4991  -12.4853   18.2269 C   0  0  0  0  0  0
  -28.0285  -12.3037   18.6422 C   0  0  0  0  0  0
  -27.6381  -13.2041   19.8405 C   0  0  2  0  0  0
  -28.6815  -13.1440   20.9832 C   0  0  0  0  0  0
  -25.2506  -13.8132   20.5650 C   0  0  0  0  0  0
  -24.1794  -13.0414   20.9220 C   0  0  0  0  0  0
  -24.6365  -11.6886   20.8768 C   0  0  0  0  0  0
  -23.9036  -10.4278   21.0425 C   0  0  0  0  0  0
  -24.3593   -9.4187   21.9192 C   0  0  0  0  0  0
  -23.6267   -8.2230   22.0761 C   0  0  0  0  0  0
  -22.4246   -8.0282   21.3557 C   0  0  0  0  0  0
  -21.9872   -9.0254   20.4665 C   0  0  0  0  0  0
  -22.7204  -10.2127   20.3080 C   0  0  0  0  0  0
  -21.6856   -6.0724   22.5287 C   0  0  0  0  0  0
  -21.4017   -6.5635   23.8214 C   0  0  0  0  0  0
  -21.3651   -5.6793   24.9176 C   0  0  0  0  0  0
  -21.6041   -4.3055   24.7231 C   0  0  0  0  0  0
  -21.8821   -3.8137   23.4359 C   0  0  0  0  0  0
  -21.9190   -4.6948   22.3411 C   0  0  0  0  0  0
  -22.7827  -13.5227   21.1877 C   0  0  0  0  0  0
  -22.1660   -4.2135   21.0988 F   0  0  0  0  0  0
  -21.5607   -3.4543   25.7740 F   0  0  0  0  0  0
  -29.9949  -13.4609   20.4098 N   0  0  0  0  0  0
  -26.2896  -12.9287   20.3218 N   0  0  0  0  0  0
  -25.9281  -11.6465   20.5766 N   0  0  0  0  0  0
  -22.0445  -12.8252   22.0430 N   0  0  0  0  0  0
  -25.4154  -15.1854   20.3994 N   0  0  0  0  0  0
  -31.8780  -14.6722   20.1451 O   0  0  0  0  0  0
  -21.6629   -6.8870   21.4252 O   0  0  0  0  0  0
  -22.3531  -14.5524   20.6693 O   0  0  0  0  0  0
  -24.6260  -31.8625   23.2046 C   0  0  0  0  0  0
  -25.9116  -32.4796   23.8367 C   0  0  1  0  0  0
  -27.2175  -27.3289   20.1095 C   0  0  0  0  0  0
  -25.5948  -33.8591   24.2301 N   0  0  0  0  0  0
  -23.4193  -30.4889   21.5468 C   0  0  2  0  0  0
  -24.8638  -28.9538   20.1113 C   0  0  0  0  0  0
  -22.7482  -29.4639   22.4921 C   0  0  0  0  0  0
  -18.0297  -28.1395   22.8464 C   0  0  0  0  0  0
  -24.1495  -36.7290   23.2630 C   0  0  0  0  0  0
  -25.9615  -30.7969   21.3763 C   0  0  0  0  0  0
  -26.0349  -29.4268   20.7161 C   0  0  0  0  0  0
  -27.2163  -28.6264   20.7072 C   0  0  0  0  0  0
  -26.0176  -26.9168   19.4779 C   0  0  0  0  0  0
  -24.8560  -27.7027   19.4845 C   0  0  0  0  0  0
  -23.6337  -29.8321   20.1603 C   0  0  0  0  0  0
  -25.4114  -36.3087   24.0331 C   0  0  1  0  0  0
  -20.5895  -28.3700   23.1262 C   0  0  2  0  0  0
  -20.6781  -26.9418   22.5405 C   0  0  0  0  0  0
  -19.5766  -26.6381   21.5198 C   0  0  0  0  0  0
  -18.1942  -26.7938   22.1601 C   0  0  0  0  0  0
  -19.1545  -28.8862   23.2867 C   0  0  0  0  0  0
  -18.9468  -30.1454   23.8899 C   0  0  0  0  0  0
  -17.6471  -30.6582   24.0564 C   0  0  0  0  0  0
  -25.9050  -34.9465   23.5109 C   0  0  0  0  0  0
  -16.5364  -29.9086   23.6321 C   0  0  0  0  0  0
  -16.7280  -28.6506   23.0335 C   0  0  0  0  0  0
  -26.4506  -31.6597   25.0725 C   0  0  0  0  0  0
  -25.3743  -31.3772   26.1465 C   0  0  0  0  0  0
  -27.0317  -30.3010   24.6173 C   0  0  0  0  0  0
  -27.6091  -32.4313   25.7459 C   0  0  0  0  0  0
  -27.5598  -37.1779   24.8444 C   0  0  0  0  0  0
  -21.4195  -29.3058   22.3665 N   0  0  0  0  0  0
  -26.4292  -37.3782   23.9420 N   0  0  0  0  0  0
  -24.6878  -31.0653   22.0996 N   0  0  0  0  0  0
  -23.4207  -28.8155   23.2981 O   0  0  0  0  0  0
  -28.3252  -26.4636   20.1656 O   0  0  0  0  0  0
  -26.5604  -34.8919   22.4667 O   0  0  0  0  0  0
  -23.5427  -32.1430   23.7375 O   0  0  0  0  0  0
  -31.3331  -22.9796   19.7726 C   0  0  0  0  0  0
  -28.7572  -22.6321   20.7381 C   0  0  0  0  0  0
  -30.9837  -21.7350   20.3485 C   0  0  0  0  0  0
  -30.4232  -24.0565   19.6886 C   0  0  0  0  0  0
  -29.6636  -21.5225   20.8325 C   0  0  0  0  0  0
  -29.1107  -23.9142   20.1949 C   0  0  0  0  0  0
  -28.9943  -16.4437   20.2906 C   0  0  0  0  0  0
  -30.9911  -16.7362   21.7457 C   0  0  0  0  0  0
  -28.6391  -17.9637   20.5474 C   0  0  0  0  0  0
  -30.3408  -18.0616   22.2267 C   0  0  0  0  0  0
  -32.0722  -20.6775   20.4454 C   0  0  0  0  0  0
  -30.8753  -25.3462   19.0287 C   0  0  0  0  0  0
  -29.2194  -20.2117   21.5780 C   0  0  0  0  0  0
  -28.0246  -25.0238   20.0107 C   0  0  0  0  0  0
  -30.1157  -15.7840   21.0180 N   0  0  0  0  0  0
  -29.6999  -18.8341   21.1298 N   0  3  0  0  0  0
  -31.4589  -12.4913   19.1598 H   0  0  0  0  0  0
  -30.3298  -11.4207   19.9399 H   0  0  0  0  0  0
  -29.7770  -11.7204   17.5010 H   0  0  0  0  0  0
  -29.6325  -13.4465   17.7266 H   0  0  0  0  0  0
  -27.8879  -11.2539   18.9046 H   0  0  0  0  0  0
  -27.3708  -12.4952   17.7938 H   0  0  0  0  0  0
  -27.6220  -14.2039   19.4186 H   0  0  0  0  0  0
  -28.7001  -12.1508   21.4359 H   0  0  0  0  0  0
  -28.4181  -13.8392   21.7825 H   0  0  0  0  0  0
  -25.2743   -9.5646   22.4762 H   0  0  0  0  0  0
  -23.9967   -7.4623   22.7485 H   0  0  0  0  0  0
  -21.0789   -8.8780   19.8993 H   0  0  0  0  0  0
  -22.3663  -10.9665   19.6196 H   0  0  0  0  0  0
  -21.2030   -7.6152   23.9713 H   0  0  0  0  0  0
  -21.1461   -6.0526   25.9075 H   0  0  0  0  0  0
  -22.0603   -2.7597   23.2878 H   0  0  0  0  0  0
  -22.4027  -11.9910   22.4848 H   0  0  0  0  0  0
  -21.1084  -13.1355   22.2642 H   0  0  0  0  0  0
  -24.6315  -15.8227   20.4921 H   0  0  0  0  0  0
  -26.2304  -15.6169   19.9883 H   0  0  0  0  0  0
  -26.7184  -32.5472   23.1113 H   0  0  0  0  0  0
  -25.0135  -33.9738   25.0476 H   0  0  0  0  0  0
  -22.7140  -31.3110   21.4066 H   0  0  0  0  0  0
  -23.3765  -35.9612   23.3267 H   0  0  0  0  0  0
  -24.3596  -36.8931   22.2049 H   0  0  0  0  0  0
  -23.7231  -37.6479   23.6660 H   0  0  0  0  0  0
  -26.0946  -31.5620   20.6107 H   0  0  0  0  0  0
  -26.8417  -30.8437   22.0050 H   0  0  0  0  0  0
  -28.1125  -28.9805   21.1970 H   0  0  0  0  0  0
  -25.9261  -25.9679   18.9744 H   0  0  0  0  0  0
  -23.9585  -27.3365   19.0050 H   0  0  0  0  0  0
  -23.7550  -30.6110   19.4063 H   0  0  0  0  0  0
  -22.7528  -29.2644   19.8540 H   0  0  0  0  0  0
  -25.1276  -36.1939   25.0820 H   0  0  0  0  0  0
  -20.9985  -28.3288   24.1378 H   0  0  0  0  0  0
  -20.5644  -26.2316   23.3608 H   0  0  0  0  0  0
  -21.6660  -26.7428   22.1229 H   0  0  0  0  0  0
  -19.6926  -25.6289   21.1234 H   0  0  0  0  0  0
  -19.6702  -27.3177   20.6720 H   0  0  0  0  0  0
  -17.4208  -26.6676   21.4013 H   0  0  0  0  0  0
  -18.0345  -26.0087   22.8997 H   0  0  0  0  0  0
  -19.7945  -30.7265   24.2272 H   0  0  0  0  0  0
  -17.5023  -31.6257   24.5183 H   0  0  0  0  0  0
  -15.5363  -30.2988   23.7637 H   0  0  0  0  0  0
  -15.8689  -28.0822   22.7054 H   0  0  0  0  0  0
  -24.5887  -30.7150   25.7807 H   0  0  0  0  0  0
  -24.8976  -32.2969   26.4872 H   0  0  0  0  0  0
  -25.8066  -30.8953   27.0246 H   0  0  0  0  0  0
  -26.2883  -29.6764   24.1213 H   0  0  0  0  0  0
  -27.4032  -29.7257   25.4661 H   0  0  0  0  0  0
  -27.8748  -30.4271   23.9376 H   0  0  0  0  0  0
  -27.2734  -33.3605   26.2075 H   0  0  0  0  0  0
  -28.3866  -32.6901   25.0253 H   0  0  0  0  0  0
  -28.0810  -31.8424   26.5335 H   0  0  0  0  0  0
  -28.2579  -38.0115   24.7565 H   0  0  0  0  0  0
  -28.1141  -36.2660   24.6170 H   0  0  0  0  0  0
  -27.2340  -37.1302   25.8850 H   0  0  0  0  0  0
  -20.9368  -29.8809   21.6904 H   0  0  0  0  0  0
  -26.0175  -38.2843   24.1485 H   0  0  0  0  0  0
  -32.3328  -23.1139   19.3832 H   0  0  0  0  0  0
  -27.7503  -22.5018   21.1095 H   0  0  0  0  0  0
  -29.1422  -16.2996   19.2180 H   0  0  0  0  0  0
  -28.0920  -15.8985   20.5472 H   0  0  0  0  0  0
  -31.4154  -16.2237   22.6124 H   0  0  0  0  0  0
  -31.8403  -17.0002   21.1112 H   0  0  0  0  0  0
  -27.7914  -17.9775   21.2368 H   0  0  0  0  0  0
  -28.2672  -18.4174   19.6278 H   0  0  0  0  0  0
  -31.1043  -18.6701   22.7115 H   0  0  0  0  0  0
  -29.5965  -17.8448   22.9967 H   0  0  0  0  0  0
  -33.0403  -21.0763   20.1398 H   0  0  0  0  0  0
  -31.8594  -19.8280   19.7963 H   0  0  0  0  0  0
  -32.1897  -20.3335   21.4726 H   0  0  0  0  0  0
  -31.8509  -25.2329   18.5550 H   0  0  0  0  0  0
  -30.9543  -26.1426   19.7685 H   0  0  0  0  0  0
  -30.1695  -25.6564   18.2581 H   0  0  0  0  0  0
  -28.1306  -20.2062   21.6331 H   0  0  0  0  0  0
  -29.5302  -20.3670   22.6120 H   0  0  0  0  0  0
  -27.1950  -24.7715   20.6737 H   0  0  0  0  0  0
  -27.6825  -24.8574   18.9892 H   0  0  0  0  0  0
  -30.3967  -18.9937   20.4193 H   0  0  0  0  0  0
  1 25  1  0  0  0
  1 30  2  0  0  0
  1 85  1  0  0  0
  2  3  1  0  0  0
  2 25  1  0  0  0
  2 87  1  0  0  0
  2 88  1  0  0  0
  3  4  1  0  0  0
  3 89  1  0  0  0
  3 90  1  0  0  0
  4  5  1  0  0  0
  4 91  1  0  0  0
  4 92  1  0  0  0
  5  6  1  0  0  0
  5 26  1  0  0  0
  5 93  1  0  0  0
  6 25  1  0  0  0
  6 94  1  0  0  0
  6 95  1  0  0  0
  7  8  2  0  0  0
  7 26  1  0  0  0
  7 29  1  0  0  0
  8  9  1  0  0  0
  8 22  1  0  0  0
  9 10  1  0  0  0
  9 27  2  0  0  0
 10 11  2  0  0  0
 10 15  1  0  0  0
 11 12  1  0  0  0
 11 96  1  0  0  0
 12 13  2  0  0  0
 12 97  1  0  0  0
 13 14  1  0  0  0
 13 31  1  0  0  0
 14 15  2  0  0  0
 14 98  1  0  0  0
 15 99  1  0  0  0
 16 17  2  0  0  0
 16 21  1  0  0  0
 16 31  1  0  0  0
 17 18  1  0  0  0
 17100  1  0  0  0
 18 19  2  0  0  0
 18101  1  0  0  0
 19 20  1  0  0  0
 19 24  1  0  0  0
 20 21  2  0  0  0
 20102  1  0  0  0
 21 23  1  0  0  0
 22 28  1  0  0  0
 22 32  2  0  0  0
 26 27  1  0  0  0
 28103  1  0  0  0
 28104  1  0  0  0
 29105  1  0  0  0
 29106  1  0  0  0
 33 34  1  0  0  0
 33 66  1  0  0  0
 33 70  2  0  0  0
 34 36  1  0  0  0
 34 59  1  0  0  0
 34107  1  0  0  0
 35 44  2  0  0  0
 35 45  1  0  0  0
 35 68  1  0  0  0
 36 56  1  0  0  0
 36108  1  0  0  0
 37 39  1  0  0  0
 37 47  1  0  0  0
 37 66  1  0  0  0
 37109  1  0  0  0
 38 43  2  0  0  0
 38 46  1  0  0  0
 38 47  1  0  0  0
 39 64  1  0  0  0
 39 67  2  0  0  0
 40 52  1  0  0  0
 40 53  2  0  0  0
 40 58  1  0  0  0
 41110  1  0  0  0
 41111  1  0  0  0
 41112  1  0  0  0
 41 48  1  0  0  0
 42 43  1  0  0  0
 42 66  1  0  0  0
 42113  1  0  0  0
 42114  1  0  0  0
 43 44  1  0  0  0
 44115  1  0  0  0
 45 46  2  0  0  0
 45116  1  0  0  0
 46117  1  0  0  0
 47118  1  0  0  0
 47119  1  0  0  0
 48 56  1  0  0  0
 48 65  1  0  0  0
 48120  1  0  0  0
 49 50  1  0  0  0
 49 53  1  0  0  0
 49 64  1  0  0  0
 49121  1  0  0  0
 50 51  1  0  0  0
 50122  1  0  0  0
 50123  1  0  0  0
 51 52  1  0  0  0
 51124  1  0  0  0
 51125  1  0  0  0
 52126  1  0  0  0
 52127  1  0  0  0
 53 54  1  0  0  0
 54 55  2  0  0  0
 54128  1  0  0  0
 55 57  1  0  0  0
 55129  1  0  0  0
 56 69  2  0  0  0
 57 58  2  0  0  0
 57130  1  0  0  0
 58131  1  0  0  0
 59 60  1  0  0  0
 59 61  1  0  0  0
 59 62  1  0  0  0
 60132  1  0  0  0
 60133  1  0  0  0
 60134  1  0  0  0
 61135  1  0  0  0
 61136  1  0  0  0
 61137  1  0  0  0
 62138  1  0  0  0
 62139  1  0  0  0
 62140  1  0  0  0
 63 65  1  0  0  0
 63141  1  0  0  0
 63142  1  0  0  0
 63143  1  0  0  0
 64144  1  0  0  0
 65145  1  0  0  0
 68 84  1  0  0  0
 71 73  2  0  0  0
 71 74  1  0  0  0
 71146  1  0  0  0
 72 75  2  0  0  0
 72 76  1  0  0  0
 72147  1  0  0  0
 73 75  1  0  0  0
 73 81  1  0  0  0
 74 76  2  0  0  0
 74 82  1  0  0  0
 75 83  1  0  0  0
 76 84  1  0  0  0
 77 79  1  0  0  0
 77 85  1  0  0  0
 77148  1  0  0  0
 77149  1  0  0  0
 78 80  1  0  0  0
 78 85  1  0  0  0
 78150  1  0  0  0
 78151  1  0  0  0
 79 86  1  0  0  0
 79152  1  0  0  0
 79153  1  0  0  0
 80 86  1  0  0  0
 80154  1  0  0  0
 80155  1  0  0  0
 81156  1  0  0  0
 81157  1  0  0  0
 81158  1  0  0  0
 82159  1  0  0  0
 82160  1  0  0  0
 82161  1  0  0  0
 83162  1  0  0  0
 83163  1  0  0  0
 83 86  1  0  0  0
 84164  1  0  0  0
 84165  1  0  0  0
 86166  1  0  0  0
M  CHG  1  86   1
M  ISO  4   1 100  68 101  84 101  85 100
M  END
> <chiral flag>
0

> <version>
0

> <s_m_source_file>
/data/baiqing/PycharmProjects/Reinvent-master-3.2/result/LINK_invent/BTK/process_docking_weight1_custom_sum_contain_oxygen_bond_distance_aromatic_linkinvent_7_9_3/rearranged_h_0166.sdf

> <i_m_source_file_index>
48

> <r_mmod_Potential_Energy-OPLS-2005>
189.247741699219

> <r_mmod_Stretch_Energy-OPLS-2005>
79.3420333862305

> <r_mmod_Bend_Energy-OPLS-2005>
159.885345458984

> <r_mmod_Torsional_Energy-OPLS-2005>
385.592132568359

> <r_mmod_Improper_Torsional_Energy-OPLS-2005>
5.81445360183716

> <r_mmod_Van_der_Waal_Energy-OPLS-2005>
163.645919799805

> <r_mmod_Electrostatic_Energy-OPLS-2005>
-216.518356323242

> <r_mmod_Solvation_Energy-OPLS-2005>
-440.008209228516

> <b_mmod_Minimization_Converged-OPLS-2005>
0

> <r_mmod_RMS_Derivative-OPLS-2005>
2.51041054725647

$$$$
48
                    3D
 Structure written by MMmdl.
184194  0  0  1  0            999 V2000
  -30.7615  -14.4878   20.5505 C   0  0  0  0  0  0
  -30.4087  -12.3204   19.4237 C   0  0  0  0  0  0
  -29.4821  -12.4950   18.2056 C   0  0  0  0  0  0
  -28.0094  -12.3509   18.6306 C   0  0  0  0  0  0
  -27.6521  -13.2142   19.8688 C   0  0  2  0  0  0
  -28.7054  -13.0691   20.9912 C   0  0  0  0  0  0
  -25.2548  -13.8166   20.5743 C   0  0  0  0  0  0
  -24.1804  -13.0413   20.9204 C   0  0  0  0  0  0
  -24.6389  -11.6900   20.8779 C   0  0  0  0  0  0
  -23.9061  -10.4282   21.0432 C   0  0  0  0  0  0
  -24.3601   -9.4189   21.9201 C   0  0  0  0  0  0
  -23.6270   -8.2232   22.0768 C   0  0  0  0  0  0
  -22.4258   -8.0272   21.3546 C   0  0  0  0  0  0
  -21.9906   -9.0260   20.4651 C   0  0  0  0  0  0
  -22.7244  -10.2129   20.3073 C   0  0  0  0  0  0
  -21.6851   -6.0719   22.5275 C   0  0  0  0  0  0
  -21.4019   -6.5632   23.8207 C   0  0  0  0  0  0
  -21.3654   -5.6799   24.9174 C   0  0  0  0  0  0
  -21.6046   -4.3064   24.7235 C   0  0  0  0  0  0
  -21.8817   -3.8137   23.4360 C   0  0  0  0  0  0
  -21.9192   -4.6943   22.3412 C   0  0  0  0  0  0
  -22.7827  -13.5215   21.1859 C   0  0  0  0  0  0
  -22.1671   -4.2118   21.0997 F   0  0  0  0  0  0
  -21.5618   -3.4554   25.7751 F   0  0  0  0  0  0
  -30.0323  -13.3426   20.4137 N   0  0  0  0  0  0
  -26.2983  -12.9354   20.3408 N   0  0  0  0  0  0
  -25.9316  -11.6509   20.5814 N   0  0  0  0  0  0
  -22.0487  -12.8183   22.0418 N   0  0  0  0  0  0
  -25.4214  -15.1890   20.4185 N   0  0  0  0  0  0
  -31.9290  -14.5662   20.1711 O   0  0  0  0  0  0
  -21.6623   -6.8864   21.4237 O   0  0  0  0  0  0
  -22.3503  -14.5515   20.6711 O   0  0  0  0  0  0
  -24.6114  -31.8696   23.2136 C   0  0  0  0  0  0
  -25.9016  -32.4834   23.8419 C   0  0  1  0  0  0
  -27.2317  -27.4535   20.0973 C   0  0  0  0  0  0
  -25.5884  -33.8630   24.2356 N   0  0  0  0  0  0
  -23.3986  -30.4938   21.5533 C   0  0  2  0  0  0
  -24.8464  -28.9658   20.1141 C   0  0  0  0  0  0
  -22.7400  -29.4653   22.4996 C   0  0  0  0  0  0
  -18.0263  -28.1384   22.8484 C   0  0  0  0  0  0
  -24.1481  -36.7318   23.2637 C   0  0  0  0  0  0
  -25.9248  -30.8459   21.3599 C   0  0  0  0  0  0
  -26.0054  -29.4809   20.7082 C   0  0  0  0  0  0
  -27.2046  -28.7340   20.6925 C   0  0  0  0  0  0
  -26.0606  -26.9559   19.4837 C   0  0  0  0  0  0
  -24.8687  -27.7036   19.4958 C   0  0  0  0  0  0
  -23.6063  -29.8294   20.1666 C   0  0  0  0  0  0
  -25.4097  -36.3120   24.0345 C   0  0  1  0  0  0
  -20.5852  -28.3663   23.1325 C   0  0  2  0  0  0
  -20.6752  -26.9400   22.5424 C   0  0  0  0  0  0
  -19.5746  -26.6390   21.5207 C   0  0  0  0  0  0
  -18.1915  -26.7932   22.1607 C   0  0  0  0  0  0
  -19.1512  -28.8839   23.2903 C   0  0  0  0  0  0
  -18.9439  -30.1444   23.8917 C   0  0  0  0  0  0
  -17.6439  -30.6583   24.0568 C   0  0  0  0  0  0
  -25.9021  -34.9485   23.5149 C   0  0  0  0  0  0
  -16.5331  -29.9090   23.6318 C   0  0  0  0  0  0
  -16.7250  -28.6506   23.0332 C   0  0  0  0  0  0
  -26.4462  -31.6594   25.0724 C   0  0  0  0  0  0
  -25.3746  -31.3653   26.1481 C   0  0  0  0  0  0
  -27.0283  -30.3053   24.6044 C   0  0  0  0  0  0
  -27.6064  -32.4294   25.7471 C   0  0  0  0  0  0
  -27.5592  -37.1797   24.8453 C   0  0  0  0  0  0
  -21.4127  -29.3029   22.3740 N   0  0  0  0  0  0
  -26.4283  -37.3811   23.9427 N   0  0  0  0  0  0
  -24.6636  -31.0819   22.1026 N   0  0  0  0  0  0
  -23.4186  -28.8190   23.3018 O   0  0  0  0  0  0
  -28.3913  -26.7140   20.0956 O   0  0  0  0  0  0
  -26.5587  -34.8934   22.4712 O   0  0  0  0  0  0
  -23.5313  -32.1427   23.7550 O   0  0  0  0  0  0
  -33.8762  -20.7322   18.4969 C   0  0  0  0  0  0
  -31.8594  -20.4846   19.8851 C   0  0  0  0  0  0
  -32.8737  -21.3072   19.2937 C   0  0  0  0  0  0
  -33.9145  -19.3562   18.2495 C   0  0  0  0  0  0
  -32.9437  -18.5158   18.8426 C   0  0  0  0  0  0
  -31.9374  -19.0600   19.6937 C   0  0  0  0  0  0
  -31.0352  -21.9839   21.8906 C   0  0  0  0  0  0
  -29.7362  -17.8627   19.8949 C   0  0  0  0  0  0
  -31.5410  -17.6090   21.6444 C   0  0  0  0  0  0
  -29.2881  -16.3879   20.1110 C   0  0  0  0  0  0
  -30.7192  -16.3803   22.1163 C   0  0  0  0  0  0
  -29.7918  -22.8636   22.0602 C   0  0  0  0  0  0
  -30.6872  -21.1238   20.6704 C   0  0  1  0  0  0
  -29.7497  -22.0116   19.8106 C   0  0  1  0  0  0
  -33.0118  -22.8177   19.4760 C   0  0  0  0  0  0
  -35.0240  -18.8233   17.3546 C   0  0  0  0  0  0
  -32.9911  -17.0168   18.5706 C   0  0  0  0  0  0
  -28.6030  -21.2187   19.1668 C   0  0  0  0  0  0
  -29.3546  -24.4643   20.1811 C   0  0  0  0  0  0
  -28.2874  -25.4320   20.7336 C   0  0  0  0  0  0
  -31.0915  -18.1391   20.3615 N   0  0  0  0  0  0
  -30.1259  -15.5841   21.0283 N   0  0  0  0  0  0
  -29.2108  -23.0723   20.7089 N   0  3  2  0  0  0
  -31.4512  -12.3980   19.1119 H   0  0  0  0  0  0
  -30.2967  -11.3240   19.8547 H   0  0  0  0  0  0
  -29.7212  -11.7597   17.4357 H   0  0  0  0  0  0
  -29.6408  -13.4756   17.7548 H   0  0  0  0  0  0
  -27.8274  -11.2973   18.8487 H   0  0  0  0  0  0
  -27.3529  -12.6059   17.7990 H   0  0  0  0  0  0
  -27.6639  -14.2474   19.5304 H   0  0  0  0  0  0
  -28.6852  -12.0633   21.4115 H   0  0  0  0  0  0
  -28.4766  -13.7454   21.8182 H   0  0  0  0  0  0
  -25.2747   -9.5662   22.4775 H   0  0  0  0  0  0
  -23.9970   -7.4627   22.7491 H   0  0  0  0  0  0
  -21.0840   -8.8789   19.8956 H   0  0  0  0  0  0
  -22.3713  -10.9671   19.6190 H   0  0  0  0  0  0
  -21.2037   -7.6147   23.9681 H   0  0  0  0  0  0
  -21.1477   -6.0545   25.9061 H   0  0  0  0  0  0
  -22.0606   -2.7594   23.2867 H   0  0  0  0  0  0
  -22.4121  -11.9829   22.4765 H   0  0  0  0  0  0
  -21.1106  -13.1174   22.2667 H   0  0  0  0  0  0
  -24.6509  -15.8381   20.5398 H   0  0  0  0  0  0
  -26.2760  -15.6396   20.1181 H   0  0  0  0  0  0
  -26.7088  -32.5569   23.1192 H   0  0  0  0  0  0
  -25.0042  -33.9805   25.0509 H   0  0  0  0  0  0
  -22.6842  -31.3089   21.4183 H   0  0  0  0  0  0
  -23.3776  -35.9611   23.3229 H   0  0  0  0  0  0
  -24.3595  -36.9008   22.2066 H   0  0  0  0  0  0
  -23.7188  -37.6480   23.6701 H   0  0  0  0  0  0
  -26.0248  -31.6124   20.5902 H   0  0  0  0  0  0
  -26.8168  -30.9074   21.9704 H   0  0  0  0  0  0
  -28.1028  -29.1306   21.1453 H   0  0  0  0  0  0
  -26.0665  -25.9963   18.9852 H   0  0  0  0  0  0
  -23.9808  -27.3096   19.0212 H   0  0  0  0  0  0
  -23.7117  -30.6068   19.4088 H   0  0  0  0  0  0
  -22.7301  -29.2473   19.8720 H   0  0  0  0  0  0
  -25.1263  -36.1981   25.0835 H   0  0  0  0  0  0
  -20.9931  -28.3229   24.1454 H   0  0  0  0  0  0
  -20.5642  -26.2263   23.3610 H   0  0  0  0  0  0
  -21.6628  -26.7438   22.1239 H   0  0  0  0  0  0
  -19.6905  -25.6306   21.1229 H   0  0  0  0  0  0
  -19.6697  -27.3198   20.6735 H   0  0  0  0  0  0
  -17.4194  -26.6686   21.3998 H   0  0  0  0  0  0
  -18.0300  -26.0068   22.8992 H   0  0  0  0  0  0
  -19.7911  -30.7254   24.2300 H   0  0  0  0  0  0
  -17.4992  -31.6258   24.5179 H   0  0  0  0  0  0
  -15.5332  -30.2994   23.7635 H   0  0  0  0  0  0
  -15.8648  -28.0834   22.7033 H   0  0  0  0  0  0
  -24.5942  -30.6977   25.7809 H   0  0  0  0  0  0
  -24.8893  -32.2776   26.4952 H   0  0  0  0  0  0
  -25.8128  -30.8817   27.0223 H   0  0  0  0  0  0
  -26.2792  -29.6809   24.1162 H   0  0  0  0  0  0
  -27.4148  -29.7289   25.4458 H   0  0  0  0  0  0
  -27.8582  -30.4394   23.9102 H   0  0  0  0  0  0
  -27.2727  -33.3616   26.2035 H   0  0  0  0  0  0
  -28.3865  -32.6813   25.0277 H   0  0  0  0  0  0
  -28.0727  -31.8407   26.5379 H   0  0  0  0  0  0
  -28.2564  -38.0147   24.7592 H   0  0  0  0  0  0
  -28.1139  -36.2683   24.6162 H   0  0  0  0  0  0
  -27.2327  -37.1303   25.8858 H   0  0  0  0  0  0
  -20.9282  -29.8762   21.6980 H   0  0  0  0  0  0
  -26.0170  -38.2872   24.1502 H   0  0  0  0  0  0
  -34.6346  -21.3678   18.0587 H   0  0  0  0  0  0
  -31.2478  -21.3827   22.7736 H   0  0  0  0  0  0
  -31.8984  -22.6241   21.7391 H   0  0  0  0  0  0
  -29.0419  -18.5128   20.4280 H   0  0  0  0  0  0
  -29.6494  -18.1195   18.8376 H   0  0  0  0  0  0
  -32.5891  -17.3160   21.5426 H   0  0  0  0  0  0
  -31.5168  -18.3962   22.4003 H   0  0  0  0  0  0
  -29.2531  -15.9130   19.1286 H   0  0  0  0  0  0
  -28.2632  -16.3763   20.4838 H   0  0  0  0  0  0
  -29.8966  -16.7320   22.7391 H   0  0  0  0  0  0
  -31.3310  -15.7556   22.7712 H   0  0  0  0  0  0
  -30.0109  -23.7926   22.5908 H   0  0  0  0  0  0
  -29.0542  -22.3242   22.6562 H   0  0  0  0  0  0
  -30.0702  -20.3316   21.0851 H   0  0  0  0  0  0
  -30.3080  -22.4698   18.9959 H   0  0  0  0  0  0
  -33.6793  -23.0234   20.3143 H   0  0  0  0  0  0
  -32.0889  -23.3575   19.6473 H   0  0  0  0  0  0
  -33.4647  -23.2718   18.5930 H   0  0  0  0  0  0
  -35.8110  -19.5657   17.2130 H   0  0  0  0  0  0
  -34.6285  -18.5715   16.3701 H   0  0  0  0  0  0
  -35.4946  -17.9378   17.7822 H   0  0  0  0  0  0
  -33.5290  -16.7606   17.6602 H   0  0  0  0  0  0
  -31.9870  -16.6133   18.4450 H   0  0  0  0  0  0
  -33.4713  -16.5086   19.4063 H   0  0  0  0  0  0
  -27.9307  -20.7959   19.9143 H   0  0  0  0  0  0
  -28.9949  -20.3928   18.5720 H   0  0  0  0  0  0
  -28.0164  -21.8480   18.4969 H   0  0  0  0  0  0
  -30.3539  -24.8516   20.3862 H   0  0  0  0  0  0
  -29.2451  -24.4521   19.0952 H   0  0  0  0  0  0
  -28.4200  -25.5743   21.8070 H   0  0  0  0  0  0
  -27.3023  -24.9819   20.6045 H   0  0  0  0  0  0
  -28.2204  -22.8945   20.7892 H   0  0  0  0  0  0
  1 25  1  0  0  0
  1 30  2  0  0  0
  1 92  1  0  0  0
  2  3  1  0  0  0
  2 25  1  0  0  0
  2 94  1  0  0  0
  2 95  1  0  0  0
  3  4  1  0  0  0
  3 96  1  0  0  0
  3 97  1  0  0  0
  4  5  1  0  0  0
  4 98  1  0  0  0
  4 99  1  0  0  0
  5  6  1  0  0  0
  5 26  1  0  0  0
  5100  1  0  0  0
  6 25  1  0  0  0
  6101  1  0  0  0
  6102  1  0  0  0
  7  8  2  0  0  0
  7 26  1  0  0  0
  7 29  1  0  0  0
  8  9  1  0  0  0
  8 22  1  0  0  0
  9 10  1  0  0  0
  9 27  2  0  0  0
 10 11  2  0  0  0
 10 15  1  0  0  0
 11 12  1  0  0  0
 11103  1  0  0  0
 12 13  2  0  0  0
 12104  1  0  0  0
 13 14  1  0  0  0
 13 31  1  0  0  0
 14 15  2  0  0  0
 14105  1  0  0  0
 15106  1  0  0  0
 16 17  2  0  0  0
 16 21  1  0  0  0
 16 31  1  0  0  0
 17 18  1  0  0  0
 17107  1  0  0  0
 18 19  2  0  0  0
 18108  1  0  0  0
 19 20  1  0  0  0
 19 24  1  0  0  0
 20 21  2  0  0  0
 20109  1  0  0  0
 21 23  1  0  0  0
 22 28  1  0  0  0
 22 32  2  0  0  0
 26 27  1  0  0  0
 28110  1  0  0  0
 28111  1  0  0  0
 29112  1  0  0  0
 29113  1  0  0  0
 33 34  1  0  0  0
 33 66  1  0  0  0
 33 70  2  0  0  0
 34 36  1  0  0  0
 34 59  1  0  0  0
 34114  1  0  0  0
 35 44  2  0  0  0
 35 45  1  0  0  0
 35 68  1  0  0  0
 36 56  1  0  0  0
 36115  1  0  0  0
 37 39  1  0  0  0
 37 47  1  0  0  0
 37 66  1  0  0  0
 37116  1  0  0  0
 38 43  2  0  0  0
 38 46  1  0  0  0
 38 47  1  0  0  0
 39 64  1  0  0  0
 39 67  2  0  0  0
 40 52  1  0  0  0
 40 53  2  0  0  0
 40 58  1  0  0  0
 41117  1  0  0  0
 41118  1  0  0  0
 41119  1  0  0  0
 41 48  1  0  0  0
 42 43  1  0  0  0
 42 66  1  0  0  0
 42120  1  0  0  0
 42121  1  0  0  0
 43 44  1  0  0  0
 44122  1  0  0  0
 45 46  2  0  0  0
 45123  1  0  0  0
 46124  1  0  0  0
 47125  1  0  0  0
 47126  1  0  0  0
 48 56  1  0  0  0
 48 65  1  0  0  0
 48127  1  0  0  0
 49 50  1  0  0  0
 49 53  1  0  0  0
 49 64  1  0  0  0
 49128  1  0  0  0
 50 51  1  0  0  0
 50129  1  0  0  0
 50130  1  0  0  0
 51 52  1  0  0  0
 51131  1  0  0  0
 51132  1  0  0  0
 52133  1  0  0  0
 52134  1  0  0  0
 53 54  1  0  0  0
 54 55  2  0  0  0
 54135  1  0  0  0
 55 57  1  0  0  0
 55136  1  0  0  0
 56 69  2  0  0  0
 57 58  2  0  0  0
 57137  1  0  0  0
 58138  1  0  0  0
 59 60  1  0  0  0
 59 61  1  0  0  0
 59 62  1  0  0  0
 60139  1  0  0  0
 60140  1  0  0  0
 60141  1  0  0  0
 61142  1  0  0  0
 61143  1  0  0  0
 61144  1  0  0  0
 62145  1  0  0  0
 62146  1  0  0  0
 62147  1  0  0  0
 63 65  1  0  0  0
 63148  1  0  0  0
 63149  1  0  0  0
 63150  1  0  0  0
 64151  1  0  0  0
 65152  1  0  0  0
 68 90  1  0  0  0
 71 73  2  0  0  0
 71 74  1  0  0  0
 71153  1  0  0  0
 72 73  1  0  0  0
 72 76  2  0  0  0
 72 83  1  0  0  0
 73 85  1  0  0  0
 74 75  2  0  0  0
 74 86  1  0  0  0
 75 76  1  0  0  0
 75 87  1  0  0  0
 76 91  1  0  0  0
 77 82  1  0  0  0
 77 83  1  0  0  0
 77154  1  0  0  0
 77155  1  0  0  0
 78 80  1  0  0  0
 78 91  1  0  0  0
 78156  1  0  0  0
 78157  1  0  0  0
 79 81  1  0  0  0
 79 91  1  0  0  0
 79158  1  0  0  0
 79159  1  0  0  0
 80 92  1  0  0  0
 80160  1  0  0  0
 80161  1  0  0  0
 81 92  1  0  0  0
 81162  1  0  0  0
 81163  1  0  0  0
 82 93  1  0  0  0
 82164  1  0  0  0
 82165  1  0  0  0
 83 84  1  0  0  0
 83166  1  0  0  0
 84 88  1  0  0  0
 84 93  1  0  0  0
 84167  1  0  0  0
 85168  1  0  0  0
 85169  1  0  0  0
 85170  1  0  0  0
 86171  1  0  0  0
 86172  1  0  0  0
 86173  1  0  0  0
 87174  1  0  0  0
 87175  1  0  0  0
 87176  1  0  0  0
 88177  1  0  0  0
 88178  1  0  0  0
 88179  1  0  0  0
 89 90  1  0  0  0
 89180  1  0  0  0
 89181  1  0  0  0
 89 93  1  0  0  0
 90182  1  0  0  0
 90183  1  0  0  0
 93184  1  0  0  0
M  CHG  1  93   1
M  ISO  4   1 100  68 101  90 101  92 100
M  END
> <chiral flag>
0

> <version>
0

> <s_m_source_file>
/data/baiqing/PycharmProjects/Reinvent-master-3.2/result/LINK_invent/BTK/process_docking_weight1_custom_sum_contain_oxygen_bond_distance_aromatic_linkinvent_7_9_3/rearranged_h_0166.sdf

> <i_m_source_file_index>
49

> <r_mmod_Potential_Energy-OPLS-2005>
182.380599975586

> <r_mmod_Stretch_Energy-OPLS-2005>
48.8773803710938

> <r_mmod_Bend_Energy-OPLS-2005>
146.997909545898

> <r_mmod_Torsional_Energy-OPLS-2005>
485.210266113281

> <r_mmod_Improper_Torsional_Energy-OPLS-2005>
4.79103231430054

> <r_mmod_Van_der_Waal_Energy-OPLS-2005>
159.055267333984

> <r_mmod_Electrostatic_Energy-OPLS-2005>
-267.222839355469

> <r_mmod_Solvation_Energy-OPLS-2005>
-414.412445068359

> <b_mmod_Minimization_Converged-OPLS-2005>
0

> <r_mmod_RMS_Derivative-OPLS-2005>
2.58844232559204

$$$$
49
                    3D
 Structure written by MMmdl.
169179  0  0  1  0            999 V2000
  -29.5336  -16.0207   20.7260 C   0  0  0  0  0  0
  -30.2524  -13.4780   19.7303 C   0  0  0  0  0  0
  -29.5437  -12.8350   18.4773 C   0  0  0  0  0  0
  -28.1483  -12.3150   18.8387 C   0  0  0  0  0  0
  -27.5065  -13.2934   19.8392 C   0  0  2  0  0  0
  -28.3689  -13.6413   21.0569 C   0  0  0  0  0  0
  -25.1808  -13.8156   20.5642 C   0  0  0  0  0  0
  -24.1307  -13.0319   20.9271 C   0  0  0  0  0  0
  -24.6044  -11.6834   20.8756 C   0  0  0  0  0  0
  -23.8876  -10.4210   21.0441 C   0  0  0  0  0  0
  -24.3519   -9.4165   21.9202 C   0  0  0  0  0  0
  -23.6241   -8.2181   22.0759 C   0  0  0  0  0  0
  -22.4226   -8.0210   21.3545 C   0  0  0  0  0  0
  -21.9811   -9.0155   20.4647 C   0  0  0  0  0  0
  -22.7086  -10.2047   20.3063 C   0  0  0  0  0  0
  -21.6831   -6.0697   22.5292 C   0  0  0  0  0  0
  -21.3996   -6.5616   23.8220 C   0  0  0  0  0  0
  -21.3650   -5.6777   24.9186 C   0  0  0  0  0  0
  -21.6043   -4.3040   24.7242 C   0  0  0  0  0  0
  -21.8823   -3.8123   23.4367 C   0  0  0  0  0  0
  -21.9189   -4.6932   22.3419 C   0  0  0  0  0  0
  -22.7405  -13.5114   21.1992 C   0  0  0  0  0  0
  -22.1662   -4.2122   21.0996 F   0  0  0  0  0  0
  -21.5631   -3.4530   25.7759 F   0  0  0  0  0  0
  -29.3764  -14.5359   20.5197 N   0  0  0  0  0  0
  -26.2027  -12.9359   20.2894 N   0  0  0  0  0  0
  -25.8896  -11.6481   20.5521 N   0  0  0  0  0  0
  -22.0114  -12.8120   22.0585 N   0  0  0  0  0  0
  -25.3496  -15.1910   20.4176 N   0  0  0  0  0  0
  -30.7698  -16.0947   20.4167 O   0  0  0  0  0  0
  -21.6606   -6.8813   21.4244 O   0  0  0  0  0  0
  -22.3137  -14.5445   20.6852 O   0  0  0  0  0  0
  -24.7077  -31.8973   23.2206 C   0  0  0  0  0  0
  -25.9704  -32.5153   23.8654 C   0  0  1  0  0  0
  -26.4650  -27.2408   20.2135 C   0  0  0  0  0  0
  -25.6217  -33.8843   24.2491 N   0  0  0  0  0  0
  -23.7397  -30.2170   21.7522 C   0  0  2  0  0  0
  -24.9952  -29.3170   19.8093 C   0  0  0  0  0  0
  -24.0026  -28.8570   22.6513 C   0  0  0  0  0  0
  -18.2038  -27.7486   22.7882 C   0  0  0  0  0  0
  -24.1493  -36.7392   23.2591 C   0  0  0  0  0  0
  -26.1343  -30.8226   21.4467 C   0  0  0  0  0  0
  -26.1113  -29.5425   20.6141 C   0  0  0  0  0  0
  -26.9820  -28.4529   20.7638 C   0  0  0  0  0  0
  -25.9783  -27.2935   18.9420 C   0  0  0  0  0  0
  -24.9682  -28.2602   18.8756 C   0  0  0  0  0  0
  -23.8334  -30.1447   20.1524 C   0  0  0  0  0  0
  -25.4103  -36.3232   24.0327 C   0  0  1  0  0  0
  -21.0613  -27.0431   22.8826 C   0  0  2  0  0  0
  -20.6207  -25.9569   21.9945 C   0  0  0  0  0  0
  -19.3187  -26.1991   21.2313 C   0  0  0  0  0  0
  -18.1171  -26.4220   22.1370 C   0  0  0  0  0  0
  -19.5409  -28.2174   23.0338 C   0  0  0  0  0  0
  -19.3113  -29.6609   23.4258 C   0  0  0  0  0  0
  -18.0821  -30.3428   23.7512 C   0  0  0  0  0  0
  -25.9092  -34.9632   23.5135 C   0  0  0  0  0  0
  -16.8581  -29.7060   23.5604 C   0  0  0  0  0  0
  -16.9479  -28.4147   23.0284 C   0  0  0  0  0  0
  -26.4990  -31.6967   25.1077 C   0  0  0  0  0  0
  -25.3992  -31.3465   26.1400 C   0  0  0  0  0  0
  -27.2310  -30.4005   24.6822 C   0  0  0  0  0  0
  -27.5886  -32.5162   25.8314 C   0  0  0  0  0  0
  -27.5584  -37.1878   24.8463 C   0  0  0  0  0  0
  -23.2402  -27.6347   22.8093 N   0  0  0  0  0  0
  -26.4287  -37.3909   23.9427 N   0  0  0  0  0  0
  -24.8454  -31.0921   22.1395 N   0  0  0  0  0  0
  -24.6187  -28.9391   23.6649 O   0  0  0  0  0  0
  -25.3399  -26.7307   20.9100 O   0  0  0  0  0  0
  -26.5543  -34.9048   22.4630 O   0  0  0  0  0  0
  -23.6034  -32.1407   23.7338 O   0  0  0  0  0  0
  -24.6785  -23.8632   21.6197 C   0  0  0  0  0  0
  -24.8051  -22.8979   23.6018 C   0  0  0  0  0  0
  -23.8272  -25.2197   22.0753 C   0  0  0  0  0  0
  -23.4518  -25.3645   23.6608 C   0  0  0  0  0  0
  -24.0366  -24.0903   24.2076 C   0  0  0  0  0  0
  -25.3109  -22.4975   22.2492 C   0  0  0  0  0  0
  -22.6177  -26.8651   24.8237 C   0  0  0  0  0  0
  -21.8336  -28.8390   23.9682 C   0  0  0  0  0  0
  -21.9060  -28.4272   21.2874 C   0  0  0  0  0  0
  -27.0579  -20.2905   20.6401 C   0  0  0  0  0  0
  -26.7299  -19.6419   22.5717 C   0  0  0  0  0  0
  -28.4132  -18.9842   20.6296 C   0  0  0  0  0  0
  -27.2373  -17.9447   21.9275 C   0  0  0  0  0  0
  -23.5641  -26.6457   20.8040 C   0  0  1  0  0  0
  -23.8422  -23.9906   25.7117 C   0  0  0  0  0  0
  -23.1743  -25.9505   19.4740 C   0  0  0  0  0  0
  -26.2286  -21.0311   21.8467 N   0  0  0  0  0  0
  -28.4976  -17.3512   20.9968 N   0  0  0  0  0  0
  -31.1682  -13.9497   19.3726 H   0  0  0  0  0  0
  -30.6061  -12.6984   20.4069 H   0  0  0  0  0  0
  -30.1560  -12.0408   18.0482 H   0  0  0  0  0  0
  -29.4455  -13.5988   17.7043 H   0  0  0  0  0  0
  -28.2474  -11.3317   19.3002 H   0  0  0  0  0  0
  -27.5316  -12.1885   17.9480 H   0  0  0  0  0  0
  -27.3634  -14.2014   19.2495 H   0  0  0  0  0  0
  -28.7581  -12.7624   21.5734 H   0  0  0  0  0  0
  -27.7908  -14.1996   21.7963 H   0  0  0  0  0  0
  -25.2663   -9.5690   22.4767 H   0  0  0  0  0  0
  -23.9973   -7.4577   22.7472 H   0  0  0  0  0  0
  -21.0744   -8.8642   19.8961 H   0  0  0  0  0  0
  -22.3526  -10.9586   19.6180 H   0  0  0  0  0  0
  -21.1976   -7.6124   23.9714 H   0  0  0  0  0  0
  -21.1471   -6.0510   25.9087 H   0  0  0  0  0  0
  -22.0612   -2.7587   23.2877 H   0  0  0  0  0  0
  -22.3747  -11.9773   22.4944 H   0  0  0  0  0  0
  -21.0754  -13.1165   22.2855 H   0  0  0  0  0  0
  -24.5740  -15.8335   20.5345 H   0  0  0  0  0  0
  -26.1783  -15.6338   20.0443 H   0  0  0  0  0  0
  -26.7892  -32.5801   23.1509 H   0  0  0  0  0  0
  -25.0463  -33.9951   25.0706 H   0  0  0  0  0  0
  -22.7938  -30.6860   22.0271 H   0  0  0  0  0  0
  -23.3768  -35.9708   23.3248 H   0  0  0  0  0  0
  -24.3607  -36.8993   22.2007 H   0  0  0  0  0  0
  -23.7221  -37.6597   23.6580 H   0  0  0  0  0  0
  -26.3524  -31.6570   20.7784 H   0  0  0  0  0  0
  -26.9876  -30.7425   22.1107 H   0  0  0  0  0  0
  -27.7123  -28.4504   21.5607 H   0  0  0  0  0  0
  -25.8896  -26.4129   18.3229 H   0  0  0  0  0  0
  -24.1782  -28.1866   18.1434 H   0  0  0  0  0  0
  -24.0179  -31.1521   19.7722 H   0  0  0  0  0  0
  -23.0241  -29.8307   19.5037 H   0  0  0  0  0  0
  -25.1255  -36.2098   25.0816 H   0  0  0  0  0  0
  -20.7225  -26.5169   23.7714 H   0  0  0  0  0  0
  -20.5012  -25.0246   22.5540 H   0  0  0  0  0  0
  -21.3658  -25.6970   21.2767 H   0  0  0  0  0  0
  -19.1222  -25.2927   20.6576 H   0  0  0  0  0  0
  -19.3612  -26.9759   20.4717 H   0  0  0  0  0  0
  -17.2056  -26.3589   21.5393 H   0  0  0  0  0  0
  -18.0486  -25.6434   22.8986 H   0  0  0  0  0  0
  -20.1358  -30.3540   23.5025 H   0  0  0  0  0  0
  -18.1069  -31.3721   24.0822 H   0  0  0  0  0  0
  -15.9115  -30.1928   23.7530 H   0  0  0  0  0  0
  -16.0247  -27.9014   22.7962 H   0  0  0  0  0  0
  -24.6693  -30.6405   25.7439 H   0  0  0  0  0  0
  -24.8563  -32.2345   26.4658 H   0  0  0  0  0  0
  -25.8251  -30.8862   27.0322 H   0  0  0  0  0  0
  -26.6863  -29.7477   24.0269 H   0  0  0  0  0  0
  -27.5121  -29.8039   25.5508 H   0  0  0  0  0  0
  -28.1571  -30.6343   24.1549 H   0  0  0  0  0  0
  -27.1831  -33.4114   26.3038 H   0  0  0  0  0  0
  -28.3718  -32.8399   25.1444 H   0  0  0  0  0  0
  -28.0681  -31.9399   26.6244 H   0  0  0  0  0  0
  -28.2596  -38.0188   24.7566 H   0  0  0  0  0  0
  -28.1097  -36.2732   24.6225 H   0  0  0  0  0  0
  -27.2313  -37.1450   25.8867 H   0  0  0  0  0  0
  -23.7746  -26.9629   23.3434 H   0  0  0  0  0  0
  -26.0185  -38.2981   24.1466 H   0  0  0  0  0  0
  -24.9077  -23.9130   20.5662 H   0  0  0  0  0  0
  -25.0742  -22.1520   24.3362 H   0  0  0  0  0  0
  -23.4055  -27.1425   25.5244 H   0  0  0  0  0  0
  -21.8770  -26.4166   25.4901 H   0  0  0  0  0  0
  -22.3879  -29.7210   24.3019 H   0  0  0  0  0  0
  -21.0295  -28.9416   24.6886 H   0  0  0  0  0  0
  -21.7024  -29.3365   20.7550 H   0  0  0  0  0  0
  -20.9990  -28.0808   20.8207 H   0  0  0  0  0  0
  -26.2822  -19.9139   19.9708 H   0  0  0  0  0  0
  -27.4826  -21.1275   20.0842 H   0  0  0  0  0  0
  -27.5512  -19.9588   23.2183 H   0  0  0  0  0  0
  -25.9263  -19.4307   23.2790 H   0  0  0  0  0  0
  -29.2741  -19.4272   21.1338 H   0  0  0  0  0  0
  -28.7244  -18.9712   19.5843 H   0  0  0  0  0  0
  -26.3434  -17.5473   21.4443 H   0  0  0  0  0  0
  -27.3213  -17.3363   22.8289 H   0  0  0  0  0  0
  -24.2122  -23.0544   26.1273 H   0  0  0  0  0  0
  -22.7837  -24.0653   25.9667 H   0  0  0  0  0  0
  -24.3679  -24.8036   26.2151 H   0  0  0  0  0  0
  -22.7839  -26.6580   18.7466 H   0  0  0  0  0  0
  -22.4101  -25.1873   19.5921 H   0  0  0  0  0  0
  -24.0180  -25.4276   19.0293 H   0  0  0  0  0  0
  1 25  1  0  0  0
  1 30  2  0  0  0
  1 88  1  0  0  0
  2  3  1  0  0  0
  2 25  1  0  0  0
  2 89  1  0  0  0
  2 90  1  0  0  0
  3  4  1  0  0  0
  3 91  1  0  0  0
  3 92  1  0  0  0
  4  5  1  0  0  0
  4 93  1  0  0  0
  4 94  1  0  0  0
  5  6  1  0  0  0
  5 26  1  0  0  0
  5 95  1  0  0  0
  6 25  1  0  0  0
  6 96  1  0  0  0
  6 97  1  0  0  0
  7  8  2  0  0  0
  7 26  1  0  0  0
  7 29  1  0  0  0
  8  9  1  0  0  0
  8 22  1  0  0  0
  9 10  1  0  0  0
  9 27  2  0  0  0
 10 11  2  0  0  0
 10 15  1  0  0  0
 11 12  1  0  0  0
 11 98  1  0  0  0
 12 13  2  0  0  0
 12 99  1  0  0  0
 13 14  1  0  0  0
 13 31  1  0  0  0
 14 15  2  0  0  0
 14100  1  0  0  0
 15101  1  0  0  0
 16 17  2  0  0  0
 16 21  1  0  0  0
 16 31  1  0  0  0
 17 18  1  0  0  0
 17102  1  0  0  0
 18 19  2  0  0  0
 18103  1  0  0  0
 19 20  1  0  0  0
 19 24  1  0  0  0
 20 21  2  0  0  0
 20104  1  0  0  0
 21 23  1  0  0  0
 22 28  1  0  0  0
 22 32  2  0  0  0
 26 27  1  0  0  0
 28105  1  0  0  0
 28106  1  0  0  0
 29107  1  0  0  0
 29108  1  0  0  0
 33 34  1  0  0  0
 33 66  1  0  0  0
 33 70  2  0  0  0
 34 36  1  0  0  0
 34 59  1  0  0  0
 34109  1  0  0  0
 35 44  2  0  0  0
 35 45  1  0  0  0
 35 68  1  0  0  0
 36 56  1  0  0  0
 36110  1  0  0  0
 37 39  1  0  0  0
 37 47  1  0  0  0
 37 66  1  0  0  0
 37111  1  0  0  0
 38 43  2  0  0  0
 38 46  1  0  0  0
 38 47  1  0  0  0
 39 64  1  0  0  0
 39 67  2  0  0  0
 40 52  1  0  0  0
 40 53  2  0  0  0
 40 58  1  0  0  0
 41112  1  0  0  0
 41113  1  0  0  0
 41114  1  0  0  0
 41 48  1  0  0  0
 42 43  1  0  0  0
 42 66  1  0  0  0
 42115  1  0  0  0
 42116  1  0  0  0
 43 44  1  0  0  0
 44117  1  0  0  0
 45 46  2  0  0  0
 45118  1  0  0  0
 46119  1  0  0  0
 47120  1  0  0  0
 47121  1  0  0  0
 48 56  1  0  0  0
 48 65  1  0  0  0
 48122  1  0  0  0
 49 50  1  0  0  0
 49 53  1  0  0  0
 49 64  1  0  0  0
 49123  1  0  0  0
 50 51  1  0  0  0
 50124  1  0  0  0
 50125  1  0  0  0
 51 52  1  0  0  0
 51126  1  0  0  0
 51127  1  0  0  0
 52128  1  0  0  0
 52129  1  0  0  0
 53 54  1  0  0  0
 54 55  2  0  0  0
 54130  1  0  0  0
 55 57  1  0  0  0
 55131  1  0  0  0
 56 69  2  0  0  0
 57 58  2  0  0  0
 57132  1  0  0  0
 58133  1  0  0  0
 59 60  1  0  0  0
 59 61  1  0  0  0
 59 62  1  0  0  0
 60134  1  0  0  0
 60135  1  0  0  0
 60136  1  0  0  0
 61137  1  0  0  0
 61138  1  0  0  0
 61139  1  0  0  0
 62140  1  0  0  0
 62141  1  0  0  0
 62142  1  0  0  0
 63 65  1  0  0  0
 63143  1  0  0  0
 63144  1  0  0  0
 63145  1  0  0  0
 64146  1  0  0  0
 65147  1  0  0  0
 68 84  1  0  0  0
 71 73  2  0  0  0
 71 76  1  0  0  0
 71148  1  0  0  0
 72 75  1  0  0  0
 72 76  2  0  0  0
 72149  1  0  0  0
 73 74  1  0  0  0
 73 84  1  0  0  0
 74 75  2  0  0  0
 74 77  1  0  0  0
 75 85  1  0  0  0
 76 87  1  0  0  0
 77 78  1  0  0  0
 77150  1  0  0  0
 77151  1  0  0  0
 78 79  1  0  0  0
 78152  1  0  0  0
 78153  1  0  0  0
 79 84  1  0  0  0
 79154  1  0  0  0
 79155  1  0  0  0
 80 82  1  0  0  0
 80 87  1  0  0  0
 80156  1  0  0  0
 80157  1  0  0  0
 81 83  1  0  0  0
 81 87  1  0  0  0
 81158  1  0  0  0
 81159  1  0  0  0
 82 88  1  0  0  0
 82160  1  0  0  0
 82161  1  0  0  0
 83 88  1  0  0  0
 83162  1  0  0  0
 83163  1  0  0  0
 84 86  1  0  0  0
 85164  1  0  0  0
 85165  1  0  0  0
 85166  1  0  0  0
 86167  1  0  0  0
 86168  1  0  0  0
 86169  1  0  0  0
M  ISO  4   1 100  68 101  84 101  88 100
M  END
> <chiral flag>
0

> <version>
0

> <s_m_source_file>
/data/baiqing/PycharmProjects/Reinvent-master-3.2/result/LINK_invent/BTK/process_docking_weight1_custom_sum_contain_oxygen_bond_distance_aromatic_linkinvent_7_9_3/rearranged_h_0166.sdf

> <i_m_source_file_index>
50

> <r_mmod_Potential_Energy-OPLS-2005>
15354.8134765625

> <r_mmod_Stretch_Energy-OPLS-2005>
7015.939453125

> <r_mmod_Bend_Energy-OPLS-2005>
1795.15771484375

> <r_mmod_Torsional_Energy-OPLS-2005>
632.666259765625

> <r_mmod_Improper_Torsional_Energy-OPLS-2005>
56.4706878662109

> <r_mmod_Van_der_Waal_Energy-OPLS-2005>
2320.462890625

> <r_mmod_Electrostatic_Energy-OPLS-2005>
-357.689636230469

> <r_mmod_Solvation_Energy-OPLS-2005>
-228.222808837891

> <b_mmod_Minimization_Converged-OPLS-2005>
0

> <r_mmod_RMS_Derivative-OPLS-2005>
2.58804941177368

$$$$
50
                    3D
 Structure written by MMmdl.
182194  0  0  1  0            999 V2000
  -30.6039  -14.8484   20.4386 C   0  0  0  0  0  0
  -30.4329  -12.5210   19.4869 C   0  0  0  0  0  0
  -29.5130  -12.5135   18.2463 C   0  0  0  0  0  0
  -28.0447  -12.3200   18.6672 C   0  0  0  0  0  0
  -27.6367  -13.2438   19.8454 C   0  0  2  0  0  0
  -28.6838  -13.2343   20.9795 C   0  0  0  0  0  0
  -25.2498  -13.8224   20.5725 C   0  0  0  0  0  0
  -24.1793  -13.0439   20.9223 C   0  0  0  0  0  0
  -24.6412  -11.6930   20.8760 C   0  0  0  0  0  0
  -23.9094  -10.4295   21.0412 C   0  0  0  0  0  0
  -24.3643   -9.4209   21.9185 C   0  0  0  0  0  0
  -23.6305   -8.2249   22.0756 C   0  0  0  0  0  0
  -22.4286   -8.0296   21.3546 C   0  0  0  0  0  0
  -21.9932   -9.0272   20.4649 C   0  0  0  0  0  0
  -22.7271  -10.2145   20.3055 C   0  0  0  0  0  0
  -21.6852   -6.0750   22.5283 C   0  0  0  0  0  0
  -21.4017   -6.5648   23.8220 C   0  0  0  0  0  0
  -21.3654   -5.6798   24.9177 C   0  0  0  0  0  0
  -21.6042   -4.3061   24.7226 C   0  0  0  0  0  0
  -21.8816   -3.8156   23.4344 C   0  0  0  0  0  0
  -21.9193   -4.6977   22.3403 C   0  0  0  0  0  0
  -22.7819  -13.5218   21.1870 C   0  0  0  0  0  0
  -22.1659   -4.2164   21.0978 F   0  0  0  0  0  0
  -21.5625   -3.4542   25.7737 F   0  0  0  0  0  0
  -29.9684  -13.6160   20.3802 N   0  0  0  0  0  0
  -26.2932  -12.9452   20.3296 N   0  0  0  0  0  0
  -25.9343  -11.6582   20.5765 N   0  0  0  0  0  0
  -22.0465  -12.8192   22.0426 N   0  0  0  0  0  0
  -25.4190  -15.1941   20.4169 N   0  0  0  0  0  0
  -31.7967  -14.8945   20.1250 O   0  0  0  0  0  0
  -21.6636   -6.8899   21.4248 O   0  0  0  0  0  0
  -22.3497  -14.5518   20.6728 O   0  0  0  0  0  0
  -24.6392  -31.8453   23.1922 C   0  0  0  0  0  0
  -25.9188  -32.4703   23.8285 C   0  0  1  0  0  0
  -27.2296  -27.1861   20.1594 C   0  0  0  0  0  0
  -25.5957  -33.8510   24.2206 N   0  0  0  0  0  0
  -23.4418  -30.4636   21.5356 C   0  0  2  0  0  0
  -24.8953  -28.8911   20.1191 C   0  0  0  0  0  0
  -22.7538  -29.4545   22.4879 C   0  0  0  0  0  0
  -18.0289  -28.1389   22.8462 C   0  0  0  0  0  0
  -24.1497  -36.7263   23.2640 C   0  0  0  0  0  0
  -25.9929  -30.7376   21.3839 C   0  0  0  0  0  0
  -26.0689  -29.3501   20.7315 C   0  0  0  0  0  0
  -27.2409  -28.5139   20.7315 C   0  0  0  0  0  0
  -26.0300  -26.8030   19.5273 C   0  0  0  0  0  0
  -24.8840  -27.6278   19.5033 C   0  0  0  0  0  0
  -23.6707  -29.7893   20.1558 C   0  0  0  0  0  0
  -25.4129  -36.3035   24.0306 C   0  0  1  0  0  0
  -20.5896  -28.3716   23.1236 C   0  0  2  0  0  0
  -20.6791  -26.9420   22.5406 C   0  0  0  0  0  0
  -19.5774  -26.6376   21.5207 C   0  0  0  0  0  0
  -18.1940  -26.7928   22.1599 C   0  0  0  0  0  0
  -19.1541  -28.8871   23.2837 C   0  0  0  0  0  0
  -18.9468  -30.1467   23.8872 C   0  0  0  0  0  0
  -17.6467  -30.6590   24.0557 C   0  0  0  0  0  0
  -25.9071  -34.9407   23.5058 C   0  0  0  0  0  0
  -16.5357  -29.9089   23.6328 C   0  0  0  0  0  0
  -16.7274  -28.6506   23.0341 C   0  0  0  0  0  0
  -26.4555  -31.6557   25.0701 C   0  0  0  0  0  0
  -25.3757  -31.3718   26.1398 C   0  0  0  0  0  0
  -27.0410  -30.2952   24.6251 C   0  0  0  0  0  0
  -27.6083  -32.4325   25.7484 C   0  0  0  0  0  0
  -27.5575  -37.1780   24.8458 C   0  0  0  0  0  0
  -21.4232  -29.3037   22.3617 N   0  0  0  0  0  0
  -26.4287  -37.3748   23.9404 N   0  0  0  0  0  0
  -24.7106  -31.0345   22.0932 N   0  0  0  0  0  0
  -23.4190  -28.8067   23.3006 O   0  0  0  0  0  0
  -28.3262  -26.2719   20.1162 O   0  0  0  0  0  0
  -26.5643  -34.8899   22.4624 O   0  0  0  0  0  0
  -23.5526  -32.1301   23.7182 O   0  0  0  0  0  0
  -28.4525  -21.1436   24.2684 C   0  0  0  0  0  0
  -28.8957  -21.7303   23.0757 C   0  0  0  0  0  0
  -28.6027  -19.7951   24.4960 C   0  0  0  0  0  0
  -29.1203  -20.9441   21.8802 C   0  0  0  0  0  0
  -29.3350  -19.4495   22.1300 C   0  0  0  0  0  0
  -29.2021  -19.0237   23.4989 C   0  0  0  0  0  0
  -29.6053  -23.8147   24.5709 C   0  0  0  0  0  0
  -28.2716  -24.1760   23.9680 C   0  0  0  0  0  0
  -30.0426  -22.8231   20.0130 C   0  0  0  0  0  0
  -29.0307  -16.6657   21.5021 C   0  0  0  0  0  0
  -30.1036  -17.4606   19.9212 C   0  0  0  0  0  0
  -27.7187  -17.8250   26.1191 C   0  0  0  0  0  0
  -26.9967  -19.6730   26.6388 C   0  0  0  0  0  0
  -29.1895  -23.2060   23.2373 C   0  0  0  0  0  0
  -28.2427  -19.2387   25.8682 C   0  0  2  0  0  0
  -29.0091  -21.8297   20.5212 C   0  0  2  0  0  0
  -29.7594  -18.0698   21.3215 C   0  0  0  0  0  0
  -28.6282  -23.4026   20.0787 C   0  0  2  0  0  0
  -25.7856  -17.7610   27.6947 C   0  0  0  0  0  0
  -30.9887  -17.8962   24.4964 C   0  0  0  0  0  0
  -28.2816  -24.8770   20.7522 C   0  0  0  0  0  0
  -29.8542  -16.0463   20.4425 N   0  0  0  0  0  0
  -27.0726  -18.3749   27.3143 N   0  3  1  0  0  0
  -29.6821  -17.8160   23.9350 O   0  0  0  0  0  0
  -31.4726  -12.6442   19.1802 H   0  0  0  0  0  0
  -30.3908  -11.5617   20.0052 H   0  0  0  0  0  0
  -29.8122  -11.7226   17.5576 H   0  0  0  0  0  0
  -29.6188  -13.4534   17.7020 H   0  0  0  0  0  0
  -27.9250  -11.2771   18.9619 H   0  0  0  0  0  0
  -27.3803  -12.4714   17.8163 H   0  0  0  0  0  0
  -27.6136  -14.2539   19.4355 H   0  0  0  0  0  0
  -28.7460  -12.2506   21.4464 H   0  0  0  0  0  0
  -28.4026  -13.9333   21.7676 H   0  0  0  0  0  0
  -25.2788   -9.5671   22.4762 H   0  0  0  0  0  0
  -24.0011   -7.4632   22.7468 H   0  0  0  0  0  0
  -21.0867   -8.8794   19.8947 H   0  0  0  0  0  0
  -22.3735  -10.9687   19.6163 H   0  0  0  0  0  0
  -21.2011   -7.6157   23.9731 H   0  0  0  0  0  0
  -21.1474   -6.0524   25.9083 H   0  0  0  0  0  0
  -22.0599   -2.7619   23.2837 H   0  0  0  0  0  0
  -22.4096  -11.9848   22.4793 H   0  0  0  0  0  0
  -21.1084  -13.1200   22.2642 H   0  0  0  0  0  0
  -24.6556  -15.8514   20.5366 H   0  0  0  0  0  0
  -26.2746  -15.6308   20.0992 H   0  0  0  0  0  0
  -26.7250  -32.5355   23.1019 H   0  0  0  0  0  0
  -25.0119  -33.9632   25.0361 H   0  0  0  0  0  0
  -22.7414  -31.2864   21.3792 H   0  0  0  0  0  0
  -23.3759  -35.9599   23.3294 H   0  0  0  0  0  0
  -24.3594  -36.8915   22.2062 H   0  0  0  0  0  0
  -23.7264  -37.6451   23.6696 H   0  0  0  0  0  0
  -26.1363  -31.4962   20.6131 H   0  0  0  0  0  0
  -26.8683  -30.7922   22.0199 H   0  0  0  0  0  0
  -28.1441  -28.8693   21.2076 H   0  0  0  0  0  0
  -25.9763  -25.8343   19.0496 H   0  0  0  0  0  0
  -23.9868  -27.2717   19.0164 H   0  0  0  0  0  0
  -23.8131  -30.5648   19.4023 H   0  0  0  0  0  0
  -22.7901  -29.2266   19.8413 H   0  0  0  0  0  0
  -25.1314  -36.1855   25.0799 H   0  0  0  0  0  0
  -20.9971  -28.3342   24.1363 H   0  0  0  0  0  0
  -20.5711  -26.2325   23.3628 H   0  0  0  0  0  0
  -21.6656  -26.7453   22.1186 H   0  0  0  0  0  0
  -19.6952  -25.6280   21.1255 H   0  0  0  0  0  0
  -19.6741  -27.3173   20.6732 H   0  0  0  0  0  0
  -17.4216  -26.6665   21.3994 H   0  0  0  0  0  0
  -18.0337  -26.0067   22.8994 H   0  0  0  0  0  0
  -19.7954  -30.7264   24.2248 H   0  0  0  0  0  0
  -17.5037  -31.6272   24.5154 H   0  0  0  0  0  0
  -15.5362  -30.2989   23.7689 H   0  0  0  0  0  0
  -15.8665  -28.0844   22.7059 H   0  0  0  0  0  0
  -24.5951  -30.7052   25.7709 H   0  0  0  0  0  0
  -24.8936  -32.2891   26.4777 H   0  0  0  0  0  0
  -25.8062  -30.8912   27.0192 H   0  0  0  0  0  0
  -26.2998  -29.6660   24.1308 H   0  0  0  0  0  0
  -27.4074  -29.7260   25.4802 H   0  0  0  0  0  0
  -27.8892  -30.4166   23.9516 H   0  0  0  0  0  0
  -27.2663  -33.3638   26.2005 H   0  0  0  0  0  0
  -28.3923  -32.6872   25.0342 H   0  0  0  0  0  0
  -28.0723  -31.8494   26.5444 H   0  0  0  0  0  0
  -28.2557  -38.0104   24.7502 H   0  0  0  0  0  0
  -28.1101  -36.2621   24.6282 H   0  0  0  0  0  0
  -27.2286  -37.1412   25.8859 H   0  0  0  0  0  0
  -20.9452  -29.8778   21.6810 H   0  0  0  0  0  0
  -26.0147  -38.2804   24.1445 H   0  0  0  0  0  0
  -28.1258  -21.7429   25.1043 H   0  0  0  0  0  0
  -29.6178  -23.2065   25.4727 H   0  0  0  0  0  0
  -30.3741  -24.5846   24.5476 H   0  0  0  0  0  0
  -28.1736  -25.1938   23.5981 H   0  0  0  0  0  0
  -27.3824  -23.7869   24.4582 H   0  0  0  0  0  0
  -30.4400  -22.6466   19.0145 H   0  0  0  0  0  0
  -30.7901  -23.2155   20.6943 H   0  0  0  0  0  0
  -27.9689  -16.6974   21.2547 H   0  0  0  0  0  0
  -29.1596  -16.1636   22.4582 H   0  0  0  0  0  0
  -31.1290  -17.6573   19.6022 H   0  0  0  0  0  0
  -29.4001  -17.7546   19.1420 H   0  0  0  0  0  0
  -28.4867  -17.0772   26.3205 H   0  0  0  0  0  0
  -27.0121  -17.4858   25.3580 H   0  0  0  0  0  0
  -26.1142  -19.7795   26.0041 H   0  0  0  0  0  0
  -27.1354  -20.5377   27.2893 H   0  0  0  0  0  0
  -29.9313  -23.5192   22.5249 H   0  0  0  0  0  0
  -29.1212  -19.4190   26.4937 H   0  0  0  0  0  0
  -28.6813  -21.1006   19.7832 H   0  0  0  0  0  0
  -30.7500  -17.9581   21.7655 H   0  0  0  0  0  0
  -28.0985  -23.3759   19.1287 H   0  0  0  0  0  0
  -25.9461  -16.7431   28.0465 H   0  0  0  0  0  0
  -25.0968  -17.7217   26.8515 H   0  0  0  0  0  0
  -25.3114  -18.3303   28.4930 H   0  0  0  0  0  0
  -31.3886  -16.8916   24.6333 H   0  0  0  0  0  0
  -30.9775  -18.3865   25.4692 H   0  0  0  0  0  0
  -31.6785  -18.4405   23.8488 H   0  0  0  0  0  0
  -29.0122  -25.0531   21.5284 H   0  0  0  0  0  0
  -27.3181  -24.7694   21.2524 H   0  0  0  0  0  0
  -27.7170  -18.4097   28.0911 H   0  0  0  0  0  0
  1 25  1  0  0  0
  1 30  2  0  0  0
  1 92  1  0  0  0
  2  3  1  0  0  0
  2 25  1  0  0  0
  2 95  1  0  0  0
  2 96  1  0  0  0
  3  4  1  0  0  0
  3 97  1  0  0  0
  3 98  1  0  0  0
  4  5  1  0  0  0
  4 99  1  0  0  0
  4100  1  0  0  0
  5  6  1  0  0  0
  5 26  1  0  0  0
  5101  1  0  0  0
  6 25  1  0  0  0
  6102  1  0  0  0
  6103  1  0  0  0
  7  8  2  0  0  0
  7 26  1  0  0  0
  7 29  1  0  0  0
  8  9  1  0  0  0
  8 22  1  0  0  0
  9 10  1  0  0  0
  9 27  2  0  0  0
 10 11  2  0  0  0
 10 15  1  0  0  0
 11 12  1  0  0  0
 11104  1  0  0  0
 12 13  2  0  0  0
 12105  1  0  0  0
 13 14  1  0  0  0
 13 31  1  0  0  0
 14 15  2  0  0  0
 14106  1  0  0  0
 15107  1  0  0  0
 16 17  2  0  0  0
 16 21  1  0  0  0
 16 31  1  0  0  0
 17 18  1  0  0  0
 17108  1  0  0  0
 18 19  2  0  0  0
 18109  1  0  0  0
 19 20  1  0  0  0
 19 24  1  0  0  0
 20 21  2  0  0  0
 20110  1  0  0  0
 21 23  1  0  0  0
 22 28  1  0  0  0
 22 32  2  0  0  0
 26 27  1  0  0  0
 28111  1  0  0  0
 28112  1  0  0  0
 29113  1  0  0  0
 29114  1  0  0  0
 33 34  1  0  0  0
 33 66  1  0  0  0
 33 70  2  0  0  0
 34 36  1  0  0  0
 34 59  1  0  0  0
 34115  1  0  0  0
 35 44  2  0  0  0
 35 45  1  0  0  0
 35 68  1  0  0  0
 36 56  1  0  0  0
 36116  1  0  0  0
 37 39  1  0  0  0
 37 47  1  0  0  0
 37 66  1  0  0  0
 37117  1  0  0  0
 38 43  2  0  0  0
 38 46  1  0  0  0
 38 47  1  0  0  0
 39 64  1  0  0  0
 39 67  2  0  0  0
 40 52  1  0  0  0
 40 53  2  0  0  0
 40 58  1  0  0  0
 41118  1  0  0  0
 41119  1  0  0  0
 41120  1  0  0  0
 41 48  1  0  0  0
 42 43  1  0  0  0
 42 66  1  0  0  0
 42121  1  0  0  0
 42122  1  0  0  0
 43 44  1  0  0  0
 44123  1  0  0  0
 45 46  2  0  0  0
 45124  1  0  0  0
 46125  1  0  0  0
 47126  1  0  0  0
 47127  1  0  0  0
 48 56  1  0  0  0
 48 65  1  0  0  0
 48128  1  0  0  0
 49 50  1  0  0  0
 49 53  1  0  0  0
 49 64  1  0  0  0
 49129  1  0  0  0
 50 51  1  0  0  0
 50130  1  0  0  0
 50131  1  0  0  0
 51 52  1  0  0  0
 51132  1  0  0  0
 51133  1  0  0  0
 52134  1  0  0  0
 52135  1  0  0  0
 53 54  1  0  0  0
 54 55  2  0  0  0
 54136  1  0  0  0
 55 57  1  0  0  0
 55137  1  0  0  0
 56 69  2  0  0  0
 57 58  2  0  0  0
 57138  1  0  0  0
 58139  1  0  0  0
 59 60  1  0  0  0
 59 61  1  0  0  0
 59 62  1  0  0  0
 60140  1  0  0  0
 60141  1  0  0  0
 60142  1  0  0  0
 61143  1  0  0  0
 61144  1  0  0  0
 61145  1  0  0  0
 62146  1  0  0  0
 62147  1  0  0  0
 62148  1  0  0  0
 63 65  1  0  0  0
 63149  1  0  0  0
 63150  1  0  0  0
 63151  1  0  0  0
 64152  1  0  0  0
 65153  1  0  0  0
 68 91  1  0  0  0
 71 72  2  0  0  0
 71 73  1  0  0  0
 71154  1  0  0  0
 72 74  1  0  0  0
 72 84  1  0  0  0
 73 76  2  0  0  0
 73 85  1  0  0  0
 74 75  2  0  0  0
 74 86  1  0  0  0
 75 76  1  0  0  0
 75 87  1  0  0  0
 76 94  1  0  0  0
 77 78  1  0  0  0
 77 84  1  0  0  0
 77155  1  0  0  0
 77156  1  0  0  0
 78 84  1  0  0  0
 78157  1  0  0  0
 78158  1  0  0  0
 79 86  1  0  0  0
 79 88  1  0  0  0
 79159  1  0  0  0
 79160  1  0  0  0
 80 87  1  0  0  0
 80 92  1  0  0  0
 80161  1  0  0  0
 80162  1  0  0  0
 81 87  1  0  0  0
 81 92  1  0  0  0
 81163  1  0  0  0
 81164  1  0  0  0
 82 85  1  0  0  0
 82 93  1  0  0  0
 82165  1  0  0  0
 82166  1  0  0  0
 83 85  1  0  0  0
 83 93  1  0  0  0
 83167  1  0  0  0
 83168  1  0  0  0
 84169  1  0  0  0
 85170  1  0  0  0
 86 88  1  0  0  0
 86171  1  0  0  0
 87172  1  0  0  0
 88 91  1  0  0  0
 88173  1  0  0  0
 89174  1  0  0  0
 89175  1  0  0  0
 89176  1  0  0  0
 89 93  1  0  0  0
 90 94  1  0  0  0
 90177  1  0  0  0
 90178  1  0  0  0
 90179  1  0  0  0
 91180  1  0  0  0
 91181  1  0  0  0
 93182  1  0  0  0
M  CHG  1  93   1
M  ISO  4   1 100  68 101  91 101  92 100
M  END
> <chiral flag>
0

> <version>
0

> <s_m_source_file>
/data/baiqing/PycharmProjects/Reinvent-master-3.2/result/LINK_invent/BTK/process_docking_weight1_custom_sum_contain_oxygen_bond_distance_aromatic_linkinvent_7_9_3/rearranged_h_0166.sdf

> <i_m_source_file_index>
51

> <r_mmod_Potential_Energy-OPLS-2005>
676.149963378906

> <r_mmod_Stretch_Energy-OPLS-2005>
252.397277832031

> <r_mmod_Bend_Energy-OPLS-2005>
442.708068847656

> <r_mmod_Torsional_Energy-OPLS-2005>
449.992614746094

> <r_mmod_Improper_Torsional_Energy-OPLS-2005>
16.2376918792725

> <r_mmod_Van_der_Waal_Energy-OPLS-2005>
164.047912597656

> <r_mmod_Electrostatic_Energy-OPLS-2005>
-315.976287841797

> <r_mmod_Solvation_Energy-OPLS-2005>
-464.6025390625

> <b_mmod_Minimization_Converged-OPLS-2005>
0

> <r_mmod_RMS_Derivative-OPLS-2005>
2.26882934570312

$$$$
51
                    3D
 Structure written by MMmdl.
182192  0  0  1  0            999 V2000
  -30.6659  -14.4650   20.6189 C   0  0  0  0  0  0
  -30.4452  -12.3173   19.4081 C   0  0  0  0  0  0
  -29.5025  -12.5219   18.2016 C   0  0  0  0  0  0
  -28.0226  -12.3705   18.6128 C   0  0  0  0  0  0
  -27.6701  -13.1928   19.8803 C   0  0  2  0  0  0
  -28.7104  -12.9210   20.9910 C   0  0  0  0  0  0
  -25.2639  -13.8134   20.5650 C   0  0  0  0  0  0
  -24.1870  -13.0437   20.9157 C   0  0  0  0  0  0
  -24.6399  -11.6899   20.8715 C   0  0  0  0  0  0
  -23.9057  -10.4297   21.0395 C   0  0  0  0  0  0
  -24.3610   -9.4216   21.9174 C   0  0  0  0  0  0
  -23.6288   -8.2253   22.0750 C   0  0  0  0  0  0
  -22.4270   -8.0288   21.3539 C   0  0  0  0  0  0
  -21.9905   -9.0263   20.4644 C   0  0  0  0  0  0
  -22.7234  -10.2144   20.3047 C   0  0  0  0  0  0
  -21.6855   -6.0743   22.5279 C   0  0  0  0  0  0
  -21.4023   -6.5644   23.8216 C   0  0  0  0  0  0
  -21.3657   -5.6787   24.9170 C   0  0  0  0  0  0
  -21.6039   -4.3048   24.7214 C   0  0  0  0  0  0
  -21.8821   -3.8151   23.4332 C   0  0  0  0  0  0
  -21.9196   -4.6974   22.3396 C   0  0  0  0  0  0
  -22.7891  -13.5257   21.1817 C   0  0  0  0  0  0
  -22.1660   -4.2166   21.0970 F   0  0  0  0  0  0
  -21.5624   -3.4527   25.7722 F   0  0  0  0  0  0
  -30.0451  -13.2639   20.4585 N   0  0  0  0  0  0
  -26.3066  -12.9274   20.3351 N   0  0  0  0  0  0
  -25.9323  -11.6448   20.5742 N   0  0  0  0  0  0
  -22.0512  -12.8271   22.0375 N   0  0  0  0  0  0
  -25.4397  -15.1850   20.4056 N   0  0  0  0  0  0
  -31.7532  -14.7494   20.1076 O   0  0  0  0  0  0
  -21.6634   -6.8887   21.4241 O   0  0  0  0  0  0
  -22.3592  -14.5561   20.6656 O   0  0  0  0  0  0
  -24.6127  -31.8689   23.2113 C   0  0  0  0  0  0
  -25.9022  -32.4825   23.8410 C   0  0  1  0  0  0
  -27.2424  -27.4479   20.0985 C   0  0  0  0  0  0
  -25.5870  -33.8624   24.2337 N   0  0  0  0  0  0
  -23.4019  -30.4916   21.5501 C   0  0  2  0  0  0
  -24.8535  -28.9554   20.1211 C   0  0  0  0  0  0
  -22.7396  -29.4673   22.4989 C   0  0  0  0  0  0
  -18.0264  -28.1387   22.8500 C   0  0  0  0  0  0
  -24.1481  -36.7338   23.2641 C   0  0  0  0  0  0
  -25.9290  -30.8358   21.3660 C   0  0  0  0  0  0
  -26.0100  -29.4672   20.7240 C   0  0  0  0  0  0
  -27.2087  -28.7182   20.7210 C   0  0  0  0  0  0
  -26.0752  -26.9520   19.4869 C   0  0  0  0  0  0
  -24.8785  -27.6921   19.5039 C   0  0  0  0  0  0
  -23.6138  -29.8204   20.1663 C   0  0  0  0  0  0
  -25.4097  -36.3118   24.0341 C   0  0  1  0  0  0
  -20.5856  -28.3677   23.1316 C   0  0  2  0  0  0
  -20.6757  -26.9415   22.5419 C   0  0  0  0  0  0
  -19.5733  -26.6396   21.5218 C   0  0  0  0  0  0
  -18.1912  -26.7936   22.1631 C   0  0  0  0  0  0
  -19.1517  -28.8848   23.2908 C   0  0  0  0  0  0
  -18.9447  -30.1452   23.8922 C   0  0  0  0  0  0
  -17.6454  -30.6594   24.0574 C   0  0  0  0  0  0
  -25.9020  -34.9477   23.5140 C   0  0  0  0  0  0
  -16.5342  -29.9101   23.6332 C   0  0  0  0  0  0
  -16.7258  -28.6517   23.0356 C   0  0  0  0  0  0
  -26.4460  -31.6590   25.0728 C   0  0  0  0  0  0
  -25.3742  -31.3696   26.1493 C   0  0  0  0  0  0
  -27.0281  -30.3026   24.6108 C   0  0  0  0  0  0
  -27.6053  -32.4300   25.7476 C   0  0  0  0  0  0
  -27.5579  -37.1818   24.8461 C   0  0  0  0  0  0
  -21.4129  -29.3043   22.3722 N   0  0  0  0  0  0
  -26.4288  -37.3795   23.9407 N   0  0  0  0  0  0
  -24.6655  -31.0798   22.1008 N   0  0  0  0  0  0
  -23.4168  -28.8224   23.3039 O   0  0  0  0  0  0
  -28.3755  -26.6723   20.0076 O   0  0  0  0  0  0
  -26.5598  -34.8922   22.4711 O   0  0  0  0  0  0
  -23.5321  -32.1439   23.7503 O   0  0  0  0  0  0
  -31.1461  -23.2897   22.4636 C   0  0  0  0  0  0
  -31.7188  -23.1025   23.7582 C   0  0  0  0  0  0
  -31.2090  -22.1997   21.5293 C   0  0  0  0  0  0
  -32.2423  -21.8448   24.1450 C   0  0  0  0  0  0
  -32.3148  -20.7812   23.2145 C   0  0  0  0  0  0
  -31.7481  -20.9228   21.9153 C   0  0  0  0  0  0
  -31.4551  -25.6688   21.4063 C   0  0  0  0  0  0
  -29.1613  -24.8803   21.4775 C   0  0  0  0  0  0
  -30.3537  -17.7052   20.2240 C   0  0  0  0  0  0
  -31.0524  -17.5246   22.1260 C   0  0  0  0  0  0
  -30.5366  -24.6946   22.1469 C   0  0  1  0  0  0
  -30.5687  -26.8964   21.1268 C   0  0  2  0  0  0
  -29.9069  -16.8304   21.3982 C   0  0  2  0  0  0
  -29.0994  -26.4059   21.2091 C   0  0  1  0  0  0
  -31.8361  -24.2735   24.7446 C   0  0  0  0  0  0
  -30.7740  -22.4096   20.0785 C   0  0  0  0  0  0
  -32.7344  -21.6387   25.5817 C   0  0  0  0  0  0
  -33.0637  -19.5137   23.6378 C   0  0  0  0  0  0
  -30.9474  -27.6192   19.8236 C   0  0  0  0  0  0
  -31.7404  -19.6980   20.9509 C   0  0  0  0  0  0
  -29.9086  -15.3603   21.2781 N   0  0  0  0  0  0
  -30.6990  -18.6841   21.2767 N   0  3  1  0  0  0
  -31.4850  -12.4553   19.1062 H   0  0  0  0  0  0
  -30.3758  -11.2945   19.7825 H   0  0  0  0  0  0
  -29.7462  -11.8097   17.4121 H   0  0  0  0  0  0
  -29.6612  -13.5141   17.7766 H   0  0  0  0  0  0
  -27.8370  -11.3118   18.7978 H   0  0  0  0  0  0
  -27.3709  -12.6526   17.7852 H   0  0  0  0  0  0
  -27.7285  -14.2462   19.6061 H   0  0  0  0  0  0
  -28.6943  -11.8655   21.2678 H   0  0  0  0  0  0
  -28.4549  -13.4522   21.9085 H   0  0  0  0  0  0
  -25.2758   -9.5697   22.4738 H   0  0  0  0  0  0
  -24.0002   -7.4648   22.7469 H   0  0  0  0  0  0
  -21.0837   -8.8785   19.8950 H   0  0  0  0  0  0
  -22.3697  -10.9677   19.6147 H   0  0  0  0  0  0
  -21.2025   -7.6153   23.9730 H   0  0  0  0  0  0
  -21.1469   -6.0507   25.9073 H   0  0  0  0  0  0
  -22.0604   -2.7616   23.2818 H   0  0  0  0  0  0
  -22.4096  -11.9932   22.4784 H   0  0  0  0  0  0
  -21.1133  -13.1321   22.2555 H   0  0  0  0  0  0
  -24.6731  -15.8424   20.5053 H   0  0  0  0  0  0
  -26.2910  -15.6186   20.0710 H   0  0  0  0  0  0
  -26.7102  -32.5562   23.1188 H   0  0  0  0  0  0
  -24.9972  -33.9787   25.0450 H   0  0  0  0  0  0
  -22.6909  -31.3080   21.4077 H   0  0  0  0  0  0
  -23.3725  -35.9690   23.3306 H   0  0  0  0  0  0
  -24.3572  -36.8953   22.2056 H   0  0  0  0  0  0
  -23.7259  -37.6555   23.6656 H   0  0  0  0  0  0
  -26.0366  -31.5954   20.5909 H   0  0  0  0  0  0
  -26.8179  -30.8970   21.9811 H   0  0  0  0  0  0
  -28.1038  -29.1193   21.1769 H   0  0  0  0  0  0
  -26.0969  -25.9871   19.0003 H   0  0  0  0  0  0
  -23.9915  -27.2911   19.0338 H   0  0  0  0  0  0
  -23.7229  -30.5924   19.4035 H   0  0  0  0  0  0
  -22.7394  -29.2372   19.8718 H   0  0  0  0  0  0
  -25.1272  -36.1988   25.0835 H   0  0  0  0  0  0
  -20.9954  -28.3251   24.1434 H   0  0  0  0  0  0
  -20.5661  -26.2290   23.3610 H   0  0  0  0  0  0
  -21.6627  -26.7460   22.1209 H   0  0  0  0  0  0
  -19.6885  -25.6311   21.1238 H   0  0  0  0  0  0
  -19.6664  -27.3217   20.6756 H   0  0  0  0  0  0
  -17.4181  -26.6694   21.4033 H   0  0  0  0  0  0
  -18.0305  -26.0074   22.9025 H   0  0  0  0  0  0
  -19.7925  -30.7259   24.2304 H   0  0  0  0  0  0
  -17.5012  -31.6276   24.5178 H   0  0  0  0  0  0
  -15.5345  -30.3015   23.7639 H   0  0  0  0  0  0
  -15.8656  -28.0842   22.7061 H   0  0  0  0  0  0
  -24.5887  -30.7071   25.7833 H   0  0  0  0  0  0
  -24.8971  -32.2858   26.4989 H   0  0  0  0  0  0
  -25.8101  -30.8821   27.0224 H   0  0  0  0  0  0
  -26.2810  -29.6783   24.1192 H   0  0  0  0  0  0
  -27.4067  -29.7271   25.4568 H   0  0  0  0  0  0
  -27.8646  -30.4324   23.9237 H   0  0  0  0  0  0
  -27.2685  -33.3598   26.2077 H   0  0  0  0  0  0
  -28.3847  -32.6864   25.0285 H   0  0  0  0  0  0
  -28.0736  -31.8406   26.5373 H   0  0  0  0  0  0
  -28.2596  -38.0114   24.7500 H   0  0  0  0  0  0
  -28.1074  -36.2647   24.6285 H   0  0  0  0  0  0
  -27.2302  -37.1472   25.8864 H   0  0  0  0  0  0
  -20.9287  -29.8763   21.6948 H   0  0  0  0  0  0
  -26.0182  -38.2879   24.1392 H   0  0  0  0  0  0
  -31.8090  -25.2322   20.4738 H   0  0  0  0  0  0
  -32.3396  -25.9295   21.9882 H   0  0  0  0  0  0
  -28.3424  -24.5476   22.1157 H   0  0  0  0  0  0
  -29.0529  -24.3536   20.5356 H   0  0  0  0  0  0
  -29.5518  -18.0341   19.5626 H   0  0  0  0  0  0
  -31.2195  -17.3395   19.6664 H   0  0  0  0  0  0
  -32.0398  -17.1002   21.9271 H   0  0  0  0  0  0
  -30.8713  -17.6730   23.1901 H   0  0  0  0  0  0
  -30.3145  -25.1663   23.1001 H   0  0  0  0  0  0
  -30.7155  -27.6013   21.9473 H   0  0  0  0  0  0
  -28.9404  -17.1670   21.7868 H   0  0  0  0  0  0
  -28.6268  -26.8790   22.0724 H   0  0  0  0  0  0
  -32.1188  -25.1972   24.2414 H   0  0  0  0  0  0
  -32.6194  -24.1454   25.4888 H   0  0  0  0  0  0
  -30.8944  -24.4327   25.2706 H   0  0  0  0  0  0
  -30.7597  -23.4508   19.7801 H   0  0  0  0  0  0
  -29.7897  -21.9789   19.8904 H   0  0  0  0  0  0
  -31.4902  -21.9843   19.3777 H   0  0  0  0  0  0
  -32.0982  -22.1586   26.2978 H   0  0  0  0  0  0
  -33.7555  -22.0034   25.6957 H   0  0  0  0  0  0
  -32.7066  -20.5995   25.9039 H   0  0  0  0  0  0
  -33.9722  -19.7747   24.1813 H   0  0  0  0  0  0
  -33.4154  -18.8919   22.8204 H   0  0  0  0  0  0
  -32.4510  -18.9016   24.2993 H   0  0  0  0  0  0
  -30.8244  -26.9674   18.9577 H   0  0  0  0  0  0
  -31.9866  -27.9485   19.8450 H   0  0  0  0  0  0
  -30.3265  -28.5019   19.6674 H   0  0  0  0  0  0
  -32.7235  -19.2382   20.8714 H   0  0  0  0  0  0
  -31.5357  -19.9959   19.9291 H   0  0  0  0  0  0
  -29.0819  -14.9285   21.6648 H   0  0  0  0  0  0
  -29.8613  -19.1341   21.6124 H   0  0  0  0  0  0
  1 25  1  0  0  0
  1 30  2  0  0  0
  1 91  1  0  0  0
  2  3  1  0  0  0
  2 25  1  0  0  0
  2 93  1  0  0  0
  2 94  1  0  0  0
  3  4  1  0  0  0
  3 95  1  0  0  0
  3 96  1  0  0  0
  4  5  1  0  0  0
  4 97  1  0  0  0
  4 98  1  0  0  0
  5  6  1  0  0  0
  5 26  1  0  0  0
  5 99  1  0  0  0
  6 25  1  0  0  0
  6100  1  0  0  0
  6101  1  0  0  0
  7  8  2  0  0  0
  7 26  1  0  0  0
  7 29  1  0  0  0
  8  9  1  0  0  0
  8 22  1  0  0  0
  9 10  1  0  0  0
  9 27  2  0  0  0
 10 11  2  0  0  0
 10 15  1  0  0  0
 11 12  1  0  0  0
 11102  1  0  0  0
 12 13  2  0  0  0
 12103  1  0  0  0
 13 14  1  0  0  0
 13 31  1  0  0  0
 14 15  2  0  0  0
 14104  1  0  0  0
 15105  1  0  0  0
 16 17  2  0  0  0
 16 21  1  0  0  0
 16 31  1  0  0  0
 17 18  1  0  0  0
 17106  1  0  0  0
 18 19  2  0  0  0
 18107  1  0  0  0
 19 20  1  0  0  0
 19 24  1  0  0  0
 20 21  2  0  0  0
 20108  1  0  0  0
 21 23  1  0  0  0
 22 28  1  0  0  0
 22 32  2  0  0  0
 26 27  1  0  0  0
 28109  1  0  0  0
 28110  1  0  0  0
 29111  1  0  0  0
 29112  1  0  0  0
 33 34  1  0  0  0
 33 66  1  0  0  0
 33 70  2  0  0  0
 34 36  1  0  0  0
 34 59  1  0  0  0
 34113  1  0  0  0
 35 44  2  0  0  0
 35 45  1  0  0  0
 35 68  1  0  0  0
 36 56  1  0  0  0
 36114  1  0  0  0
 37 39  1  0  0  0
 37 47  1  0  0  0
 37 66  1  0  0  0
 37115  1  0  0  0
 38 43  2  0  0  0
 38 46  1  0  0  0
 38 47  1  0  0  0
 39 64  1  0  0  0
 39 67  2  0  0  0
 40 52  1  0  0  0
 40 53  2  0  0  0
 40 58  1  0  0  0
 41116  1  0  0  0
 41117  1  0  0  0
 41118  1  0  0  0
 41 48  1  0  0  0
 42 43  1  0  0  0
 42 66  1  0  0  0
 42119  1  0  0  0
 42120  1  0  0  0
 43 44  1  0  0  0
 44121  1  0  0  0
 45 46  2  0  0  0
 45122  1  0  0  0
 46123  1  0  0  0
 47124  1  0  0  0
 47125  1  0  0  0
 48 56  1  0  0  0
 48 65  1  0  0  0
 48126  1  0  0  0
 49 50  1  0  0  0
 49 53  1  0  0  0
 49 64  1  0  0  0
 49127  1  0  0  0
 50 51  1  0  0  0
 50128  1  0  0  0
 50129  1  0  0  0
 51 52  1  0  0  0
 51130  1  0  0  0
 51131  1  0  0  0
 52132  1  0  0  0
 52133  1  0  0  0
 53 54  1  0  0  0
 54 55  2  0  0  0
 54134  1  0  0  0
 55 57  1  0  0  0
 55135  1  0  0  0
 56 69  2  0  0  0
 57 58  2  0  0  0
 57136  1  0  0  0
 58137  1  0  0  0
 59 60  1  0  0  0
 59 61  1  0  0  0
 59 62  1  0  0  0
 60138  1  0  0  0
 60139  1  0  0  0
 60140  1  0  0  0
 61141  1  0  0  0
 61142  1  0  0  0
 61143  1  0  0  0
 62144  1  0  0  0
 62145  1  0  0  0
 62146  1  0  0  0
 63 65  1  0  0  0
 63147  1  0  0  0
 63148  1  0  0  0
 63149  1  0  0  0
 64150  1  0  0  0
 65151  1  0  0  0
 68 84  1  0  0  0
 71 72  2  0  0  0
 71 73  1  0  0  0
 71 81  1  0  0  0
 72 74  1  0  0  0
 72 85  1  0  0  0
 73 76  2  0  0  0
 73 86  1  0  0  0
 74 75  2  0  0  0
 74 87  1  0  0  0
 75 76  1  0  0  0
 75 88  1  0  0  0
 76 90  1  0  0  0
 77 81  1  0  0  0
 77 82  1  0  0  0
 77152  1  0  0  0
 77153  1  0  0  0
 78 81  1  0  0  0
 78 84  1  0  0  0
 78154  1  0  0  0
 78155  1  0  0  0
 79 83  1  0  0  0
 79 92  1  0  0  0
 79156  1  0  0  0
 79157  1  0  0  0
 80 83  1  0  0  0
 80 92  1  0  0  0
 80158  1  0  0  0
 80159  1  0  0  0
 81160  1  0  0  0
 82 84  1  0  0  0
 82 89  1  0  0  0
 82161  1  0  0  0
 83 91  1  0  0  0
 83162  1  0  0  0
 84163  1  0  0  0
 85164  1  0  0  0
 85165  1  0  0  0
 85166  1  0  0  0
 86167  1  0  0  0
 86168  1  0  0  0
 86169  1  0  0  0
 87170  1  0  0  0
 87171  1  0  0  0
 87172  1  0  0  0
 88173  1  0  0  0
 88174  1  0  0  0
 88175  1  0  0  0
 89176  1  0  0  0
 89177  1  0  0  0
 89178  1  0  0  0
 90179  1  0  0  0
 90180  1  0  0  0
 90 92  1  0  0  0
 91181  1  0  0  0
 92182  1  0  0  0
M  CHG  1  92   1
M  ISO  4   1 100  68 101  84 101  91 100
M  END
> <chiral flag>
0

> <version>
0

> <s_m_source_file>
/data/baiqing/PycharmProjects/Reinvent-master-3.2/result/LINK_invent/BTK/process_docking_weight1_custom_sum_contain_oxygen_bond_distance_aromatic_linkinvent_7_9_3/rearranged_h_0166.sdf

> <i_m_source_file_index>
52

> <r_mmod_Potential_Energy-OPLS-2005>
-49.963623046875

> <r_mmod_Stretch_Energy-OPLS-2005>
54.9177627563477

> <r_mmod_Bend_Energy-OPLS-2005>
207.956756591797

> <r_mmod_Torsional_Energy-OPLS-2005>
292.130126953125

> <r_mmod_Improper_Torsional_Energy-OPLS-2005>
3.86971855163574

> <r_mmod_Van_der_Waal_Energy-OPLS-2005>
187.060852050781

> <r_mmod_Electrostatic_Energy-OPLS-2005>
-377.7431640625

> <r_mmod_Solvation_Energy-OPLS-2005>
-429.426177978516

> <b_mmod_Minimization_Converged-OPLS-2005>
0

> <r_mmod_RMS_Derivative-OPLS-2005>
1.25551247596741

$$$$
52
                    3D
 Structure written by MMmdl.
178188  0  0  1  0            999 V2000
  -30.7419  -14.5315   20.4902 C   0  0  0  0  0  0
  -30.4063  -12.3213   19.4521 C   0  0  0  0  0  0
  -29.4896  -12.4652   18.2221 C   0  0  0  0  0  0
  -28.0162  -12.3380   18.6430 C   0  0  0  0  0  0
  -27.6524  -13.2240   19.8681 C   0  0  2  0  0  0
  -28.6987  -13.1221   20.9987 C   0  0  0  0  0  0
  -25.2546  -13.8201   20.5756 C   0  0  0  0  0  0
  -24.1827  -13.0467   20.9237 C   0  0  0  0  0  0
  -24.6408  -11.6942   20.8783 C   0  0  0  0  0  0
  -23.9071  -10.4327   21.0443 C   0  0  0  0  0  0
  -24.3623   -9.4220   21.9210 C   0  0  0  0  0  0
  -23.6317   -8.2246   22.0761 C   0  0  0  0  0  0
  -22.4294   -8.0295   21.3551 C   0  0  0  0  0  0
  -21.9925   -9.0266   20.4643 C   0  0  0  0  0  0
  -22.7238  -10.2162   20.3077 C   0  0  0  0  0  0
  -21.6864   -6.0742   22.5285 C   0  0  0  0  0  0
  -21.3985   -6.5649   23.8211 C   0  0  0  0  0  0
  -21.3664   -5.6817   24.9191 C   0  0  0  0  0  0
  -21.6074   -4.3080   24.7236 C   0  0  0  0  0  0
  -21.8809   -3.8147   23.4364 C   0  0  0  0  0  0
  -21.9183   -4.6962   22.3418 C   0  0  0  0  0  0
  -22.7834  -13.5210   21.1934 C   0  0  0  0  0  0
  -22.1670   -4.2154   21.0986 F   0  0  0  0  0  0
  -21.5660   -3.4559   25.7746 F   0  0  0  0  0  0
  -30.0240  -13.3724   20.4118 N   0  0  0  0  0  0
  -26.2988  -12.9411   20.3406 N   0  0  0  0  0  0
  -25.9312  -11.6563   20.5798 N   0  0  0  0  0  0
  -22.0505  -12.8169   22.0483 N   0  0  0  0  0  0
  -25.4239  -15.1940   20.4212 N   0  0  0  0  0  0
  -31.9287  -14.5875   20.1581 O   0  0  0  0  0  0
  -21.6667   -6.8881   21.4246 O   0  0  0  0  0  0
  -22.3505  -14.5530   20.6817 O   0  0  0  0  0  0
  -24.6233  -31.8697   23.2158 C   0  0  0  0  0  0
  -25.9123  -32.4838   23.8421 C   0  0  1  0  0  0
  -27.1923  -27.3658   20.0452 C   0  0  0  0  0  0
  -25.5944  -33.8635   24.2354 N   0  0  0  0  0  0
  -23.4098  -30.5062   21.5648 C   0  0  2  0  0  0
  -24.8412  -28.9809   20.1092 C   0  0  0  0  0  0
  -22.7482  -29.4676   22.5004 C   0  0  0  0  0  0
  -18.0269  -28.1387   22.8481 C   0  0  0  0  0  0
  -24.1495  -36.7300   23.2638 C   0  0  0  0  0  0
  -25.9554  -30.8054   21.3846 C   0  0  0  0  0  0
  -26.0169  -29.4439   20.7111 C   0  0  0  0  0  0
  -27.1978  -28.6483   20.6776 C   0  0  0  0  0  0
  -25.9814  -26.9549   19.4337 C   0  0  0  0  0  0
  -24.8204  -27.7408   19.4676 C   0  0  0  0  0  0
  -23.6158  -29.8636   20.1728 C   0  0  0  0  0  0
  -25.4139  -36.3138   24.0333 C   0  0  1  0  0  0
  -20.5876  -28.3691   23.1304 C   0  0  2  0  0  0
  -20.6786  -26.9417   22.5435 C   0  0  0  0  0  0
  -19.5760  -26.6383   21.5238 C   0  0  0  0  0  0
  -18.1923  -26.7937   22.1625 C   0  0  0  0  0  0
  -19.1521  -28.8865   23.2889 C   0  0  0  0  0  0
  -18.9440  -30.1446   23.8920 C   0  0  0  0  0  0
  -17.6446  -30.6606   24.0560 C   0  0  0  0  0  0
  -25.9041  -34.9476   23.5147 C   0  0  0  0  0  0
  -16.5335  -29.9104   23.6322 C   0  0  0  0  0  0
  -16.7256  -28.6511   23.0374 C   0  0  0  0  0  0
  -26.4497  -31.6623   25.0781 C   0  0  0  0  0  0
  -25.3727  -31.3757   26.1516 C   0  0  0  0  0  0
  -27.0316  -30.3036   24.6236 C   0  0  0  0  0  0
  -27.6062  -32.4370   25.7548 C   0  0  0  0  0  0
  -27.5608  -37.1827   24.8483 C   0  0  0  0  0  0
  -21.4210  -29.3035   22.3714 N   0  0  0  0  0  0
  -26.4327  -37.3821   23.9400 N   0  0  0  0  0  0
  -24.6839  -31.0745   22.1099 N   0  0  0  0  0  0
  -23.4226  -28.8208   23.3077 O   0  0  0  0  0  0
  -28.3121  -26.5211   20.0512 O   0  0  0  0  0  0
  -26.5594  -34.8921   22.4700 O   0  0  0  0  0  0
  -23.5422  -32.1503   23.7524 O   0  0  0  0  0  0
  -29.9013  -21.6365   19.8166 C   0  0  0  0  0  0
  -29.1012  -22.7451   19.3297 C   0  0  0  0  0  0
  -29.0347  -23.9870   20.0511 C   0  0  0  0  0  0
  -30.5195  -21.8528   21.0811 C   0  0  0  0  0  0
  -29.7329  -24.0451   21.2710 C   0  0  0  0  0  0
  -30.8569  -20.6760   17.6573 C   0  0  0  0  0  0
  -29.7500  -16.4727   19.4484 C   0  0  0  0  0  0
  -30.7323  -16.8979   21.2080 C   0  0  0  0  0  0
  -31.3468  -19.3627   17.0808 C   0  0  0  0  0  0
  -30.1035  -20.3285   18.9482 C   0  0  1  0  0  0
  -30.8181  -18.9745   19.4462 C   0  0  1  0  0  0
  -29.9778  -17.8177   20.1972 C   0  0  0  0  0  0
  -28.2579  -22.6208   18.0546 C   0  0  0  0  0  0
  -31.3280  -20.8397   21.8666 C   0  0  0  0  0  0
  -29.7147  -25.2364   22.2097 C   0  0  0  0  0  0
  -28.6993  -18.3961   20.8412 C   0  0  0  0  0  0
  -32.8019  -17.8379   18.3882 C   0  0  0  0  0  0
  -28.0840  -25.1409   19.6074 C   0  0  0  0  0  0
  -30.4393  -23.0116   21.7522 N   0  0  0  0  0  0
  -30.0589  -15.6935   20.6607 N   0  0  0  0  0  0
  -31.4406  -18.4108   18.2072 N   0  3  2  0  0  0
  -31.4511  -12.3815   19.1446 H   0  0  0  0  0  0
  -30.2898  -11.3386   19.9085 H   0  0  0  0  0  0
  -29.7340  -11.7090   17.4757 H   0  0  0  0  0  0
  -29.6671  -13.4235   17.7385 H   0  0  0  0  0  0
  -27.8373  -11.2880   18.8799 H   0  0  0  0  0  0
  -27.3642  -12.5751   17.7999 H   0  0  0  0  0  0
  -27.6655  -14.2556   19.5207 H   0  0  0  0  0  0
  -28.6728  -12.1421   21.4827 H   0  0  0  0  0  0
  -28.4699  -13.8514   21.7777 H   0  0  0  0  0  0
  -25.2763   -9.5749   22.4793 H   0  0  0  0  0  0
  -24.0055   -7.4642   22.7461 H   0  0  0  0  0  0
  -21.0879   -8.8776   19.8932 H   0  0  0  0  0  0
  -22.3674  -10.9722   19.6223 H   0  0  0  0  0  0
  -21.1932   -7.6145   23.9705 H   0  0  0  0  0  0
  -21.1531   -6.0562   25.9111 H   0  0  0  0  0  0
  -22.0571   -2.7606   23.2864 H   0  0  0  0  0  0
  -22.4113  -11.9777   22.4783 H   0  0  0  0  0  0
  -21.1142  -13.1199   22.2767 H   0  0  0  0  0  0
  -24.6663  -15.8566   20.5447 H   0  0  0  0  0  0
  -26.2910  -15.6329   20.1433 H   0  0  0  0  0  0
  -26.7170  -32.5506   23.1127 H   0  0  0  0  0  0
  -25.0110  -33.9749   25.0533 H   0  0  0  0  0  0
  -22.6994  -31.3245   21.4413 H   0  0  0  0  0  0
  -23.3765  -35.9615   23.3342 H   0  0  0  0  0  0
  -24.3586  -36.8893   22.2043 H   0  0  0  0  0  0
  -23.7205  -37.6511   23.6607 H   0  0  0  0  0  0
  -26.0980  -31.5754   20.6243 H   0  0  0  0  0  0
  -26.8315  -30.8367   22.0185 H   0  0  0  0  0  0
  -28.0989  -29.0132   21.1500 H   0  0  0  0  0  0
  -25.8744  -26.0216   18.9028 H   0  0  0  0  0  0
  -23.9137  -27.3947   18.9908 H   0  0  0  0  0  0
  -23.7310  -30.6534   19.4288 H   0  0  0  0  0  0
  -22.7336  -29.2960   19.8772 H   0  0  0  0  0  0
  -25.1308  -36.2009   25.0820 H   0  0  0  0  0  0
  -20.9905  -28.3231   24.1448 H   0  0  0  0  0  0
  -20.5758  -26.2266   23.3622 H   0  0  0  0  0  0
  -21.6641  -26.7525   22.1163 H   0  0  0  0  0  0
  -19.6944  -25.6299   21.1254 H   0  0  0  0  0  0
  -19.6702  -27.3210   20.6775 H   0  0  0  0  0  0
  -17.4213  -26.6668   21.4008 H   0  0  0  0  0  0
  -18.0295  -26.0093   22.9028 H   0  0  0  0  0  0
  -19.7917  -30.7246   24.2319 H   0  0  0  0  0  0
  -17.5013  -31.6285   24.5148 H   0  0  0  0  0  0
  -15.5348  -30.3027   23.7659 H   0  0  0  0  0  0
  -15.8642  -28.0849   22.7123 H   0  0  0  0  0  0
  -24.5881  -30.7132   25.7853 H   0  0  0  0  0  0
  -24.8907  -32.2908   26.4961 H   0  0  0  0  0  0
  -25.8025  -30.8924   27.0297 H   0  0  0  0  0  0
  -26.2888  -29.6839   24.1197 H   0  0  0  0  0  0
  -27.3939  -29.7248   25.4747 H   0  0  0  0  0  0
  -27.8794  -30.4349   23.9513 H   0  0  0  0  0  0
  -27.2677  -33.3672   26.2132 H   0  0  0  0  0  0
  -28.3827  -32.6962   25.0341 H   0  0  0  0  0  0
  -28.0756  -31.8506   26.5458 H   0  0  0  0  0  0
  -28.2658  -38.0107   24.7528 H   0  0  0  0  0  0
  -28.1060  -36.2625   24.6303 H   0  0  0  0  0  0
  -27.2287  -37.1496   25.8882 H   0  0  0  0  0  0
  -20.9402  -29.8728   21.6897 H   0  0  0  0  0  0
  -26.0223  -38.2900   24.1399 H   0  0  0  0  0  0
  -30.2564  -21.2084   16.9201 H   0  0  0  0  0  0
  -31.7206  -21.3030   17.8628 H   0  0  0  0  0  0
  -30.4335  -16.2306   18.6344 H   0  0  0  0  0  0
  -28.7374  -16.3498   19.0777 H   0  0  0  0  0  0
  -30.4780  -17.0688   22.2572 H   0  0  0  0  0  0
  -31.8207  -16.9098   21.1181 H   0  0  0  0  0  0
  -32.2948  -19.4949   16.5591 H   0  0  0  0  0  0
  -30.6315  -18.9915   16.3392 H   0  0  0  0  0  0
  -29.1208  -20.0178   18.6138 H   0  0  0  0  0  0
  -31.6991  -19.2263   20.0312 H   0  0  0  0  0  0
  -28.7360  -23.1421   17.2293 H   0  0  0  0  0  0
  -27.2661  -23.0561   18.1745 H   0  0  0  0  0  0
  -28.0739  -21.5977   17.7445 H   0  0  0  0  0  0
  -30.8346  -19.8747   21.8987 H   0  0  0  0  0  0
  -31.4332  -21.1273   22.9128 H   0  0  0  0  0  0
  -32.3356  -20.7633   21.4565 H   0  0  0  0  0  0
  -28.7163  -25.4096   22.6053 H   0  0  0  0  0  0
  -30.0561  -26.1393   21.7097 H   0  0  0  0  0  0
  -30.3888  -25.0608   23.0519 H   0  0  0  0  0  0
  -27.9168  -17.6452   20.9051 H   0  0  0  0  0  0
  -28.2422  -19.2285   20.3178 H   0  0  0  0  0  0
  -28.8625  -18.7293   21.8654 H   0  0  0  0  0  0
  -33.5213  -18.5918   18.7083 H   0  0  0  0  0  0
  -33.1730  -17.4141   17.4560 H   0  0  0  0  0  0
  -32.8071  -17.0283   19.1165 H   0  0  0  0  0  0
  -27.1384  -24.7846   20.0128 H   0  0  0  0  0  0
  -27.9815  -25.1686   18.5209 H   0  0  0  0  0  0
  -30.8612  -17.6404   17.9135 H   0  0  0  0  0  0
  1 25  1  0  0  0
  1 30  2  0  0  0
  1 90  1  0  0  0
  2  3  1  0  0  0
  2 25  1  0  0  0
  2 92  1  0  0  0
  2 93  1  0  0  0
  3  4  1  0  0  0
  3 94  1  0  0  0
  3 95  1  0  0  0
  4  5  1  0  0  0
  4 96  1  0  0  0
  4 97  1  0  0  0
  5  6  1  0  0  0
  5 26  1  0  0  0
  5 98  1  0  0  0
  6 25  1  0  0  0
  6 99  1  0  0  0
  6100  1  0  0  0
  7  8  2  0  0  0
  7 26  1  0  0  0
  7 29  1  0  0  0
  8  9  1  0  0  0
  8 22  1  0  0  0
  9 10  1  0  0  0
  9 27  2  0  0  0
 10 11  2  0  0  0
 10 15  1  0  0  0
 11 12  1  0  0  0
 11101  1  0  0  0
 12 13  2  0  0  0
 12102  1  0  0  0
 13 14  1  0  0  0
 13 31  1  0  0  0
 14 15  2  0  0  0
 14103  1  0  0  0
 15104  1  0  0  0
 16 17  2  0  0  0
 16 21  1  0  0  0
 16 31  1  0  0  0
 17 18  1  0  0  0
 17105  1  0  0  0
 18 19  2  0  0  0
 18106  1  0  0  0
 19 20  1  0  0  0
 19 24  1  0  0  0
 20 21  2  0  0  0
 20107  1  0  0  0
 21 23  1  0  0  0
 22 28  1  0  0  0
 22 32  2  0  0  0
 26 27  1  0  0  0
 28108  1  0  0  0
 28109  1  0  0  0
 29110  1  0  0  0
 29111  1  0  0  0
 33 34  1  0  0  0
 33 66  1  0  0  0
 33 70  2  0  0  0
 34 36  1  0  0  0
 34 59  1  0  0  0
 34112  1  0  0  0
 35 44  2  0  0  0
 35 45  1  0  0  0
 35 68  1  0  0  0
 36 56  1  0  0  0
 36113  1  0  0  0
 37 39  1  0  0  0
 37 47  1  0  0  0
 37 66  1  0  0  0
 37114  1  0  0  0
 38 43  2  0  0  0
 38 46  1  0  0  0
 38 47  1  0  0  0
 39 64  1  0  0  0
 39 67  2  0  0  0
 40 52  1  0  0  0
 40 53  2  0  0  0
 40 58  1  0  0  0
 41115  1  0  0  0
 41116  1  0  0  0
 41117  1  0  0  0
 41 48  1  0  0  0
 42 43  1  0  0  0
 42 66  1  0  0  0
 42118  1  0  0  0
 42119  1  0  0  0
 43 44  1  0  0  0
 44120  1  0  0  0
 45 46  2  0  0  0
 45121  1  0  0  0
 46122  1  0  0  0
 47123  1  0  0  0
 47124  1  0  0  0
 48 56  1  0  0  0
 48 65  1  0  0  0
 48125  1  0  0  0
 49 50  1  0  0  0
 49 53  1  0  0  0
 49 64  1  0  0  0
 49126  1  0  0  0
 50 51  1  0  0  0
 50127  1  0  0  0
 50128  1  0  0  0
 51 52  1  0  0  0
 51129  1  0  0  0
 51130  1  0  0  0
 52131  1  0  0  0
 52132  1  0  0  0
 53 54  1  0  0  0
 54 55  2  0  0  0
 54133  1  0  0  0
 55 57  1  0  0  0
 55134  1  0  0  0
 56 69  2  0  0  0
 57 58  2  0  0  0
 57135  1  0  0  0
 58136  1  0  0  0
 59 60  1  0  0  0
 59 61  1  0  0  0
 59 62  1  0  0  0
 60137  1  0  0  0
 60138  1  0  0  0
 60139  1  0  0  0
 61140  1  0  0  0
 61141  1  0  0  0
 61142  1  0  0  0
 62143  1  0  0  0
 62144  1  0  0  0
 62145  1  0  0  0
 63 65  1  0  0  0
 63146  1  0  0  0
 63147  1  0  0  0
 63148  1  0  0  0
 64149  1  0  0  0
 65150  1  0  0  0
 68 88  1  0  0  0
 71 72  2  0  0  0
 71 74  1  0  0  0
 71 80  1  0  0  0
 72 73  1  0  0  0
 72 83  1  0  0  0
 73 75  2  0  0  0
 73 88  1  0  0  0
 74 84  1  0  0  0
 74 89  2  0  0  0
 75 85  1  0  0  0
 75 89  1  0  0  0
 76 79  1  0  0  0
 76 80  1  0  0  0
 76151  1  0  0  0
 76152  1  0  0  0
 77 82  1  0  0  0
 77 90  1  0  0  0
 77153  1  0  0  0
 77154  1  0  0  0
 78 82  1  0  0  0
 78 90  1  0  0  0
 78155  1  0  0  0
 78156  1  0  0  0
 79 91  1  0  0  0
 79157  1  0  0  0
 79158  1  0  0  0
 80 81  1  0  0  0
 80159  1  0  0  0
 81 82  1  0  0  0
 81 91  1  0  0  0
 81160  1  0  0  0
 82 86  1  0  0  0
 83161  1  0  0  0
 83162  1  0  0  0
 83163  1  0  0  0
 84164  1  0  0  0
 84165  1  0  0  0
 84166  1  0  0  0
 85167  1  0  0  0
 85168  1  0  0  0
 85169  1  0  0  0
 86170  1  0  0  0
 86171  1  0  0  0
 86172  1  0  0  0
 87173  1  0  0  0
 87174  1  0  0  0
 87175  1  0  0  0
 87 91  1  0  0  0
 88176  1  0  0  0
 88177  1  0  0  0
 91178  1  0  0  0
M  CHG  1  91   1
M  ISO  4   1 100  68 101  88 101  90 100
M  END
> <chiral flag>
0

> <version>
0

> <s_m_source_file>
/data/baiqing/PycharmProjects/Reinvent-master-3.2/result/LINK_invent/BTK/process_docking_weight1_custom_sum_contain_oxygen_bond_distance_aromatic_linkinvent_7_9_3/rearranged_h_0166.sdf

> <i_m_source_file_index>
53

> <r_mmod_Potential_Energy-OPLS-2005>
122.71019744873

> <r_mmod_Stretch_Energy-OPLS-2005>
86.4255752563477

> <r_mmod_Bend_Energy-OPLS-2005>
200.595642089844

> <r_mmod_Torsional_Energy-OPLS-2005>
403.947845458984

> <r_mmod_Improper_Torsional_Energy-OPLS-2005>
15.3083343505859

> <r_mmod_Van_der_Waal_Energy-OPLS-2005>
185.732208251953

> <r_mmod_Electrostatic_Energy-OPLS-2005>
-363.886779785156

> <r_mmod_Solvation_Energy-OPLS-2005>
-443.842926025391

> <b_mmod_Minimization_Converged-OPLS-2005>
0

> <r_mmod_RMS_Derivative-OPLS-2005>
8.79551315307617

$$$$
53
                    3D
 Structure written by MMmdl.
165175  0  0  1  0            999 V2000
  -30.7375  -14.4933   20.5868 C   0  0  0  0  0  0
  -30.4151  -12.3326   19.4268 C   0  0  0  0  0  0
  -29.4895  -12.5114   18.2076 C   0  0  0  0  0  0
  -28.0153  -12.3575   18.6247 C   0  0  0  0  0  0
  -27.6570  -13.2086   19.8715 C   0  0  2  0  0  0
  -28.7026  -13.0272   20.9971 C   0  0  0  0  0  0
  -25.2568  -13.8158   20.5684 C   0  0  0  0  0  0
  -24.1835  -13.0434   20.9194 C   0  0  0  0  0  0
  -24.6404  -11.6900   20.8771 C   0  0  0  0  0  0
  -23.9072  -10.4289   21.0433 C   0  0  0  0  0  0
  -24.3624   -9.4194   21.9202 C   0  0  0  0  0  0
  -23.6291   -8.2236   22.0763 C   0  0  0  0  0  0
  -22.4274   -8.0285   21.3549 C   0  0  0  0  0  0
  -21.9919   -9.0263   20.4649 C   0  0  0  0  0  0
  -22.7251  -10.2139   20.3068 C   0  0  0  0  0  0
  -21.6844   -6.0742   22.5280 C   0  0  0  0  0  0
  -21.4011   -6.5648   23.8217 C   0  0  0  0  0  0
  -21.3659   -5.6802   24.9179 C   0  0  0  0  0  0
  -21.6044   -4.3066   24.7228 C   0  0  0  0  0  0
  -21.8821   -3.8154   23.4351 C   0  0  0  0  0  0
  -21.9188   -4.6969   22.3404 C   0  0  0  0  0  0
  -22.7853  -13.5227   21.1842 C   0  0  0  0  0  0
  -22.1652   -4.2156   21.0979 F   0  0  0  0  0  0
  -21.5631   -3.4548   25.7741 F   0  0  0  0  0  0
  -30.0281  -13.3345   20.4380 N   0  0  0  0  0  0
  -26.3007  -12.9335   20.3377 N   0  0  0  0  0  0
  -25.9330  -11.6493   20.5805 N   0  0  0  0  0  0
  -22.0492  -12.8221   22.0399 N   0  0  0  0  0  0
  -25.4260  -15.1880   20.4046 N   0  0  0  0  0  0
  -31.8578  -14.6293   20.0855 O   0  0  0  0  0  0
  -21.6632   -6.8887   21.4245 O   0  0  0  0  0  0
  -22.3536  -14.5531   20.6689 O   0  0  0  0  0  0
  -24.6169  -31.8662   23.2112 C   0  0  0  0  0  0
  -25.9055  -32.4814   23.8399 C   0  0  1  0  0  0
  -27.2240  -27.4048   20.1005 C   0  0  0  0  0  0
  -25.5897  -33.8616   24.2315 N   0  0  0  0  0  0
  -23.4056  -30.4930   21.5522 C   0  0  2  0  0  0
  -24.8494  -28.9609   20.1131 C   0  0  0  0  0  0
  -22.7419  -29.4654   22.4980 C   0  0  0  0  0  0
  -18.0270  -28.1375   22.8504 C   0  0  0  0  0  0
  -24.1481  -36.7326   23.2638 C   0  0  0  0  0  0
  -25.9396  -30.8251   21.3694 C   0  0  0  0  0  0
  -26.0147  -29.4600   20.7098 C   0  0  0  0  0  0
  -27.2060  -28.6912   20.6970 C   0  0  0  0  0  0
  -26.0373  -26.9369   19.4867 C   0  0  0  0  0  0
  -24.8573  -27.7001   19.4982 C   0  0  0  0  0  0
  -23.6135  -29.8291   20.1659 C   0  0  0  0  0  0
  -25.4109  -36.3110   24.0324 C   0  0  1  0  0  0
  -20.5868  -28.3666   23.1310 C   0  0  2  0  0  0
  -20.6760  -26.9397   22.5424 C   0  0  0  0  0  0
  -19.5734  -26.6384   21.5220 C   0  0  0  0  0  0
  -18.1912  -26.7923   22.1632 C   0  0  0  0  0  0
  -19.1526  -28.8837   23.2899 C   0  0  0  0  0  0
  -18.9450  -30.1449   23.8898 C   0  0  0  0  0  0
  -17.6451  -30.6581   24.0569 C   0  0  0  0  0  0
  -25.9035  -34.9470   23.5119 C   0  0  0  0  0  0
  -16.5343  -29.9080   23.6333 C   0  0  0  0  0  0
  -16.7258  -28.6502   23.0351 C   0  0  0  0  0  0
  -26.4479  -31.6610   25.0750 C   0  0  0  0  0  0
  -25.3726  -31.3715   26.1487 C   0  0  0  0  0  0
  -27.0349  -30.3047   24.6180 C   0  0  0  0  0  0
  -27.6042  -32.4348   25.7511 C   0  0  0  0  0  0
  -27.5582  -37.1808   24.8459 C   0  0  0  0  0  0
  -21.4144  -29.3033   22.3720 N   0  0  0  0  0  0
  -26.4295  -37.3796   23.9404 N   0  0  0  0  0  0
  -24.6726  -31.0755   22.1021 N   0  0  0  0  0  0
  -23.4185  -28.8175   23.3010 O   0  0  0  0  0  0
  -28.3715  -26.6263   20.1445 O   0  0  0  0  0  0
  -26.5598  -34.8924   22.4684 O   0  0  0  0  0  0
  -23.5355  -32.1428   23.7491 O   0  0  0  0  0  0
  -29.1845  -22.1534   21.1358 C   0  0  0  0  0  0
  -29.2834  -20.7437   21.2725 C   0  0  0  0  0  0
  -29.7842  -21.9650   18.8038 C   0  0  0  0  0  0
  -29.4343  -22.7878   19.8965 C   0  0  0  0  0  0
  -29.8859  -20.5602   18.9295 C   0  0  0  0  0  0
  -29.6414  -19.9225   20.1709 C   0  0  0  0  0  0
  -30.2790  -17.6467   22.4476 C   0  0  0  0  0  0
  -28.4845  -24.8042   18.5743 C   0  0  0  0  0  0
  -31.0689  -16.3715   22.1366 C   0  0  0  0  0  0
  -29.0636  -16.3055   20.8687 C   0  0  0  0  0  0
  -29.3743  -24.2966   19.6905 C   0  0  1  0  0  0
  -29.2695  -17.7732   21.3143 C   0  0  2  0  0  0
  -28.1788  -25.1988   19.9962 C   0  0  1  0  0  0
  -31.7805  -19.5919   17.5490 C   0  0  0  0  0  0
  -30.2632  -19.7445   17.7026 C   0  0  0  0  0  0
  -30.2002  -15.4911   21.3407 N   0  0  0  0  0  0
  -29.7861  -18.5396   20.2182 O   0  0  0  0  0  0
  -31.4588  -12.4198   19.1183 H   0  0  0  0  0  0
  -30.3147  -11.3274   19.8400 H   0  0  0  0  0  0
  -29.7369  -11.7824   17.4350 H   0  0  0  0  0  0
  -29.6491  -13.4946   17.7618 H   0  0  0  0  0  0
  -27.8401  -11.3013   18.8345 H   0  0  0  0  0  0
  -27.3598  -12.6156   17.7924 H   0  0  0  0  0  0
  -27.6861  -14.2476   19.5481 H   0  0  0  0  0  0
  -28.6906  -12.0016   21.3687 H   0  0  0  0  0  0
  -28.4617  -13.6506   21.8583 H   0  0  0  0  0  0
  -25.2777   -9.5658   22.4774 H   0  0  0  0  0  0
  -23.9992   -7.4628   22.7485 H   0  0  0  0  0  0
  -21.0856   -8.8794   19.8952 H   0  0  0  0  0  0
  -22.3725  -10.9688   19.6179 H   0  0  0  0  0  0
  -21.2006   -7.6158   23.9719 H   0  0  0  0  0  0
  -21.1476   -6.0535   25.9081 H   0  0  0  0  0  0
  -22.0600   -2.7615   23.2852 H   0  0  0  0  0  0
  -22.4094  -11.9869   22.4781 H   0  0  0  0  0  0
  -21.1111  -13.1248   22.2614 H   0  0  0  0  0  0
  -24.6566  -15.8406   20.5076 H   0  0  0  0  0  0
  -26.2720  -15.6255   20.0639 H   0  0  0  0  0  0
  -26.7124  -32.5513   23.1158 H   0  0  0  0  0  0
  -25.0011  -33.9795   25.0431 H   0  0  0  0  0  0
  -22.6959  -31.3116   21.4144 H   0  0  0  0  0  0
  -23.3742  -35.9661   23.3314 H   0  0  0  0  0  0
  -24.3548  -36.8950   22.2049 H   0  0  0  0  0  0
  -23.7245  -37.6532   23.6660 H   0  0  0  0  0  0
  -26.0592  -31.5938   20.6045 H   0  0  0  0  0  0
  -26.8244  -30.8723   21.9926 H   0  0  0  0  0  0
  -28.1034  -29.0698   21.1668 H   0  0  0  0  0  0
  -25.9967  -25.9760   18.9947 H   0  0  0  0  0  0
  -23.9628  -27.3096   19.0335 H   0  0  0  0  0  0
  -23.7219  -30.6042   19.4072 H   0  0  0  0  0  0
  -22.7378  -29.2488   19.8699 H   0  0  0  0  0  0
  -25.1288  -36.1975   25.0815 H   0  0  0  0  0  0
  -20.9954  -28.3237   24.1436 H   0  0  0  0  0  0
  -20.5674  -26.2268   23.3616 H   0  0  0  0  0  0
  -21.6625  -26.7444   22.1210 H   0  0  0  0  0  0
  -19.6892  -25.6298   21.1240 H   0  0  0  0  0  0
  -19.6664  -27.3205   20.6755 H   0  0  0  0  0  0
  -17.4185  -26.6681   21.4032 H   0  0  0  0  0  0
  -18.0291  -26.0064   22.9022 H   0  0  0  0  0  0
  -19.7926  -30.7268   24.2255 H   0  0  0  0  0  0
  -17.5008  -31.6259   24.5176 H   0  0  0  0  0  0
  -15.5339  -30.2977   23.7662 H   0  0  0  0  0  0
  -15.8661  -28.0822   22.7051 H   0  0  0  0  0  0
  -24.5876  -30.7097   25.7807 H   0  0  0  0  0  0
  -24.8940  -32.2872   26.4957 H   0  0  0  0  0  0
  -25.8054  -30.8847   27.0235 H   0  0  0  0  0  0
  -26.2936  -29.6765   24.1220 H   0  0  0  0  0  0
  -27.4098  -29.7320   25.4674 H   0  0  0  0  0  0
  -27.8766  -30.4374   23.9378 H   0  0  0  0  0  0
  -27.2650  -33.3637   26.2102 H   0  0  0  0  0  0
  -28.3824  -32.6923   25.0320 H   0  0  0  0  0  0
  -28.0733  -31.8477   26.5414 H   0  0  0  0  0  0
  -28.2587  -38.0117   24.7519 H   0  0  0  0  0  0
  -28.1093  -36.2645   24.6277 H   0  0  0  0  0  0
  -27.2289  -37.1447   25.8858 H   0  0  0  0  0  0
  -20.9297  -29.8770   21.6964 H   0  0  0  0  0  0
  -26.0189  -38.2873   24.1425 H   0  0  0  0  0  0
  -28.9219  -22.7497   21.9993 H   0  0  0  0  0  0
  -29.0960  -20.3103   22.2438 H   0  0  0  0  0  0
  -29.9841  -22.4250   17.8450 H   0  0  0  0  0  0
  -30.9178  -18.5232   22.5574 H   0  0  0  0  0  0
  -29.7446  -17.5148   23.3894 H   0  0  0  0  0  0
  -27.7937  -24.1070   18.1049 H   0  0  0  0  0  0
  -28.8914  -25.5681   17.9153 H   0  0  0  0  0  0
  -31.3991  -15.8724   23.0492 H   0  0  0  0  0  0
  -31.9630  -16.6429   21.5712 H   0  0  0  0  0  0
  -28.9289  -16.2405   19.7874 H   0  0  0  0  0  0
  -28.1575  -15.9167   21.3334 H   0  0  0  0  0  0
  -30.3642  -24.7367   19.7937 H   0  0  0  0  0  0
  -28.3234  -18.1974   21.6545 H   0  0  0  0  0  0
  -27.3340  -24.7706   20.5354 H   0  0  0  0  0  0
  -32.0239  -18.9937   16.6699 H   0  0  0  0  0  0
  -32.2147  -19.0982   18.4193 H   0  0  0  0  0  0
  -32.2653  -20.5625   17.4371 H   0  0  0  0  0  0
  -29.8488  -20.2224   16.8143 H   0  0  0  0  0  0
  -29.7954  -18.7614   17.7491 H   0  0  0  0  0  0
  1 25  1  0  0  0
  1 30  2  0  0  0
  1 86  1  0  0  0
  2  3  1  0  0  0
  2 25  1  0  0  0
  2 88  1  0  0  0
  2 89  1  0  0  0
  3  4  1  0  0  0
  3 90  1  0  0  0
  3 91  1  0  0  0
  4  5  1  0  0  0
  4 92  1  0  0  0
  4 93  1  0  0  0
  5  6  1  0  0  0
  5 26  1  0  0  0
  5 94  1  0  0  0
  6 25  1  0  0  0
  6 95  1  0  0  0
  6 96  1  0  0  0
  7  8  2  0  0  0
  7 26  1  0  0  0
  7 29  1  0  0  0
  8  9  1  0  0  0
  8 22  1  0  0  0
  9 10  1  0  0  0
  9 27  2  0  0  0
 10 11  2  0  0  0
 10 15  1  0  0  0
 11 12  1  0  0  0
 11 97  1  0  0  0
 12 13  2  0  0  0
 12 98  1  0  0  0
 13 14  1  0  0  0
 13 31  1  0  0  0
 14 15  2  0  0  0
 14 99  1  0  0  0
 15100  1  0  0  0
 16 17  2  0  0  0
 16 21  1  0  0  0
 16 31  1  0  0  0
 17 18  1  0  0  0
 17101  1  0  0  0
 18 19  2  0  0  0
 18102  1  0  0  0
 19 20  1  0  0  0
 19 24  1  0  0  0
 20 21  2  0  0  0
 20103  1  0  0  0
 21 23  1  0  0  0
 22 28  1  0  0  0
 22 32  2  0  0  0
 26 27  1  0  0  0
 28104  1  0  0  0
 28105  1  0  0  0
 29106  1  0  0  0
 29107  1  0  0  0
 33 34  1  0  0  0
 33 66  1  0  0  0
 33 70  2  0  0  0
 34 36  1  0  0  0
 34 59  1  0  0  0
 34108  1  0  0  0
 35 44  2  0  0  0
 35 45  1  0  0  0
 35 68  1  0  0  0
 36 56  1  0  0  0
 36109  1  0  0  0
 37 39  1  0  0  0
 37 47  1  0  0  0
 37 66  1  0  0  0
 37110  1  0  0  0
 38 43  2  0  0  0
 38 46  1  0  0  0
 38 47  1  0  0  0
 39 64  1  0  0  0
 39 67  2  0  0  0
 40 52  1  0  0  0
 40 53  2  0  0  0
 40 58  1  0  0  0
 41111  1  0  0  0
 41112  1  0  0  0
 41113  1  0  0  0
 41 48  1  0  0  0
 42 43  1  0  0  0
 42 66  1  0  0  0
 42114  1  0  0  0
 42115  1  0  0  0
 43 44  1  0  0  0
 44116  1  0  0  0
 45 46  2  0  0  0
 45117  1  0  0  0
 46118  1  0  0  0
 47119  1  0  0  0
 47120  1  0  0  0
 48 56  1  0  0  0
 48 65  1  0  0  0
 48121  1  0  0  0
 49 50  1  0  0  0
 49 53  1  0  0  0
 49 64  1  0  0  0
 49122  1  0  0  0
 50 51  1  0  0  0
 50123  1  0  0  0
 50124  1  0  0  0
 51 52  1  0  0  0
 51125  1  0  0  0
 51126  1  0  0  0
 52127  1  0  0  0
 52128  1  0  0  0
 53 54  1  0  0  0
 54 55  2  0  0  0
 54129  1  0  0  0
 55 57  1  0  0  0
 55130  1  0  0  0
 56 69  2  0  0  0
 57 58  2  0  0  0
 57131  1  0  0  0
 58132  1  0  0  0
 59 60  1  0  0  0
 59 61  1  0  0  0
 59 62  1  0  0  0
 60133  1  0  0  0
 60134  1  0  0  0
 60135  1  0  0  0
 61136  1  0  0  0
 61137  1  0  0  0
 61138  1  0  0  0
 62139  1  0  0  0
 62140  1  0  0  0
 62141  1  0  0  0
 63 65  1  0  0  0
 63142  1  0  0  0
 63143  1  0  0  0
 63144  1  0  0  0
 64145  1  0  0  0
 65146  1  0  0  0
 68 83  1  0  0  0
 71 72  2  0  0  0
 71 74  1  0  0  0
 71147  1  0  0  0
 72 76  1  0  0  0
 72148  1  0  0  0
 73 74  2  0  0  0
 73 75  1  0  0  0
 73149  1  0  0  0
 74 81  1  0  0  0
 75 76  2  0  0  0
 75 85  1  0  0  0
 76 87  1  0  0  0
 77 79  1  0  0  0
 77 82  1  0  0  0
 77150  1  0  0  0
 77151  1  0  0  0
 78 81  1  0  0  0
 78 83  1  0  0  0
 78152  1  0  0  0
 78153  1  0  0  0
 79 86  1  0  0  0
 79154  1  0  0  0
 79155  1  0  0  0
 80 82  1  0  0  0
 80 86  1  0  0  0
 80156  1  0  0  0
 80157  1  0  0  0
 81 83  1  0  0  0
 81158  1  0  0  0
 82 87  1  0  0  0
 82159  1  0  0  0
 83160  1  0  0  0
 84 85  1  0  0  0
 84161  1  0  0  0
 84162  1  0  0  0
 84163  1  0  0  0
 85164  1  0  0  0
 85165  1  0  0  0
M  ISO  4   1 100  68 101  83 101  86 100
M  END
> <chiral flag>
0

> <version>
0

> <s_m_source_file>
/data/baiqing/PycharmProjects/Reinvent-master-3.2/result/LINK_invent/BTK/process_docking_weight1_custom_sum_contain_oxygen_bond_distance_aromatic_linkinvent_7_9_3/rearranged_h_0166.sdf

> <i_m_source_file_index>
54

> <r_mmod_Potential_Energy-OPLS-2005>
165.60009765625

> <r_mmod_Stretch_Energy-OPLS-2005>
44.5636444091797

> <r_mmod_Bend_Energy-OPLS-2005>
136.933715820312

> <r_mmod_Torsional_Energy-OPLS-2005>
346.732940673828

> <r_mmod_Improper_Torsional_Energy-OPLS-2005>
5.22705173492432

> <r_mmod_Van_der_Waal_Energy-OPLS-2005>
146.06184387207

> <r_mmod_Electrostatic_Energy-OPLS-2005>
-331.777526855469

> <r_mmod_Solvation_Energy-OPLS-2005>
-200.341293334961

> <b_mmod_Minimization_Converged-OPLS-2005>
0

> <r_mmod_RMS_Derivative-OPLS-2005>
1.51049971580505

$$$$
54
                    3D
 Structure written by MMmdl.
190203  0  0  1  0            999 V2000
  -31.0587  -14.1205   20.6526 C   0  0  0  0  0  0
  -30.4135  -12.2198   19.3544 C   0  0  0  0  0  0
  -29.4681  -12.5546   18.1960 C   0  0  0  0  0  0
  -28.0171  -12.3719   18.6411 C   0  0  0  0  0  0
  -27.7030  -13.2157   19.8995 C   0  0  2  0  0  0
  -28.7812  -13.0299   21.0124 C   0  0  0  0  0  0
  -25.2810  -13.8179   20.5798 C   0  0  0  0  0  0
  -24.2016  -13.0467   20.9158 C   0  0  0  0  0  0
  -24.6557  -11.6900   20.8781 C   0  0  0  0  0  0
  -23.9166  -10.4304   21.0378 C   0  0  0  0  0  0
  -24.3663   -9.4189   21.9184 C   0  0  0  0  0  0
  -23.6302   -8.2254   22.0783 C   0  0  0  0  0  0
  -22.4262   -8.0341   21.3590 C   0  0  0  0  0  0
  -21.9917   -9.0278   20.4657 C   0  0  0  0  0  0
  -22.7305  -10.2124   20.3031 C   0  0  0  0  0  0
  -21.6760   -6.0805   22.5249 C   0  0  0  0  0  0
  -21.3949   -6.5653   23.8188 C   0  0  0  0  0  0
  -21.3653   -5.6803   24.9133 C   0  0  0  0  0  0
  -21.6016   -4.3063   24.7173 C   0  0  0  0  0  0
  -21.8815   -3.8201   23.4270 C   0  0  0  0  0  0
  -21.9167   -4.7051   22.3348 C   0  0  0  0  0  0
  -22.8008  -13.5247   21.1824 C   0  0  0  0  0  0
  -22.1709   -4.2259   21.0932 F   0  0  0  0  0  0
  -21.5621   -3.4511   25.7666 F   0  0  0  0  0  0
  -30.1668  -13.1150   20.4874 N   0  0  0  0  0  0
  -26.3349  -12.9400   20.3610 N   0  0  0  0  0  0
  -25.9540  -11.6520   20.5936 N   0  0  0  0  0  0
  -22.0665  -12.8189   22.0342 N   0  0  0  0  0  0
  -25.4518  -15.1927   20.4239 N   0  0  0  0  0  0
  -31.1570  -15.0539   19.8732 O   0  0  0  0  0  0
  -21.6610   -6.8964   21.4232 O   0  0  0  0  0  0
  -22.3713  -14.5610   20.6755 O   0  0  0  0  0  0
  -24.6133  -31.8726   23.2096 C   0  0  0  0  0  0
  -25.9053  -32.4843   23.8402 C   0  0  1  0  0  0
  -27.2533  -27.4556   20.0807 C   0  0  0  0  0  0
  -25.5956  -33.8636   24.2337 N   0  0  0  0  0  0
  -23.4019  -30.4900   21.5542 C   0  0  2  0  0  0
  -24.8493  -28.9432   20.1347 C   0  0  0  0  0  0
  -22.7396  -29.4654   22.5031 C   0  0  0  0  0  0
  -18.0271  -28.1381   22.8491 C   0  0  0  0  0  0
  -24.1493  -36.7305   23.2620 C   0  0  0  0  0  0
  -25.9275  -30.8313   21.3686 C   0  0  0  0  0  0
  -26.0065  -29.4612   20.7267 C   0  0  0  0  0  0
  -27.2111  -28.7181   20.7138 C   0  0  0  0  0  0
  -26.0779  -26.9379   19.5012 C   0  0  0  0  0  0
  -24.8732  -27.6735   19.5294 C   0  0  0  0  0  0
  -23.6122  -29.8149   20.1737 C   0  0  0  0  0  0
  -25.4111  -36.3111   24.0335 C   0  0  1  0  0  0
  -20.5861  -28.3663   23.1334 C   0  0  2  0  0  0
  -20.6785  -26.9425   22.5407 C   0  0  0  0  0  0
  -19.5748  -26.6397   21.5215 C   0  0  0  0  0  0
  -18.1916  -26.7928   22.1625 C   0  0  0  0  0  0
  -19.1530  -28.8834   23.2915 C   0  0  0  0  0  0
  -18.9460  -30.1445   23.8912 C   0  0  0  0  0  0
  -17.6464  -30.6590   24.0568 C   0  0  0  0  0  0
  -25.9049  -34.9483   23.5142 C   0  0  0  0  0  0
  -16.5347  -29.9090   23.6323 C   0  0  0  0  0  0
  -16.7264  -28.6511   23.0332 C   0  0  0  0  0  0
  -26.4503  -31.6586   25.0697 C   0  0  0  0  0  0
  -25.3768  -31.3715   26.1451 C   0  0  0  0  0  0
  -27.0307  -30.3009   24.6057 C   0  0  0  0  0  0
  -27.6092  -32.4275   25.7479 C   0  0  0  0  0  0
  -27.5592  -37.1801   24.8458 C   0  0  0  0  0  0
  -21.4135  -29.3034   22.3750 N   0  0  0  0  0  0
  -26.4282  -37.3798   23.9435 N   0  0  0  0  0  0
  -24.6642  -31.0807   22.1018 N   0  0  0  0  0  0
  -23.4152  -28.8201   23.3090 O   0  0  0  0  0  0
  -28.4368  -26.7693   19.9427 O   0  0  0  0  0  0
  -26.5577  -34.8932   22.4670 O   0  0  0  0  0  0
  -23.5335  -32.1492   23.7497 O   0  0  0  0  0  0
  -33.3663  -17.3829   20.4692 C   0  0  0  0  0  0
  -32.5517  -18.5168   20.2614 C   0  0  0  0  0  0
  -33.5777  -16.8658   21.7625 C   0  0  0  0  0  0
  -32.9455  -17.5014   22.8681 C   0  0  0  0  0  0
  -32.0339  -18.5763   22.6462 C   0  0  0  0  0  0
  -31.8847  -19.1285   21.3434 C   0  0  0  0  0  0
  -33.9180  -18.0076   25.2649 C   0  0  0  0  0  0
  -34.6360  -16.7713   24.8110 C   0  0  0  0  0  0
  -30.3557  -18.1825   24.6084 C   0  0  0  0  0  0
  -29.7391  -19.3096   23.8312 C   0  0  0  0  0  0
  -31.4697  -21.7949   19.1893 C   0  0  0  0  0  0
  -29.1712  -21.3649   20.0462 C   0  0  0  0  0  0
  -32.6093  -13.9342   22.5675 C   0  0  0  0  0  0
  -33.4668  -13.7923   20.3707 C   0  0  0  0  0  0
  -31.4180  -23.2046   19.8323 C   0  0  0  0  0  0
  -29.1666  -22.7555   20.7111 C   0  0  0  0  0  0
  -34.5276  -15.7021   21.9662 C   0  0  1  0  0  0
  -33.2408  -17.0597   24.2892 C   0  0  0  0  0  0
  -31.2475  -19.1203   23.8192 C   0  0  0  0  0  0
  -34.0573  -14.4009   22.5993 C   0  0  2  0  0  0
  -34.5660  -14.3864   21.1999 C   0  0  1  0  0  0
  -30.5721  -20.7551   19.8913 C   0  0  2  0  0  0
  -30.0773  -25.1010   20.6569 C   0  0  0  0  0  0
  -28.7245  -25.8121   20.9524 C   0  0  0  0  0  0
  -32.2258  -13.6815   21.1773 N   0  0  0  0  0  0
  -31.0863  -20.2836   21.1806 N   0  0  0  0  0  0
  -30.0333  -23.7458   20.0071 N   0  3  1  0  0  0
  -31.4439  -12.2521   18.9978 H   0  0  0  0  0  0
  -30.2545  -11.2020   19.6992 H   0  0  0  0  0  0
  -29.6962  -11.9110   17.3504 H   0  0  0  0  0  0
  -29.6206  -13.5817   17.8625 H   0  0  0  0  0  0
  -27.8677  -11.3109   18.8532 H   0  0  0  0  0  0
  -27.3310  -12.6324   17.8316 H   0  0  0  0  0  0
  -27.7484  -14.2590   19.5821 H   0  0  0  0  0  0
  -28.6588  -12.0498   21.4755 H   0  0  0  0  0  0
  -28.6407  -13.7593   21.8071 H   0  0  0  0  0  0
  -25.2786   -9.5603   22.4812 H   0  0  0  0  0  0
  -23.9991   -7.4556   22.7390 H   0  0  0  0  0  0
  -21.0916   -8.8699   19.8909 H   0  0  0  0  0  0
  -22.3743  -10.9652   19.6163 H   0  0  0  0  0  0
  -21.1920   -7.6154   23.9678 H   0  0  0  0  0  0
  -21.1515   -6.0567   25.9024 H   0  0  0  0  0  0
  -22.0624   -2.7693   23.2680 H   0  0  0  0  0  0
  -22.4338  -11.9779   22.4598 H   0  0  0  0  0  0
  -21.1300  -13.1146   22.2705 H   0  0  0  0  0  0
  -24.6809  -15.8434   20.5223 H   0  0  0  0  0  0
  -26.3133  -15.6305   20.1170 H   0  0  0  0  0  0
  -26.7106  -32.5557   23.1161 H   0  0  0  0  0  0
  -25.0201  -33.9796   25.0558 H   0  0  0  0  0  0
  -22.6882  -31.3038   21.4103 H   0  0  0  0  0  0
  -23.3775  -35.9625   23.3287 H   0  0  0  0  0  0
  -24.3594  -36.8908   22.2036 H   0  0  0  0  0  0
  -23.7221  -37.6506   23.6621 H   0  0  0  0  0  0
  -26.0293  -31.5882   20.5908 H   0  0  0  0  0  0
  -26.8182  -30.8929   21.9831 H   0  0  0  0  0  0
  -28.1084  -29.1178   21.1645 H   0  0  0  0  0  0
  -26.0968  -25.9725   19.0153 H   0  0  0  0  0  0
  -23.9813  -27.2619   19.0775 H   0  0  0  0  0  0
  -23.7283  -30.5857   19.4128 H   0  0  0  0  0  0
  -22.7354  -29.2408   19.8729 H   0  0  0  0  0  0
  -25.1272  -36.1988   25.0821 H   0  0  0  0  0  0
  -20.9933  -28.3234   24.1467 H   0  0  0  0  0  0
  -20.5730  -26.2262   23.3588 H   0  0  0  0  0  0
  -21.6650  -26.7491   22.1181 H   0  0  0  0  0  0
  -19.6949  -25.6318   21.1216 H   0  0  0  0  0  0
  -19.6715  -27.3218   20.6760 H   0  0  0  0  0  0
  -17.4209  -26.6680   21.4011 H   0  0  0  0  0  0
  -18.0350  -26.0056   22.9002 H   0  0  0  0  0  0
  -19.7932  -30.7268   24.2281 H   0  0  0  0  0  0
  -17.5012  -31.6276   24.5187 H   0  0  0  0  0  0
  -15.5348  -30.3007   23.7648 H   0  0  0  0  0  0
  -15.8653  -28.0843   22.7029 H   0  0  0  0  0  0
  -24.5946  -30.7049   25.7815 H   0  0  0  0  0  0
  -24.8959  -32.2872   26.4877 H   0  0  0  0  0  0
  -25.8122  -30.8910   27.0217 H   0  0  0  0  0  0
  -26.2828  -29.6791   24.1108 H   0  0  0  0  0  0
  -27.4069  -29.7228   25.4515 H   0  0  0  0  0  0
  -27.8682  -30.4322   23.9196 H   0  0  0  0  0  0
  -27.2734  -33.3573   26.2090 H   0  0  0  0  0  0
  -28.3916  -32.6823   25.0310 H   0  0  0  0  0  0
  -28.0746  -31.8351   26.5379 H   0  0  0  0  0  0
  -28.2576  -38.0124   24.7556 H   0  0  0  0  0  0
  -28.1114  -36.2667   24.6213 H   0  0  0  0  0  0
  -27.2322  -37.1364   25.8852 H   0  0  0  0  0  0
  -20.9311  -29.8740   21.6961 H   0  0  0  0  0  0
  -26.0194  -38.2875   24.1468 H   0  0  0  0  0  0
  -33.8603  -16.9231   19.6248 H   0  0  0  0  0  0
  -32.4505  -18.8999   19.2557 H   0  0  0  0  0  0
  -34.2908  -18.9566   24.8797 H   0  0  0  0  0  0
  -33.5752  -18.0098   26.2952 H   0  0  0  0  0  0
  -34.7305  -15.9593   25.5282 H   0  0  0  0  0  0
  -35.5058  -16.9302   24.1760 H   0  0  0  0  0  0
  -30.1821  -17.1818   24.2141 H   0  0  0  0  0  0
  -30.3727  -18.2693   25.6949 H   0  0  0  0  0  0
  -29.3301  -20.1084   24.4469 H   0  0  0  0  0  0
  -29.1535  -19.0331   22.9536 H   0  0  0  0  0  0
  -32.5029  -21.4483   19.1546 H   0  0  0  0  0  0
  -31.1448  -21.8763   18.1491 H   0  0  0  0  0  0
  -28.7022  -21.4433   19.0632 H   0  0  0  0  0  0
  -28.5352  -20.6830   20.6084 H   0  0  0  0  0  0
  -31.9717  -14.6844   23.0392 H   0  0  0  0  0  0
  -32.5074  -13.0175   23.1453 H   0  0  0  0  0  0
  -33.7689  -12.7908   20.0423 H   0  0  0  0  0  0
  -33.3819  -14.3801   19.4546 H   0  0  0  0  0  0
  -32.0049  -23.9001   19.2297 H   0  0  0  0  0  0
  -31.9054  -23.1545   20.8060 H   0  0  0  0  0  0
  -29.5009  -22.6710   21.7450 H   0  0  0  0  0  0
  -28.1323  -23.0896   20.7398 H   0  0  0  0  0  0
  -35.5121  -16.0861   22.2222 H   0  0  0  0  0  0
  -32.4365  -16.4396   24.6784 H   0  0  0  0  0  0
  -31.8477  -19.8453   24.3648 H   0  0  0  0  0  0
  -34.6957  -13.9277   23.3457 H   0  0  0  0  0  0
  -35.5632  -13.9924   21.0166 H   0  0  0  0  0  0
  -30.4676  -19.8952   19.2282 H   0  0  0  0  0  0
  -30.6141  -24.9924   21.5984 H   0  0  0  0  0  0
  -30.6951  -25.7763   20.0552 H   0  0  0  0  0  0
  -28.8365  -26.3556   21.8926 H   0  0  0  0  0  0
  -27.8797  -25.1405   21.0883 H   0  0  0  0  0  0
  -30.5132  -20.4669   21.9959 H   0  0  0  0  0  0
  -29.6443  -23.8693   19.0809 H   0  0  0  0  0  0
  1 25  1  0  0  0
  1 30  2  0  0  0
  1 95  1  0  0  0
  2  3  1  0  0  0
  2 25  1  0  0  0
  2 98  1  0  0  0
  2 99  1  0  0  0
  3  4  1  0  0  0
  3100  1  0  0  0
  3101  1  0  0  0
  4  5  1  0  0  0
  4102  1  0  0  0
  4103  1  0  0  0
  5  6  1  0  0  0
  5 26  1  0  0  0
  5104  1  0  0  0
  6 25  1  0  0  0
  6105  1  0  0  0
  6106  1  0  0  0
  7  8  2  0  0  0
  7 26  1  0  0  0
  7 29  1  0  0  0
  8  9  1  0  0  0
  8 22  1  0  0  0
  9 10  1  0  0  0
  9 27  2  0  0  0
 10 11  2  0  0  0
 10 15  1  0  0  0
 11 12  1  0  0  0
 11107  1  0  0  0
 12 13  2  0  0  0
 12108  1  0  0  0
 13 14  1  0  0  0
 13 31  1  0  0  0
 14 15  2  0  0  0
 14109  1  0  0  0
 15110  1  0  0  0
 16 17  2  0  0  0
 16 21  1  0  0  0
 16 31  1  0  0  0
 17 18  1  0  0  0
 17111  1  0  0  0
 18 19  2  0  0  0
 18112  1  0  0  0
 19 20  1  0  0  0
 19 24  1  0  0  0
 20 21  2  0  0  0
 20113  1  0  0  0
 21 23  1  0  0  0
 22 28  1  0  0  0
 22 32  2  0  0  0
 26 27  1  0  0  0
 28114  1  0  0  0
 28115  1  0  0  0
 29116  1  0  0  0
 29117  1  0  0  0
 33 34  1  0  0  0
 33 66  1  0  0  0
 33 70  2  0  0  0
 34 36  1  0  0  0
 34 59  1  0  0  0
 34118  1  0  0  0
 35 44  2  0  0  0
 35 45  1  0  0  0
 35 68  1  0  0  0
 36 56  1  0  0  0
 36119  1  0  0  0
 37 39  1  0  0  0
 37 47  1  0  0  0
 37 66  1  0  0  0
 37120  1  0  0  0
 38 43  2  0  0  0
 38 46  1  0  0  0
 38 47  1  0  0  0
 39 64  1  0  0  0
 39 67  2  0  0  0
 40 52  1  0  0  0
 40 53  2  0  0  0
 40 58  1  0  0  0
 41121  1  0  0  0
 41122  1  0  0  0
 41123  1  0  0  0
 41 48  1  0  0  0
 42 43  1  0  0  0
 42 66  1  0  0  0
 42124  1  0  0  0
 42125  1  0  0  0
 43 44  1  0  0  0
 44126  1  0  0  0
 45 46  2  0  0  0
 45127  1  0  0  0
 46128  1  0  0  0
 47129  1  0  0  0
 47130  1  0  0  0
 48 56  1  0  0  0
 48 65  1  0  0  0
 48131  1  0  0  0
 49 50  1  0  0  0
 49 53  1  0  0  0
 49 64  1  0  0  0
 49132  1  0  0  0
 50 51  1  0  0  0
 50133  1  0  0  0
 50134  1  0  0  0
 51 52  1  0  0  0
 51135  1  0  0  0
 51136  1  0  0  0
 52137  1  0  0  0
 52138  1  0  0  0
 53 54  1  0  0  0
 54 55  2  0  0  0
 54139  1  0  0  0
 55 57  1  0  0  0
 55140  1  0  0  0
 56 69  2  0  0  0
 57 58  2  0  0  0
 57141  1  0  0  0
 58142  1  0  0  0
 59 60  1  0  0  0
 59 61  1  0  0  0
 59 62  1  0  0  0
 60143  1  0  0  0
 60144  1  0  0  0
 60145  1  0  0  0
 61146  1  0  0  0
 61147  1  0  0  0
 61148  1  0  0  0
 62149  1  0  0  0
 62150  1  0  0  0
 62151  1  0  0  0
 63 65  1  0  0  0
 63152  1  0  0  0
 63153  1  0  0  0
 63154  1  0  0  0
 64155  1  0  0  0
 65156  1  0  0  0
 68 94  1  0  0  0
 71 72  2  0  0  0
 71 73  1  0  0  0
 71157  1  0  0  0
 72 76  1  0  0  0
 72158  1  0  0  0
 73 74  2  0  0  0
 73 87  1  0  0  0
 74 75  1  0  0  0
 74 88  1  0  0  0
 75 76  2  0  0  0
 75 89  1  0  0  0
 76 96  1  0  0  0
 77 78  1  0  0  0
 77 88  1  0  0  0
 77159  1  0  0  0
 77160  1  0  0  0
 78 88  1  0  0  0
 78161  1  0  0  0
 78162  1  0  0  0
 79 80  1  0  0  0
 79 89  1  0  0  0
 79163  1  0  0  0
 79164  1  0  0  0
 80 89  1  0  0  0
 80165  1  0  0  0
 80166  1  0  0  0
 81 85  1  0  0  0
 81 92  1  0  0  0
 81167  1  0  0  0
 81168  1  0  0  0
 82 86  1  0  0  0
 82 92  1  0  0  0
 82169  1  0  0  0
 82170  1  0  0  0
 83 95  1  0  0  0
 83171  1  0  0  0
 83172  1  0  0  0
 83 90  1  0  0  0
 84 95  1  0  0  0
 84173  1  0  0  0
 84174  1  0  0  0
 84 91  1  0  0  0
 85 97  1  0  0  0
 85175  1  0  0  0
 85176  1  0  0  0
 86 97  1  0  0  0
 86177  1  0  0  0
 86178  1  0  0  0
 87 90  1  0  0  0
 87 91  1  0  0  0
 87179  1  0  0  0
 88180  1  0  0  0
 89181  1  0  0  0
 90 91  1  0  0  0
 90182  1  0  0  0
 91183  1  0  0  0
 92 96  1  0  0  0
 92184  1  0  0  0
 93 94  1  0  0  0
 93185  1  0  0  0
 93186  1  0  0  0
 93 97  1  0  0  0
 94187  1  0  0  0
 94188  1  0  0  0
 96189  1  0  0  0
 97190  1  0  0  0
M  CHG  1  97   1
M  ISO  4   1 100  68 101  94 101  95 100
M  END
> <chiral flag>
0

> <version>
0

> <s_m_source_file>
/data/baiqing/PycharmProjects/Reinvent-master-3.2/result/LINK_invent/BTK/process_docking_weight1_custom_sum_contain_oxygen_bond_distance_aromatic_linkinvent_7_9_3/rearranged_h_0166.sdf

> <i_m_source_file_index>
55

> <r_mmod_Potential_Energy-OPLS-2005>
422.246459960938

> <r_mmod_Stretch_Energy-OPLS-2005>
48.1568870544434

> <r_mmod_Bend_Energy-OPLS-2005>
182.196350097656

> <r_mmod_Torsional_Energy-OPLS-2005>
541.068359375

> <r_mmod_Improper_Torsional_Energy-OPLS-2005>
34.5379524230957

> <r_mmod_Van_der_Waal_Energy-OPLS-2005>
142.506820678711

> <r_mmod_Electrostatic_Energy-OPLS-2005>
-220.929244995117

> <r_mmod_Solvation_Energy-OPLS-2005>
-389.815185546875

> <b_mmod_Minimization_Converged-OPLS-2005>
0

> <r_mmod_RMS_Derivative-OPLS-2005>
8.0656156539917

$$$$
55
                    3D
 Structure written by MMmdl.
176186  0  0  1  0            999 V2000
  -30.6513  -14.6341   20.4972 C   0  0  0  0  0  0
  -30.4269  -12.3903   19.4571 C   0  0  0  0  0  0
  -29.5018  -12.4880   18.2249 C   0  0  0  0  0  0
  -28.0256  -12.3317   18.6404 C   0  0  0  0  0  0
  -27.6442  -13.2150   19.8583 C   0  0  2  0  0  0
  -28.6900  -13.1142   20.9899 C   0  0  0  0  0  0
  -25.2548  -13.8150   20.5710 C   0  0  0  0  0  0
  -24.1810  -13.0423   20.9211 C   0  0  0  0  0  0
  -24.6377  -11.6893   20.8745 C   0  0  0  0  0  0
  -23.9036  -10.4283   21.0396 C   0  0  0  0  0  0
  -24.3592   -9.4208   21.9174 C   0  0  0  0  0  0
  -23.6279   -8.2237   22.0742 C   0  0  0  0  0  0
  -22.4259   -8.0265   21.3534 C   0  0  0  0  0  0
  -21.9888   -9.0239   20.4635 C   0  0  0  0  0  0
  -22.7207  -10.2131   20.3051 C   0  0  0  0  0  0
  -21.6862   -6.0713   22.5270 C   0  0  0  0  0  0
  -21.4014   -6.5622   23.8199 C   0  0  0  0  0  0
  -21.3671   -5.6779   24.9168 C   0  0  0  0  0  0
  -21.6051   -4.3042   24.7224 C   0  0  0  0  0  0
  -21.8826   -3.8132   23.4350 C   0  0  0  0  0  0
  -21.9197   -4.6940   22.3404 C   0  0  0  0  0  0
  -22.7846  -13.5240   21.1862 C   0  0  0  0  0  0
  -22.1669   -4.2125   21.0982 F   0  0  0  0  0  0
  -21.5624   -3.4527   25.7743 F   0  0  0  0  0  0
  -29.9990  -13.4331   20.4092 N   0  0  0  0  0  0
  -26.2947  -12.9320   20.3326 N   0  0  0  0  0  0
  -25.9300  -11.6474   20.5765 N   0  0  0  0  0  0
  -22.0469  -12.8230   22.0414 N   0  0  0  0  0  0
  -25.4289  -15.1871   20.4123 N   0  0  0  0  0  0
  -31.8412  -14.7385   20.1871 O   0  0  0  0  0  0
  -21.6641   -6.8855   21.4232 O   0  0  0  0  0  0
  -22.3558  -14.5549   20.6706 O   0  0  0  0  0  0
  -24.6237  -31.8615   23.2038 C   0  0  0  0  0  0
  -25.9107  -32.4766   23.8346 C   0  0  1  0  0  0
  -27.2211  -27.3366   20.1020 C   0  0  0  0  0  0
  -25.5949  -33.8566   24.2286 N   0  0  0  0  0  0
  -23.4124  -30.4903   21.5461 C   0  0  2  0  0  0
  -24.8547  -28.9434   20.1146 C   0  0  0  0  0  0
  -22.7442  -29.4665   22.4940 C   0  0  0  0  0  0
  -18.0276  -28.1376   22.8488 C   0  0  0  0  0  0
  -24.1504  -36.7276   23.2637 C   0  0  0  0  0  0
  -25.9532  -30.7980   21.3701 C   0  0  0  0  0  0
  -26.0245  -29.4268   20.7123 C   0  0  0  0  0  0
  -27.2077  -28.6339   20.6967 C   0  0  0  0  0  0
  -26.0224  -26.8972   19.4934 C   0  0  0  0  0  0
  -24.8544  -27.6820   19.5031 C   0  0  0  0  0  0
  -23.6247  -29.8253   20.1614 C   0  0  0  0  0  0
  -25.4127  -36.3070   24.0327 C   0  0  1  0  0  0
  -20.5881  -28.3692   23.1285 C   0  0  2  0  0  0
  -20.6774  -26.9415   22.5416 C   0  0  0  0  0  0
  -19.5747  -26.6382   21.5217 C   0  0  0  0  0  0
  -18.1922  -26.7916   22.1620 C   0  0  0  0  0  0
  -19.1532  -28.8842   23.2883 C   0  0  0  0  0  0
  -18.9467  -30.1445   23.8898 C   0  0  0  0  0  0
  -17.6475  -30.6590   24.0565 C   0  0  0  0  0  0
  -25.9065  -34.9440   23.5103 C   0  0  0  0  0  0
  -16.5364  -29.9101   23.6321 C   0  0  0  0  0  0
  -16.7265  -28.6510   23.0349 C   0  0  0  0  0  0
  -26.4507  -31.6552   25.0695 C   0  0  0  0  0  0
  -25.3755  -31.3691   26.1432 C   0  0  0  0  0  0
  -27.0347  -30.2978   24.6118 C   0  0  0  0  0  0
  -27.6061  -32.4284   25.7473 C   0  0  0  0  0  0
  -27.5574  -37.1799   24.8464 C   0  0  0  0  0  0
  -21.4167  -29.3049   22.3668 N   0  0  0  0  0  0
  -26.4288  -37.3780   23.9405 N   0  0  0  0  0  0
  -24.6817  -31.0675   22.0959 N   0  0  0  0  0  0
  -23.4189  -28.8219   23.3018 O   0  0  0  0  0  0
  -28.3772  -26.5441   20.1326 O   0  0  0  0  0  0
  -26.5636  -34.8915   22.4671 O   0  0  0  0  0  0
  -23.5428  -32.1391   23.7419 O   0  0  0  0  0  0
  -26.0314  -22.5899   19.4053 C   0  0  0  0  0  0
  -26.3129  -19.7803   19.2327 C   0  0  0  0  0  0
  -27.1010  -21.9331   20.0414 C   0  0  0  0  0  0
  -27.2741  -20.5378   19.9407 C   0  0  0  0  0  0
  -25.1207  -21.8371   18.6350 C   0  0  0  0  0  0
  -25.2480  -20.4266   18.5672 C   0  0  0  0  0  0
  -29.1761  -21.4213   21.0988 C   0  0  0  0  0  0
  -29.5656  -16.5094   19.3624 C   0  0  0  0  0  0
  -29.9659  -16.7010   21.7593 C   0  0  0  0  0  0
  -28.6720  -17.7704   19.5829 C   0  0  0  0  0  0
  -30.1714  -18.2445   21.4498 C   0  0  0  0  0  0
  -28.0610  -22.5317   21.0441 C   0  0  1  0  0  0
  -28.4420  -20.0376   20.8188 C   0  0  2  0  0  0
  -23.9776  -22.5564   17.9429 C   0  0  0  0  0  0
  -24.2261  -19.5804   17.8233 C   0  0  0  0  0  0
  -27.3603  -24.7276   22.1658 C   0  0  0  0  0  0
  -28.3555  -25.0867   19.8666 C   0  0  0  0  0  0
  -28.3359  -24.1228   21.1302 C   0  0  2  0  0  0
  -29.8751  -15.7685   20.6025 N   0  0  0  0  0  0
  -29.3198  -18.8580   20.3719 N   0  3  0  0  0  0
  -31.4698  -12.5028   19.1534 H   0  0  0  0  0  0
  -30.3522  -11.4044   19.9197 H   0  0  0  0  0  0
  -29.7657  -11.7175   17.4994 H   0  0  0  0  0  0
  -29.6475  -13.4456   17.7232 H   0  0  0  0  0  0
  -27.8677  -11.2807   18.8862 H   0  0  0  0  0  0
  -27.3689  -12.5487   17.7959 H   0  0  0  0  0  0
  -27.6437  -14.2420   19.5008 H   0  0  0  0  0  0
  -28.7019  -12.1136   21.4250 H   0  0  0  0  0  0
  -28.4426  -13.8011   21.8005 H   0  0  0  0  0  0
  -25.2735   -9.5702   22.4741 H   0  0  0  0  0  0
  -23.9995   -7.4645   22.7468 H   0  0  0  0  0  0
  -21.0818   -8.8758   19.8943 H   0  0  0  0  0  0
  -22.3653  -10.9670   19.6163 H   0  0  0  0  0  0
  -21.2001   -7.6128   23.9702 H   0  0  0  0  0  0
  -21.1494   -6.0502   25.9073 H   0  0  0  0  0  0
  -22.0602   -2.7589   23.2859 H   0  0  0  0  0  0
  -22.4069  -11.9901   22.4827 H   0  0  0  0  0  0
  -21.1091  -13.1279   22.2585 H   0  0  0  0  0  0
  -24.6647  -15.8451   20.5170 H   0  0  0  0  0  0
  -26.2902  -15.6161   20.1046 H   0  0  0  0  0  0
  -26.7161  -32.5447   23.1081 H   0  0  0  0  0  0
  -25.0102  -33.9706   25.0438 H   0  0  0  0  0  0
  -22.7040  -31.3096   21.4044 H   0  0  0  0  0  0
  -23.3770  -35.9606   23.3304 H   0  0  0  0  0  0
  -24.3604  -36.8889   22.2050 H   0  0  0  0  0  0
  -23.7250  -37.6478   23.6655 H   0  0  0  0  0  0
  -26.0863  -31.5638   20.6049 H   0  0  0  0  0  0
  -26.8316  -30.8431   22.0019 H   0  0  0  0  0  0
  -28.1080  -29.0037   21.1663 H   0  0  0  0  0  0
  -25.9419  -25.9433   19.0015 H   0  0  0  0  0  0
  -23.9524  -27.3044   19.0411 H   0  0  0  0  0  0
  -23.7459  -30.5987   19.4025 H   0  0  0  0  0  0
  -22.7421  -29.2587   19.8587 H   0  0  0  0  0  0
  -25.1313  -36.1917   25.0820 H   0  0  0  0  0  0
  -20.9976  -28.3273   24.1405 H   0  0  0  0  0  0
  -20.5680  -26.2313   23.3627 H   0  0  0  0  0  0
  -21.6648  -26.7447   22.1214 H   0  0  0  0  0  0
  -19.6931  -25.6299   21.1231 H   0  0  0  0  0  0
  -19.6681  -27.3202   20.6754 H   0  0  0  0  0  0
  -17.4207  -26.6666   21.4009 H   0  0  0  0  0  0
  -18.0319  -26.0045   22.8998 H   0  0  0  0  0  0
  -19.7954  -30.7240   24.2283 H   0  0  0  0  0  0
  -17.5046  -31.6269   24.5166 H   0  0  0  0  0  0
  -15.5370  -30.3023   23.7641 H   0  0  0  0  0  0
  -15.8655  -28.0834   22.7083 H   0  0  0  0  0  0
  -24.5948  -30.7009   25.7775 H   0  0  0  0  0  0
  -24.8935  -32.2866   26.4824 H   0  0  0  0  0  0
  -25.8104  -30.8904   27.0215 H   0  0  0  0  0  0
  -26.2904  -29.6712   24.1190 H   0  0  0  0  0  0
  -27.4118  -29.7235   25.4590 H   0  0  0  0  0  0
  -27.8742  -30.4266   23.9279 H   0  0  0  0  0  0
  -27.2654  -33.3586   26.2036 H   0  0  0  0  0  0
  -28.3886  -32.6835   25.0311 H   0  0  0  0  0  0
  -28.0702  -31.8409   26.5406 H   0  0  0  0  0  0
  -28.2609  -38.0085   24.7520 H   0  0  0  0  0  0
  -28.1056  -36.2620   24.6285 H   0  0  0  0  0  0
  -27.2287  -37.1435   25.8867 H   0  0  0  0  0  0
  -20.9348  -29.8759   21.6865 H   0  0  0  0  0  0
  -26.0164  -38.2853   24.1420 H   0  0  0  0  0  0
  -25.8669  -23.6478   19.5434 H   0  0  0  0  0  0
  -26.3312  -18.7049   19.2114 H   0  0  0  0  0  0
  -29.7292  -21.4253   22.0390 H   0  0  0  0  0  0
  -29.8917  -21.6146   20.2986 H   0  0  0  0  0  0
  -30.4942  -16.7946   18.8643 H   0  0  0  0  0  0
  -29.0569  -15.8375   18.6686 H   0  0  0  0  0  0
  -29.0421  -16.5863   22.3290 H   0  0  0  0  0  0
  -30.7619  -16.3777   22.4328 H   0  0  0  0  0  0
  -27.7713  -17.4500   20.1071 H   0  0  0  0  0  0
  -28.3825  -18.1640   18.6083 H   0  0  0  0  0  0
  -31.2056  -18.3818   21.1351 H   0  0  0  0  0  0
  -30.0795  -18.8161   22.3746 H   0  0  0  0  0  0
  -27.5335  -22.3207   21.9756 H   0  0  0  0  0  0
  -27.9571  -19.7179   21.7423 H   0  0  0  0  0  0
  -24.1993  -23.6164   17.8172 H   0  0  0  0  0  0
  -23.0679  -22.4705   18.5375 H   0  0  0  0  0  0
  -23.7870  -22.1442   16.9505 H   0  0  0  0  0  0
  -24.3536  -19.6812   16.7456 H   0  0  0  0  0  0
  -23.2080  -19.8794   18.0767 H   0  0  0  0  0  0
  -24.3215  -18.5221   18.0704 H   0  0  0  0  0  0
  -27.3665  -24.1827   23.1096 H   0  0  0  0  0  0
  -26.3354  -24.7324   21.7888 H   0  0  0  0  0  0
  -27.6259  -25.7551   22.4129 H   0  0  0  0  0  0
  -27.6066  -24.8057   19.1383 H   0  0  0  0  0  0
  -29.2840  -24.8829   19.3331 H   0  0  0  0  0  0
  -29.3210  -24.2174   21.5884 H   0  0  0  0  0  0
  -29.9740  -19.2775   19.7294 H   0  0  0  0  0  0
  1 25  1  0  0  0
  1 30  2  0  0  0
  1 89  1  0  0  0
  2  3  1  0  0  0
  2 25  1  0  0  0
  2 91  1  0  0  0
  2 92  1  0  0  0
  3  4  1  0  0  0
  3 93  1  0  0  0
  3 94  1  0  0  0
  4  5  1  0  0  0
  4 95  1  0  0  0
  4 96  1  0  0  0
  5  6  1  0  0  0
  5 26  1  0  0  0
  5 97  1  0  0  0
  6 25  1  0  0  0
  6 98  1  0  0  0
  6 99  1  0  0  0
  7  8  2  0  0  0
  7 26  1  0  0  0
  7 29  1  0  0  0
  8  9  1  0  0  0
  8 22  1  0  0  0
  9 10  1  0  0  0
  9 27  2  0  0  0
 10 11  2  0  0  0
 10 15  1  0  0  0
 11 12  1  0  0  0
 11100  1  0  0  0
 12 13  2  0  0  0
 12101  1  0  0  0
 13 14  1  0  0  0
 13 31  1  0  0  0
 14 15  2  0  0  0
 14102  1  0  0  0
 15103  1  0  0  0
 16 17  2  0  0  0
 16 21  1  0  0  0
 16 31  1  0  0  0
 17 18  1  0  0  0
 17104  1  0  0  0
 18 19  2  0  0  0
 18105  1  0  0  0
 19 20  1  0  0  0
 19 24  1  0  0  0
 20 21  2  0  0  0
 20106  1  0  0  0
 21 23  1  0  0  0
 22 28  1  0  0  0
 22 32  2  0  0  0
 26 27  1  0  0  0
 28107  1  0  0  0
 28108  1  0  0  0
 29109  1  0  0  0
 29110  1  0  0  0
 33 34  1  0  0  0
 33 66  1  0  0  0
 33 70  2  0  0  0
 34 36  1  0  0  0
 34 59  1  0  0  0
 34111  1  0  0  0
 35 44  2  0  0  0
 35 45  1  0  0  0
 35 68  1  0  0  0
 36 56  1  0  0  0
 36112  1  0  0  0
 37 39  1  0  0  0
 37 47  1  0  0  0
 37 66  1  0  0  0
 37113  1  0  0  0
 38 43  2  0  0  0
 38 46  1  0  0  0
 38 47  1  0  0  0
 39 64  1  0  0  0
 39 67  2  0  0  0
 40 52  1  0  0  0
 40 53  2  0  0  0
 40 58  1  0  0  0
 41114  1  0  0  0
 41115  1  0  0  0
 41116  1  0  0  0
 41 48  1  0  0  0
 42 43  1  0  0  0
 42 66  1  0  0  0
 42117  1  0  0  0
 42118  1  0  0  0
 43 44  1  0  0  0
 44119  1  0  0  0
 45 46  2  0  0  0
 45120  1  0  0  0
 46121  1  0  0  0
 47122  1  0  0  0
 47123  1  0  0  0
 48 56  1  0  0  0
 48 65  1  0  0  0
 48124  1  0  0  0
 49 50  1  0  0  0
 49 53  1  0  0  0
 49 64  1  0  0  0
 49125  1  0  0  0
 50 51  1  0  0  0
 50126  1  0  0  0
 50127  1  0  0  0
 51 52  1  0  0  0
 51128  1  0  0  0
 51129  1  0  0  0
 52130  1  0  0  0
 52131  1  0  0  0
 53 54  1  0  0  0
 54 55  2  0  0  0
 54132  1  0  0  0
 55 57  1  0  0  0
 55133  1  0  0  0
 56 69  2  0  0  0
 57 58  2  0  0  0
 57134  1  0  0  0
 58135  1  0  0  0
 59 60  1  0  0  0
 59 61  1  0  0  0
 59 62  1  0  0  0
 60136  1  0  0  0
 60137  1  0  0  0
 60138  1  0  0  0
 61139  1  0  0  0
 61140  1  0  0  0
 61141  1  0  0  0
 62142  1  0  0  0
 62143  1  0  0  0
 62144  1  0  0  0
 63 65  1  0  0  0
 63145  1  0  0  0
 63146  1  0  0  0
 63147  1  0  0  0
 64148  1  0  0  0
 65149  1  0  0  0
 68 87  1  0  0  0
 71 73  2  0  0  0
 71 75  1  0  0  0
 71150  1  0  0  0
 72 74  2  0  0  0
 72 76  1  0  0  0
 72151  1  0  0  0
 73 74  1  0  0  0
 73 82  1  0  0  0
 74 83  1  0  0  0
 75 76  2  0  0  0
 75 84  1  0  0  0
 76 85  1  0  0  0
 77152  1  0  0  0
 77153  1  0  0  0
 77 82  1  0  0  0
 77 83  1  0  0  0
 78 80  1  0  0  0
 78 89  1  0  0  0
 78154  1  0  0  0
 78155  1  0  0  0
 79 81  1  0  0  0
 79 89  1  0  0  0
 79156  1  0  0  0
 79157  1  0  0  0
 80158  1  0  0  0
 80159  1  0  0  0
 80 90  1  0  0  0
 81 90  1  0  0  0
 81160  1  0  0  0
 81161  1  0  0  0
 82 88  1  0  0  0
 82162  1  0  0  0
 83 90  1  0  0  0
 83163  1  0  0  0
 84164  1  0  0  0
 84165  1  0  0  0
 84166  1  0  0  0
 85167  1  0  0  0
 85168  1  0  0  0
 85169  1  0  0  0
 86170  1  0  0  0
 86171  1  0  0  0
 86172  1  0  0  0
 86 88  1  0  0  0
 87 88  1  0  0  0
 87173  1  0  0  0
 87174  1  0  0  0
 88175  1  0  0  0
 90176  1  0  0  0
M  CHG  1  90   1
M  ISO  4   1 100  68 101  87 101  89 100
M  END
> <chiral flag>
0

> <version>
0

> <s_m_source_file>
/data/baiqing/PycharmProjects/Reinvent-master-3.2/result/LINK_invent/BTK/process_docking_weight1_custom_sum_contain_oxygen_bond_distance_aromatic_linkinvent_7_9_3/rearranged_h_0166.sdf

> <i_m_source_file_index>
56

> <r_mmod_Potential_Energy-OPLS-2005>
279.169830322266

> <r_mmod_Stretch_Energy-OPLS-2005>
87.1679840087891

> <r_mmod_Bend_Energy-OPLS-2005>
247.584838867188

> <r_mmod_Torsional_Energy-OPLS-2005>
418.188659667969

> <r_mmod_Improper_Torsional_Energy-OPLS-2005>
12.9941091537476

> <r_mmod_Van_der_Waal_Energy-OPLS-2005>
149.556503295898

> <r_mmod_Electrostatic_Energy-OPLS-2005>
-252.928298950195

> <r_mmod_Solvation_Energy-OPLS-2005>
-427.873992919922

> <b_mmod_Minimization_Converged-OPLS-2005>
0

> <r_mmod_RMS_Derivative-OPLS-2005>
2.27594494819641

$$$$
56
                    3D
 Structure written by MMmdl.
175184  0  0  1  0            999 V2000
  -30.7197  -14.4571   20.6162 C   0  0  0  0  0  0
  -30.4191  -12.3174   19.4131 C   0  0  0  0  0  0
  -29.4867  -12.5095   18.2008 C   0  0  0  0  0  0
  -28.0108  -12.3651   18.6189 C   0  0  0  0  0  0
  -27.6594  -13.2065   19.8742 C   0  0  2  0  0  0
  -28.7005  -12.9860   20.9930 C   0  0  0  0  0  0
  -25.2583  -13.8165   20.5689 C   0  0  0  0  0  0
  -24.1832  -13.0440   20.9181 C   0  0  0  0  0  0
  -24.6382  -11.6908   20.8736 C   0  0  0  0  0  0
  -23.9050  -10.4294   21.0409 C   0  0  0  0  0  0
  -24.3604   -9.4211   21.9191 C   0  0  0  0  0  0
  -23.6283   -8.2244   22.0759 C   0  0  0  0  0  0
  -22.4270   -8.0278   21.3543 C   0  0  0  0  0  0
  -21.9903   -9.0249   20.4645 C   0  0  0  0  0  0
  -22.7225  -10.2133   20.3056 C   0  0  0  0  0  0
  -21.6847   -6.0733   22.5276 C   0  0  0  0  0  0
  -21.4012   -6.5639   23.8211 C   0  0  0  0  0  0
  -21.3662   -5.6792   24.9174 C   0  0  0  0  0  0
  -21.6044   -4.3054   24.7224 C   0  0  0  0  0  0
  -21.8819   -3.8145   23.4344 C   0  0  0  0  0  0
  -21.9195   -4.6961   22.3400 C   0  0  0  0  0  0
  -22.7857  -13.5241   21.1845 C   0  0  0  0  0  0
  -22.1661   -4.2148   21.0975 F   0  0  0  0  0  0
  -21.5633   -3.4539   25.7738 F   0  0  0  0  0  0
  -30.0298  -13.2970   20.4402 N   0  0  0  0  0  0
  -26.3010  -12.9332   20.3369 N   0  0  0  0  0  0
  -25.9309  -11.6492   20.5770 N   0  0  0  0  0  0
  -22.0498  -12.8224   22.0392 N   0  0  0  0  0  0
  -25.4320  -15.1881   20.4095 N   0  0  0  0  0  0
  -31.8220  -14.6605   20.0996 O   0  0  0  0  0  0
  -21.6635   -6.8875   21.4238 O   0  0  0  0  0  0
  -22.3551  -14.5555   20.6704 O   0  0  0  0  0  0
  -24.6151  -31.8674   23.2091 C   0  0  0  0  0  0
  -25.9042  -32.4819   23.8390 C   0  0  1  0  0  0
  -27.2310  -27.4249   20.1003 C   0  0  0  0  0  0
  -25.5899  -33.8620   24.2322 N   0  0  0  0  0  0
  -23.4031  -30.4905   21.5504 C   0  0  2  0  0  0
  -24.8482  -28.9533   20.1176 C   0  0  0  0  0  0
  -22.7409  -29.4655   22.4993 C   0  0  0  0  0  0
  -18.0273  -28.1370   22.8491 C   0  0  0  0  0  0
  -24.1479  -36.7310   23.2627 C   0  0  0  0  0  0
  -25.9323  -30.8309   21.3625 C   0  0  0  0  0  0
  -26.0096  -29.4642   20.7105 C   0  0  0  0  0  0
  -27.2061  -28.7101   20.6919 C   0  0  0  0  0  0
  -26.0519  -26.9300   19.5015 C   0  0  0  0  0  0
  -24.8645  -27.6863   19.5095 C   0  0  0  0  0  0
  -23.6110  -29.8217   20.1660 C   0  0  0  0  0  0
  -25.4093  -36.3109   24.0337 C   0  0  1  0  0  0
  -20.5862  -28.3658   23.1319 C   0  0  2  0  0  0
  -20.6761  -26.9394   22.5417 C   0  0  0  0  0  0
  -19.5742  -26.6380   21.5209 C   0  0  0  0  0  0
  -18.1917  -26.7919   22.1615 C   0  0  0  0  0  0
  -19.1521  -28.8830   23.2901 C   0  0  0  0  0  0
  -18.9449  -30.1438   23.8907 C   0  0  0  0  0  0
  -17.6454  -30.6580   24.0564 C   0  0  0  0  0  0
  -25.9039  -34.9479   23.5128 C   0  0  0  0  0  0
  -16.5345  -29.9083   23.6325 C   0  0  0  0  0  0
  -16.7264  -28.6500   23.0346 C   0  0  0  0  0  0
  -26.4467  -31.6600   25.0720 C   0  0  0  0  0  0
  -25.3737  -31.3699   26.1476 C   0  0  0  0  0  0
  -27.0295  -30.3043   24.6090 C   0  0  0  0  0  0
  -27.6041  -32.4322   25.7481 C   0  0  0  0  0  0
  -27.5607  -37.1767   24.8428 C   0  0  0  0  0  0
  -21.4136  -29.3029   22.3728 N   0  0  0  0  0  0
  -26.4259  -37.3821   23.9463 N   0  0  0  0  0  0
  -24.6684  -31.0770   22.0992 N   0  0  0  0  0  0
  -23.4177  -28.8194   23.3036 O   0  0  0  0  0  0
  -28.4040  -26.7001   20.0727 O   0  0  0  0  0  0
  -26.5605  -34.8934   22.4693 O   0  0  0  0  0  0
  -23.5339  -32.1436   23.7476 O   0  0  0  0  0  0
  -28.9727  -18.4001   21.3751 C   0  0  0  0  0  0
  -31.2691  -18.8481   20.7986 C   0  0  0  0  0  0
  -29.5927  -20.6440   20.5072 C   0  0  0  0  0  0
  -30.3070  -17.9609   21.3116 C   0  0  0  0  0  0
  -28.6137  -19.7164   20.9882 C   0  0  0  0  0  0
  -30.9380  -20.1635   20.3943 C   0  0  0  0  0  0
  -29.4019  -22.5750   18.7020 C   0  0  0  0  0  0
  -29.7184  -23.2343   21.0439 C   0  0  0  0  0  0
  -29.1748  -22.1087   20.1478 C   0  0  2  0  0  0
  -29.8556  -24.0654   18.7252 C   0  0  0  0  0  0
  -29.6850  -24.5566   20.2221 C   0  0  2  0  0  0
  -27.1465  -20.0952   21.1289 C   0  0  0  0  0  0
  -32.0951  -20.9942   19.8548 C   0  0  0  0  0  0
  -31.3214  -24.1402   18.2315 C   0  0  0  0  0  0
  -29.0327  -24.8793   17.6986 C   0  0  0  0  0  0
  -30.8254  -25.4816   20.7199 C   0  0  0  0  0  0
  -30.7484  -16.6105   21.8933 C   0  0  0  0  0  0
  -28.3427  -25.3202   20.4923 C   0  0  0  0  0  0
  -30.1110  -15.3989   21.3595 N   0  0  0  0  0  0
  -31.4611  -12.4220   19.1063 H   0  0  0  0  0  0
  -30.3286  -11.3051   19.8098 H   0  0  0  0  0  0
  -29.7253  -11.7826   17.4229 H   0  0  0  0  0  0
  -29.6498  -13.4947   17.7611 H   0  0  0  0  0  0
  -27.8266  -11.3092   18.8201 H   0  0  0  0  0  0
  -27.3551  -12.6344   17.7905 H   0  0  0  0  0  0
  -27.7060  -14.2545   19.5783 H   0  0  0  0  0  0
  -28.6809  -11.9486   21.3301 H   0  0  0  0  0  0
  -28.4531  -13.5782   21.8745 H   0  0  0  0  0  0
  -25.2746   -9.5692   22.4773 H   0  0  0  0  0  0
  -23.9993   -7.4641   22.7484 H   0  0  0  0  0  0
  -21.0839   -8.8765   19.8949 H   0  0  0  0  0  0
  -22.3682  -10.9674   19.6167 H   0  0  0  0  0  0
  -21.1998   -7.6146   23.9713 H   0  0  0  0  0  0
  -21.1487   -6.0521   25.9077 H   0  0  0  0  0  0
  -22.0598   -2.7607   23.2846 H   0  0  0  0  0  0
  -22.4103  -11.9864   22.4747 H   0  0  0  0  0  0
  -21.1120  -13.1256   22.2610 H   0  0  0  0  0  0
  -24.6677  -15.8464   20.5145 H   0  0  0  0  0  0
  -26.2879  -15.6237   20.0886 H   0  0  0  0  0  0
  -26.7107  -32.5533   23.1151 H   0  0  0  0  0  0
  -25.0052  -33.9775   25.0470 H   0  0  0  0  0  0
  -22.6913  -31.3065   21.4110 H   0  0  0  0  0  0
  -23.3794  -35.9581   23.3159 H   0  0  0  0  0  0
  -24.3611  -36.9069   22.2072 H   0  0  0  0  0  0
  -23.7143  -37.6432   23.6735 H   0  0  0  0  0  0
  -26.0425  -31.5961   20.5924 H   0  0  0  0  0  0
  -26.8210  -30.8858   21.9792 H   0  0  0  0  0  0
  -28.1074  -29.1050   21.1395 H   0  0  0  0  0  0
  -26.0429  -25.9695   19.0078 H   0  0  0  0  0  0
  -23.9734  -27.2901   19.0422 H   0  0  0  0  0  0
  -23.7191  -30.5958   19.4054 H   0  0  0  0  0  0
  -22.7345  -29.2418   19.8708 H   0  0  0  0  0  0
  -25.1245  -36.1953   25.0821 H   0  0  0  0  0  0
  -20.9949  -28.3226   24.1443 H   0  0  0  0  0  0
  -20.5665  -26.2259   23.3598 H   0  0  0  0  0  0
  -21.6634  -26.7434   22.1215 H   0  0  0  0  0  0
  -19.6900  -25.6296   21.1220 H   0  0  0  0  0  0
  -19.6683  -27.3200   20.6746 H   0  0  0  0  0  0
  -17.4191  -26.6687   21.4007 H   0  0  0  0  0  0
  -18.0302  -26.0048   22.8993 H   0  0  0  0  0  0
  -19.7925  -30.7247   24.2283 H   0  0  0  0  0  0
  -17.5012  -31.6261   24.5164 H   0  0  0  0  0  0
  -15.5346  -30.2990   23.7641 H   0  0  0  0  0  0
  -15.8664  -28.0828   22.7049 H   0  0  0  0  0  0
  -24.5891  -30.7068   25.7817 H   0  0  0  0  0  0
  -24.8952  -32.2851   26.4970 H   0  0  0  0  0  0
  -25.8099  -30.8832   27.0209 H   0  0  0  0  0  0
  -26.2830  -29.6802   24.1159 H   0  0  0  0  0  0
  -27.4085  -29.7279   25.4540 H   0  0  0  0  0  0
  -27.8656  -30.4365   23.9220 H   0  0  0  0  0  0
  -27.2674  -33.3640   26.2041 H   0  0  0  0  0  0
  -28.3859  -32.6854   25.0307 H   0  0  0  0  0  0
  -28.0694  -31.8454   26.5411 H   0  0  0  0  0  0
  -28.2471  -38.0216   24.7725 H   0  0  0  0  0  0
  -28.1258  -36.2772   24.5930 H   0  0  0  0  0  0
  -27.2375  -37.1020   25.8826 H   0  0  0  0  0  0
  -20.9291  -29.8769   21.6971 H   0  0  0  0  0  0
  -26.0136  -38.2858   24.1626 H   0  0  0  0  0  0
  -28.2210  -17.7288   21.7683 H   0  0  0  0  0  0
  -32.2969  -18.5166   20.7407 H   0  0  0  0  0  0
  -28.4753  -22.4465   18.1408 H   0  0  0  0  0  0
  -30.1176  -21.9462   18.1802 H   0  0  0  0  0  0
  -30.7350  -23.0180   21.3539 H   0  0  0  0  0  0
  -29.1548  -23.3021   21.9753 H   0  0  0  0  0  0
  -28.0986  -22.2029   20.2669 H   0  0  0  0  0  0
  -26.5502  -19.2697   21.5195 H   0  0  0  0  0  0
  -26.7255  -20.3679   20.1606 H   0  0  0  0  0  0
  -27.0268  -20.9339   21.8154 H   0  0  0  0  0  0
  -33.0460  -20.4819   20.0028 H   0  0  0  0  0  0
  -32.2010  -21.9495   20.3574 H   0  0  0  0  0  0
  -32.0055  -21.1550   18.7833 H   0  0  0  0  0  0
  -32.0123  -23.6211   18.8905 H   0  0  0  0  0  0
  -31.6669  -25.1708   18.1455 H   0  0  0  0  0  0
  -31.4307  -23.6949   17.2413 H   0  0  0  0  0  0
  -27.9580  -24.7956   17.8582 H   0  0  0  0  0  0
  -29.2165  -24.5345   16.6803 H   0  0  0  0  0  0
  -29.2913  -25.9381   17.7294 H   0  0  0  0  0  0
  -31.7984  -24.9904   20.7261 H   0  0  0  0  0  0
  -30.6387  -25.8171   21.7404 H   0  0  0  0  0  0
  -30.9163  -26.3740   20.0990 H   0  0  0  0  0  0
  -30.5319  -16.6366   22.9622 H   0  0  0  0  0  0
  -31.8352  -16.5276   21.8341 H   0  0  0  0  0  0
  -28.1463  -25.3369   21.5656 H   0  0  0  0  0  0
  -27.5102  -24.7703   20.0571 H   0  0  0  0  0  0
  -29.1936  -15.1719   21.7110 H   0  0  0  0  0  0
  1 25  1  0  0  0
  1 30  2  0  0  0
  1 89  1  0  0  0
  2  3  1  0  0  0
  2 25  1  0  0  0
  2 90  1  0  0  0
  2 91  1  0  0  0
  3  4  1  0  0  0
  3 92  1  0  0  0
  3 93  1  0  0  0
  4  5  1  0  0  0
  4 94  1  0  0  0
  4 95  1  0  0  0
  5  6  1  0  0  0
  5 26  1  0  0  0
  5 96  1  0  0  0
  6 25  1  0  0  0
  6 97  1  0  0  0
  6 98  1  0  0  0
  7  8  2  0  0  0
  7 26  1  0  0  0
  7 29  1  0  0  0
  8  9  1  0  0  0
  8 22  1  0  0  0
  9 10  1  0  0  0
  9 27  2  0  0  0
 10 11  2  0  0  0
 10 15  1  0  0  0
 11 12  1  0  0  0
 11 99  1  0  0  0
 12 13  2  0  0  0
 12100  1  0  0  0
 13 14  1  0  0  0
 13 31  1  0  0  0
 14 15  2  0  0  0
 14101  1  0  0  0
 15102  1  0  0  0
 16 17  2  0  0  0
 16 21  1  0  0  0
 16 31  1  0  0  0
 17 18  1  0  0  0
 17103  1  0  0  0
 18 19  2  0  0  0
 18104  1  0  0  0
 19 20  1  0  0  0
 19 24  1  0  0  0
 20 21  2  0  0  0
 20105  1  0  0  0
 21 23  1  0  0  0
 22 28  1  0  0  0
 22 32  2  0  0  0
 26 27  1  0  0  0
 28106  1  0  0  0
 28107  1  0  0  0
 29108  1  0  0  0
 29109  1  0  0  0
 33 34  1  0  0  0
 33 66  1  0  0  0
 33 70  2  0  0  0
 34 36  1  0  0  0
 34 59  1  0  0  0
 34110  1  0  0  0
 35 44  2  0  0  0
 35 45  1  0  0  0
 35 68  1  0  0  0
 36 56  1  0  0  0
 36111  1  0  0  0
 37 39  1  0  0  0
 37 47  1  0  0  0
 37 66  1  0  0  0
 37112  1  0  0  0
 38 43  2  0  0  0
 38 46  1  0  0  0
 38 47  1  0  0  0
 39 64  1  0  0  0
 39 67  2  0  0  0
 40 52  1  0  0  0
 40 53  2  0  0  0
 40 58  1  0  0  0
 41113  1  0  0  0
 41114  1  0  0  0
 41115  1  0  0  0
 41 48  1  0  0  0
 42 43  1  0  0  0
 42 66  1  0  0  0
 42116  1  0  0  0
 42117  1  0  0  0
 43 44  1  0  0  0
 44118  1  0  0  0
 45 46  2  0  0  0
 45119  1  0  0  0
 46120  1  0  0  0
 47121  1  0  0  0
 47122  1  0  0  0
 48 56  1  0  0  0
 48 65  1  0  0  0
 48123  1  0  0  0
 49 50  1  0  0  0
 49 53  1  0  0  0
 49 64  1  0  0  0
 49124  1  0  0  0
 50 51  1  0  0  0
 50125  1  0  0  0
 50126  1  0  0  0
 51 52  1  0  0  0
 51127  1  0  0  0
 51128  1  0  0  0
 52129  1  0  0  0
 52130  1  0  0  0
 53 54  1  0  0  0
 54 55  2  0  0  0
 54131  1  0  0  0
 55 57  1  0  0  0
 55132  1  0  0  0
 56 69  2  0  0  0
 57 58  2  0  0  0
 57133  1  0  0  0
 58134  1  0  0  0
 59 60  1  0  0  0
 59 61  1  0  0  0
 59 62  1  0  0  0
 60135  1  0  0  0
 60136  1  0  0  0
 60137  1  0  0  0
 61138  1  0  0  0
 61139  1  0  0  0
 61140  1  0  0  0
 62141  1  0  0  0
 62142  1  0  0  0
 62143  1  0  0  0
 63 65  1  0  0  0
 63144  1  0  0  0
 63145  1  0  0  0
 63146  1  0  0  0
 64147  1  0  0  0
 65148  1  0  0  0
 68 88  1  0  0  0
 71 74  2  0  0  0
 71 75  1  0  0  0
 71149  1  0  0  0
 72 74  1  0  0  0
 72 76  2  0  0  0
 72150  1  0  0  0
 73 75  2  0  0  0
 73 76  1  0  0  0
 73 79  1  0  0  0
 74 87  1  0  0  0
 75 82  1  0  0  0
 76 83  1  0  0  0
 77 79  1  0  0  0
 77 80  1  0  0  0
 77151  1  0  0  0
 77152  1  0  0  0
 78 79  1  0  0  0
 78 81  1  0  0  0
 78153  1  0  0  0
 78154  1  0  0  0
 79155  1  0  0  0
 80 81  1  0  0  0
 80 84  1  0  0  0
 80 85  1  0  0  0
 81 86  1  0  0  0
 81 88  1  0  0  0
 82156  1  0  0  0
 82157  1  0  0  0
 82158  1  0  0  0
 83159  1  0  0  0
 83160  1  0  0  0
 83161  1  0  0  0
 84162  1  0  0  0
 84163  1  0  0  0
 84164  1  0  0  0
 85165  1  0  0  0
 85166  1  0  0  0
 85167  1  0  0  0
 86168  1  0  0  0
 86169  1  0  0  0
 86170  1  0  0  0
 87 89  1  0  0  0
 87171  1  0  0  0
 87172  1  0  0  0
 88173  1  0  0  0
 88174  1  0  0  0
 89175  1  0  0  0
M  ISO  4   1 100  68 101  88 101  89 100
M  END
> <chiral flag>
0

> <version>
0

> <s_m_source_file>
/data/baiqing/PycharmProjects/Reinvent-master-3.2/result/LINK_invent/BTK/process_docking_weight1_custom_sum_contain_oxygen_bond_distance_aromatic_linkinvent_7_9_3/rearranged_h_0166.sdf

> <i_m_source_file_index>
57

> <r_mmod_Potential_Energy-OPLS-2005>
29.3569450378418

> <r_mmod_Stretch_Energy-OPLS-2005>
51.205436706543

> <r_mmod_Bend_Energy-OPLS-2005>
138.015762329102

> <r_mmod_Torsional_Energy-OPLS-2005>
296.702880859375

> <r_mmod_Improper_Torsional_Energy-OPLS-2005>
2.51435804367065

> <r_mmod_Van_der_Waal_Energy-OPLS-2005>
167.280532836914

> <r_mmod_Electrostatic_Energy-OPLS-2005>
-443.500549316406

> <r_mmod_Solvation_Energy-OPLS-2005>
-194.229614257812

> <b_mmod_Minimization_Converged-OPLS-2005>
0

> <r_mmod_RMS_Derivative-OPLS-2005>
0.93169641494751

$$$$
57
                    3D
 Structure written by MMmdl.
169179  0  0  1  0            999 V2000
  -30.6878  -14.5491   20.5338 C   0  0  0  0  0  0
  -30.4199  -12.3433   19.4409 C   0  0  0  0  0  0
  -29.4972  -12.5077   18.2157 C   0  0  0  0  0  0
  -28.0201  -12.3582   18.6273 C   0  0  0  0  0  0
  -27.6547  -13.2169   19.8686 C   0  0  2  0  0  0
  -28.6988  -13.0547   20.9969 C   0  0  0  0  0  0
  -25.2561  -13.8179   20.5697 C   0  0  0  0  0  0
  -24.1830  -13.0443   20.9189 C   0  0  0  0  0  0
  -24.6396  -11.6907   20.8736 C   0  0  0  0  0  0
  -23.9065  -10.4292   21.0398 C   0  0  0  0  0  0
  -24.3617   -9.4211   21.9178 C   0  0  0  0  0  0
  -23.6294   -8.2243   22.0743 C   0  0  0  0  0  0
  -22.4278   -8.0278   21.3532 C   0  0  0  0  0  0
  -21.9913   -9.0255   20.4638 C   0  0  0  0  0  0
  -22.7236  -10.2135   20.3051 C   0  0  0  0  0  0
  -21.6857   -6.0737   22.5279 C   0  0  0  0  0  0
  -21.4014   -6.5639   23.8214 C   0  0  0  0  0  0
  -21.3660   -5.6788   24.9179 C   0  0  0  0  0  0
  -21.6051   -4.3053   24.7225 C   0  0  0  0  0  0
  -21.8818   -3.8145   23.4346 C   0  0  0  0  0  0
  -21.9191   -4.6962   22.3403 C   0  0  0  0  0  0
  -22.7849  -13.5225   21.1851 C   0  0  0  0  0  0
  -22.1661   -4.2149   21.0977 F   0  0  0  0  0  0
  -21.5633   -3.4535   25.7736 F   0  0  0  0  0  0
  -30.0214  -13.3605   20.4311 N   0  0  0  0  0  0
  -26.2997  -12.9364   20.3361 N   0  0  0  0  0  0
  -25.9325  -11.6515   20.5768 N   0  0  0  0  0  0
  -22.0493  -12.8226   22.0410 N   0  0  0  0  0  0
  -25.4293  -15.1902   20.4134 N   0  0  0  0  0  0
  -31.8328  -14.6897   20.0914 O   0  0  0  0  0  0
  -21.6639   -6.8879   21.4241 O   0  0  0  0  0  0
  -22.3528  -14.5524   20.6688 O   0  0  0  0  0  0
  -24.6223  -31.8629   23.2062 C   0  0  0  0  0  0
  -25.9098  -32.4791   23.8369 C   0  0  1  0  0  0
  -27.2285  -27.3696   20.0973 C   0  0  0  0  0  0
  -25.5931  -33.8590   24.2298 N   0  0  0  0  0  0
  -23.4126  -30.4900   21.5471 C   0  0  2  0  0  0
  -24.8585  -28.9528   20.1120 C   0  0  0  0  0  0
  -22.7444  -29.4649   22.4939 C   0  0  0  0  0  0
  -18.0275  -28.1383   22.8479 C   0  0  0  0  0  0
  -24.1491  -36.7297   23.2636 C   0  0  0  0  0  0
  -25.9506  -30.8113   21.3684 C   0  0  0  0  0  0
  -26.0261  -29.4429   20.7091 C   0  0  0  0  0  0
  -27.2151  -28.6629   20.6916 C   0  0  0  0  0  0
  -26.0329  -26.9184   19.4871 C   0  0  0  0  0  0
  -24.8610  -27.6938   19.4949 C   0  0  0  0  0  0
  -23.6242  -29.8269   20.1614 C   0  0  0  0  0  0
  -25.4113  -36.3086   24.0326 C   0  0  1  0  0  0
  -20.5874  -28.3685   23.1279 C   0  0  2  0  0  0
  -20.6756  -26.9402   22.5411 C   0  0  0  0  0  0
  -19.5737  -26.6378   21.5206 C   0  0  0  0  0  0
  -18.1917  -26.7926   22.1616 C   0  0  0  0  0  0
  -19.1526  -28.8847   23.2883 C   0  0  0  0  0  0
  -18.9456  -30.1450   23.8904 C   0  0  0  0  0  0
  -17.6457  -30.6588   24.0561 C   0  0  0  0  0  0
  -25.9043  -34.9451   23.5105 C   0  0  0  0  0  0
  -16.5347  -29.9092   23.6326 C   0  0  0  0  0  0
  -16.7263  -28.6508   23.0347 C   0  0  0  0  0  0
  -26.4503  -31.6586   25.0719 C   0  0  0  0  0  0
  -25.3749  -31.3717   26.1455 C   0  0  0  0  0  0
  -27.0344  -30.3012   24.6151 C   0  0  0  0  0  0
  -27.6075  -32.4309   25.7494 C   0  0  0  0  0  0
  -27.5575  -37.1803   24.8460 C   0  0  0  0  0  0
  -21.4160  -29.3056   22.3680 N   0  0  0  0  0  0
  -26.4290  -37.3777   23.9401 N   0  0  0  0  0  0
  -24.6805  -31.0698   22.0981 N   0  0  0  0  0  0
  -23.4187  -28.8168   23.2990 O   0  0  0  0  0  0
  -28.3704  -26.5668   20.1318 O   0  0  0  0  0  0
  -26.5604  -34.8911   22.4667 O   0  0  0  0  0  0
  -23.5404  -32.1393   23.7433 O   0  0  0  0  0  0
  -30.1765  -18.6742   23.1158 C   0  0  0  0  0  0
  -30.0465  -20.0363   22.7655 C   0  0  0  0  0  0
  -30.0364  -17.7069   22.1165 C   0  0  0  0  0  0
  -29.7970  -18.0777   20.8124 C   0  0  0  0  0  0
  -29.6428  -19.4528   20.4338 C   0  0  0  0  0  0
  -29.7628  -20.4903   21.4380 C   0  0  0  0  0  0
  -30.1193  -16.2008   22.2604 C   0  0  0  0  0  0
  -29.7558  -16.7995   19.9770 C   0  0  0  0  0  0
  -29.8501  -24.2540   21.7376 C   0  0  0  0  0  0
  -29.1081  -22.6525   20.0693 C   0  0  0  0  0  0
  -29.6014  -22.8645   22.3443 C   0  0  1  0  0  0
  -29.4130  -24.1884   20.2623 C   0  0  2  0  0  0
  -29.3728  -19.7593   18.9703 C   0  0  0  0  0  0
  -28.2459  -22.8188   23.0764 C   0  0  0  0  0  0
  -30.5760  -24.6019   19.3362 C   0  0  0  0  0  0
  -28.1847  -25.1254   19.9583 C   0  0  0  0  0  0
  -29.6582  -21.9187   21.2246 N   0  0  0  0  0  0
  -29.9540  -15.6391   20.9025 N   0  0  0  0  0  0
  -31.4662  -12.4339   19.1424 H   0  0  0  0  0  0
  -30.3185  -11.3436   19.8671 H   0  0  0  0  0  0
  -29.7479  -11.7708   17.4514 H   0  0  0  0  0  0
  -29.6581  -13.4867   17.7609 H   0  0  0  0  0  0
  -27.8449  -11.3034   18.8443 H   0  0  0  0  0  0
  -27.3671  -12.6074   17.7898 H   0  0  0  0  0  0
  -27.6802  -14.2576   19.5443 H   0  0  0  0  0  0
  -28.6880  -12.0363   21.3891 H   0  0  0  0  0  0
  -28.4579  -13.7033   21.8400 H   0  0  0  0  0  0
  -25.2764   -9.5692   22.4754 H   0  0  0  0  0  0
  -24.0010   -7.4636   22.7457 H   0  0  0  0  0  0
  -21.0845   -8.8778   19.8942 H   0  0  0  0  0  0
  -22.3697  -10.9679   19.6162 H   0  0  0  0  0  0
  -21.2007   -7.6144   23.9721 H   0  0  0  0  0  0
  -21.1487   -6.0514   25.9081 H   0  0  0  0  0  0
  -22.0597   -2.7605   23.2843 H   0  0  0  0  0  0
  -22.4102  -11.9895   22.4819 H   0  0  0  0  0  0
  -21.1110  -13.1252   22.2603 H   0  0  0  0  0  0
  -24.6674  -15.8490   20.5325 H   0  0  0  0  0  0
  -26.2933  -15.6326   20.1275 H   0  0  0  0  0  0
  -26.7163  -32.5481   23.1121 H   0  0  0  0  0  0
  -25.0096  -33.9740   25.0456 H   0  0  0  0  0  0
  -22.7052  -31.3102   21.4070 H   0  0  0  0  0  0
  -23.3744  -35.9641   23.3306 H   0  0  0  0  0  0
  -24.3578  -36.8909   22.2049 H   0  0  0  0  0  0
  -23.7260  -37.6505   23.6654 H   0  0  0  0  0  0
  -26.0751  -31.5772   20.6018 H   0  0  0  0  0  0
  -26.8342  -30.8588   21.9933 H   0  0  0  0  0  0
  -28.1153  -29.0385   21.1571 H   0  0  0  0  0  0
  -25.9715  -25.9587   18.9977 H   0  0  0  0  0  0
  -23.9650  -27.3124   19.0257 H   0  0  0  0  0  0
  -23.7390  -30.6035   19.4042 H   0  0  0  0  0  0
  -22.7469  -29.2520   19.8596 H   0  0  0  0  0  0
  -25.1298  -36.1932   25.0819 H   0  0  0  0  0  0
  -20.9975  -28.3257   24.1395 H   0  0  0  0  0  0
  -20.5634  -26.2292   23.3611 H   0  0  0  0  0  0
  -21.6626  -26.7418   22.1216 H   0  0  0  0  0  0
  -19.6893  -25.6290   21.1234 H   0  0  0  0  0  0
  -19.6679  -27.3188   20.6736 H   0  0  0  0  0  0
  -17.4181  -26.6664   21.4027 H   0  0  0  0  0  0
  -18.0325  -26.0075   22.9022 H   0  0  0  0  0  0
  -19.7936  -30.7258   24.2277 H   0  0  0  0  0  0
  -17.5017  -31.6267   24.5168 H   0  0  0  0  0  0
  -15.5351  -30.3001   23.7651 H   0  0  0  0  0  0
  -15.8659  -28.0835   22.7064 H   0  0  0  0  0  0
  -24.5937  -30.7050   25.7781 H   0  0  0  0  0  0
  -24.8933  -32.2886   26.4866 H   0  0  0  0  0  0
  -25.8088  -30.8906   27.0232 H   0  0  0  0  0  0
  -26.2911  -29.6766   24.1183 H   0  0  0  0  0  0
  -27.4059  -29.7264   25.4645 H   0  0  0  0  0  0
  -27.8771  -30.4299   23.9354 H   0  0  0  0  0  0
  -27.2695  -33.3607   26.2082 H   0  0  0  0  0  0
  -28.3893  -32.6867   25.0327 H   0  0  0  0  0  0
  -28.0738  -31.8420   26.5404 H   0  0  0  0  0  0
  -28.2595  -38.0097   24.7498 H   0  0  0  0  0  0
  -28.1064  -36.2625   24.6299 H   0  0  0  0  0  0
  -27.2283  -37.1468   25.8860 H   0  0  0  0  0  0
  -20.9315  -29.8798   21.6921 H   0  0  0  0  0  0
  -26.0165  -38.2844   24.1421 H   0  0  0  0  0  0
  -30.3846  -18.3858   24.1367 H   0  0  0  0  0  0
  -30.1733  -20.7258   23.5841 H   0  0  0  0  0  0
  -29.3213  -15.8423   22.9115 H   0  0  0  0  0  0
  -31.0762  -15.9220   22.7063 H   0  0  0  0  0  0
  -30.5283  -16.8383   19.2057 H   0  0  0  0  0  0
  -28.7896  -16.7049   19.4803 H   0  0  0  0  0  0
  -30.9164  -24.4782   21.8068 H   0  0  0  0  0  0
  -29.3411  -25.0435   22.2927 H   0  0  0  0  0  0
  -29.5368  -22.3129   19.1297 H   0  0  0  0  0  0
  -28.0329  -22.4745   20.0190 H   0  0  0  0  0  0
  -30.4093  -22.6845   23.0539 H   0  0  0  0  0  0
  -29.2983  -18.8550   18.3688 H   0  0  0  0  0  0
  -30.1865  -20.3509   18.5530 H   0  0  0  0  0  0
  -28.4315  -20.2955   18.8524 H   0  0  0  0  0  0
  -27.4164  -23.0782   22.4185 H   0  0  0  0  0  0
  -28.2353  -23.5275   23.9058 H   0  0  0  0  0  0
  -28.0382  -21.8340   23.4949 H   0  0  0  0  0  0
  -31.4489  -23.9649   19.4832 H   0  0  0  0  0  0
  -30.8830  -25.6324   19.5215 H   0  0  0  0  0  0
  -30.2913  -24.5308   18.2854 H   0  0  0  0  0  0
  -27.3513  -24.8036   20.5863 H   0  0  0  0  0  0
  -27.8862  -24.9374   18.9259 H   0  0  0  0  0  0
  1 25  1  0  0  0
  1 30  2  0  0  0
  1 88  1  0  0  0
  2  3  1  0  0  0
  2 25  1  0  0  0
  2 89  1  0  0  0
  2 90  1  0  0  0
  3  4  1  0  0  0
  3 91  1  0  0  0
  3 92  1  0  0  0
  4  5  1  0  0  0
  4 93  1  0  0  0
  4 94  1  0  0  0
  5  6  1  0  0  0
  5 26  1  0  0  0
  5 95  1  0  0  0
  6 25  1  0  0  0
  6 96  1  0  0  0
  6 97  1  0  0  0
  7  8  2  0  0  0
  7 26  1  0  0  0
  7 29  1  0  0  0
  8  9  1  0  0  0
  8 22  1  0  0  0
  9 10  1  0  0  0
  9 27  2  0  0  0
 10 11  2  0  0  0
 10 15  1  0  0  0
 11 12  1  0  0  0
 11 98  1  0  0  0
 12 13  2  0  0  0
 12 99  1  0  0  0
 13 14  1  0  0  0
 13 31  1  0  0  0
 14 15  2  0  0  0
 14100  1  0  0  0
 15101  1  0  0  0
 16 17  2  0  0  0
 16 21  1  0  0  0
 16 31  1  0  0  0
 17 18  1  0  0  0
 17102  1  0  0  0
 18 19  2  0  0  0
 18103  1  0  0  0
 19 20  1  0  0  0
 19 24  1  0  0  0
 20 21  2  0  0  0
 20104  1  0  0  0
 21 23  1  0  0  0
 22 28  1  0  0  0
 22 32  2  0  0  0
 26 27  1  0  0  0
 28105  1  0  0  0
 28106  1  0  0  0
 29107  1  0  0  0
 29108  1  0  0  0
 33 34  1  0  0  0
 33 66  1  0  0  0
 33 70  2  0  0  0
 34 36  1  0  0  0
 34 59  1  0  0  0
 34109  1  0  0  0
 35 44  2  0  0  0
 35 45  1  0  0  0
 35 68  1  0  0  0
 36 56  1  0  0  0
 36110  1  0  0  0
 37 39  1  0  0  0
 37 47  1  0  0  0
 37 66  1  0  0  0
 37111  1  0  0  0
 38 43  2  0  0  0
 38 46  1  0  0  0
 38 47  1  0  0  0
 39 64  1  0  0  0
 39 67  2  0  0  0
 40 52  1  0  0  0
 40 53  2  0  0  0
 40 58  1  0  0  0
 41112  1  0  0  0
 41113  1  0  0  0
 41114  1  0  0  0
 41 48  1  0  0  0
 42 43  1  0  0  0
 42 66  1  0  0  0
 42115  1  0  0  0
 42116  1  0  0  0
 43 44  1  0  0  0
 44117  1  0  0  0
 45 46  2  0  0  0
 45118  1  0  0  0
 46119  1  0  0  0
 47120  1  0  0  0
 47121  1  0  0  0
 48 56  1  0  0  0
 48 65  1  0  0  0
 48122  1  0  0  0
 49 50  1  0  0  0
 49 53  1  0  0  0
 49 64  1  0  0  0
 49123  1  0  0  0
 50 51  1  0  0  0
 50124  1  0  0  0
 50125  1  0  0  0
 51 52  1  0  0  0
 51126  1  0  0  0
 51127  1  0  0  0
 52128  1  0  0  0
 52129  1  0  0  0
 53 54  1  0  0  0
 54 55  2  0  0  0
 54130  1  0  0  0
 55 57  1  0  0  0
 55131  1  0  0  0
 56 69  2  0  0  0
 57 58  2  0  0  0
 57132  1  0  0  0
 58133  1  0  0  0
 59 60  1  0  0  0
 59 61  1  0  0  0
 59 62  1  0  0  0
 60134  1  0  0  0
 60135  1  0  0  0
 60136  1  0  0  0
 61137  1  0  0  0
 61138  1  0  0  0
 61139  1  0  0  0
 62140  1  0  0  0
 62141  1  0  0  0
 62142  1  0  0  0
 63 65  1  0  0  0
 63143  1  0  0  0
 63144  1  0  0  0
 63145  1  0  0  0
 64146  1  0  0  0
 65147  1  0  0  0
 68 86  1  0  0  0
 71 72  2  0  0  0
 71 73  1  0  0  0
 71148  1  0  0  0
 72 76  1  0  0  0
 72149  1  0  0  0
 73 74  2  0  0  0
 73 77  1  0  0  0
 74 75  1  0  0  0
 74 78  1  0  0  0
 75 76  2  0  0  0
 75 83  1  0  0  0
 76 87  1  0  0  0
 77 88  1  0  0  0
 77150  1  0  0  0
 77151  1  0  0  0
 78 88  1  0  0  0
 78152  1  0  0  0
 78153  1  0  0  0
 79 81  1  0  0  0
 79 82  1  0  0  0
 79154  1  0  0  0
 79155  1  0  0  0
 80 82  1  0  0  0
 80 87  1  0  0  0
 80156  1  0  0  0
 80157  1  0  0  0
 81 84  1  0  0  0
 81 87  1  0  0  0
 81158  1  0  0  0
 82 85  1  0  0  0
 82 86  1  0  0  0
 83159  1  0  0  0
 83160  1  0  0  0
 83161  1  0  0  0
 84162  1  0  0  0
 84163  1  0  0  0
 84164  1  0  0  0
 85165  1  0  0  0
 85166  1  0  0  0
 85167  1  0  0  0
 86168  1  0  0  0
 86169  1  0  0  0
M  ISO  4   1 100  68 101  86 101  88 100
M  END
> <chiral flag>
0

> <version>
0

> <s_m_source_file>
/data/baiqing/PycharmProjects/Reinvent-master-3.2/result/LINK_invent/BTK/process_docking_weight1_custom_sum_contain_oxygen_bond_distance_aromatic_linkinvent_7_9_3/rearranged_h_0166.sdf

> <i_m_source_file_index>
58

> <r_mmod_Potential_Energy-OPLS-2005>
219.850738525391

> <r_mmod_Stretch_Energy-OPLS-2005>
68.7435531616211

> <r_mmod_Bend_Energy-OPLS-2005>
208.81233215332

> <r_mmod_Torsional_Energy-OPLS-2005>
332.963562011719

> <r_mmod_Improper_Torsional_Energy-OPLS-2005>
11.1184158325195

> <r_mmod_Van_der_Waal_Energy-OPLS-2005>
152.491561889648

> <r_mmod_Electrostatic_Energy-OPLS-2005>
-375.466705322266

> <r_mmod_Solvation_Energy-OPLS-2005>
-205.416778564453

> <b_mmod_Minimization_Converged-OPLS-2005>
0

> <r_mmod_RMS_Derivative-OPLS-2005>
1.4204728603363

$$$$
58
                    3D
 Structure written by MMmdl.
180189  0  0  1  0            999 V2000
  -30.6928  -14.4344   20.5651 C   0  0  0  0  0  0
  -30.4225  -12.2859   19.3941 C   0  0  0  0  0  0
  -29.4896  -12.5057   18.1851 C   0  0  0  0  0  0
  -28.0072  -12.3798   18.5948 C   0  0  0  0  0  0
  -27.6601  -13.1986   19.8689 C   0  0  2  0  0  0
  -28.7044  -12.9492   20.9792 C   0  0  0  0  0  0
  -25.2597  -13.8134   20.5663 C   0  0  0  0  0  0
  -24.1842  -13.0413   20.9161 C   0  0  0  0  0  0
  -24.6377  -11.6878   20.8715 C   0  0  0  0  0  0
  -23.9034  -10.4277   21.0396 C   0  0  0  0  0  0
  -24.3610   -9.4208   21.9170 C   0  0  0  0  0  0
  -23.6290   -8.2245   22.0752 C   0  0  0  0  0  0
  -22.4274   -8.0266   21.3532 C   0  0  0  0  0  0
  -21.9890   -9.0245   20.4646 C   0  0  0  0  0  0
  -22.7215  -10.2122   20.3045 C   0  0  0  0  0  0
  -21.6852   -6.0730   22.5269 C   0  0  0  0  0  0
  -21.4024   -6.5638   23.8200 C   0  0  0  0  0  0
  -21.3668   -5.6793   24.9166 C   0  0  0  0  0  0
  -21.6046   -4.3047   24.7217 C   0  0  0  0  0  0
  -21.8825   -3.8141   23.4334 C   0  0  0  0  0  0
  -21.9192   -4.6960   22.3396 C   0  0  0  0  0  0
  -22.7873  -13.5241   21.1833 C   0  0  0  0  0  0
  -22.1661   -4.2146   21.0975 F   0  0  0  0  0  0
  -21.5624   -3.4527   25.7733 F   0  0  0  0  0  0
  -30.0330  -13.2576   20.4241 N   0  0  0  0  0  0
  -26.3022  -12.9294   20.3330 N   0  0  0  0  0  0
  -25.9309  -11.6449   20.5724 N   0  0  0  0  0  0
  -22.0512  -12.8238   22.0388 N   0  0  0  0  0  0
  -25.4318  -15.1864   20.4074 N   0  0  0  0  0  0
  -31.8540  -14.6160   20.1922 O   0  0  0  0  0  0
  -21.6636   -6.8867   21.4238 O   0  0  0  0  0  0
  -22.3555  -14.5537   20.6658 O   0  0  0  0  0  0
  -24.6083  -31.8697   23.2103 C   0  0  0  0  0  0
  -25.8994  -32.4844   23.8387 C   0  0  1  0  0  0
  -27.2401  -27.4646   20.0999 C   0  0  0  0  0  0
  -25.5857  -33.8645   24.2311 N   0  0  0  0  0  0
  -23.3954  -30.4905   21.5506 C   0  0  2  0  0  0
  -24.8417  -28.9486   20.1240 C   0  0  0  0  0  0
  -22.7375  -29.4673   22.5023 C   0  0  0  0  0  0
  -18.0268  -28.1375   22.8498 C   0  0  0  0  0  0
  -24.1482  -36.7317   23.2647 C   0  0  0  0  0  0
  -25.9201  -30.8433   21.3598 C   0  0  0  0  0  0
  -25.9974  -29.4779   20.7103 C   0  0  0  0  0  0
  -27.2000  -28.7450   20.6861 C   0  0  0  0  0  0
  -26.0681  -26.9244   19.5301 C   0  0  0  0  0  0
  -24.8694  -27.6683   19.5360 C   0  0  0  0  0  0
  -23.6022  -29.8132   20.1686 C   0  0  0  0  0  0
  -25.4111  -36.3130   24.0340 C   0  0  1  0  0  0
  -20.5852  -28.3655   23.1337 C   0  0  2  0  0  0
  -20.6759  -26.9400   22.5426 C   0  0  0  0  0  0
  -19.5741  -26.6390   21.5219 C   0  0  0  0  0  0
  -18.1916  -26.7926   22.1627 C   0  0  0  0  0  0
  -19.1515  -28.8833   23.2916 C   0  0  0  0  0  0
  -18.9448  -30.1442   23.8925 C   0  0  0  0  0  0
  -17.6455  -30.6591   24.0571 C   0  0  0  0  0  0
  -25.9039  -34.9495   23.5133 C   0  0  0  0  0  0
  -16.5348  -29.9096   23.6330 C   0  0  0  0  0  0
  -16.7257  -28.6510   23.0352 C   0  0  0  0  0  0
  -26.4470  -31.6638   25.0702 C   0  0  0  0  0  0
  -25.3782  -31.3727   26.1487 C   0  0  0  0  0  0
  -27.0334  -30.3108   24.6057 C   0  0  0  0  0  0
  -27.6039  -32.4402   25.7422 C   0  0  0  0  0  0
  -27.5589  -37.1818   24.8467 C   0  0  0  0  0  0
  -21.4111  -29.3023   22.3749 N   0  0  0  0  0  0
  -26.4302  -37.3811   23.9412 N   0  0  0  0  0  0
  -24.6592  -31.0823   22.0991 N   0  0  0  0  0  0
  -23.4157  -28.8235   23.3075 O   0  0  0  0  0  0
  -28.4512  -26.8297   20.0236 O   0  0  0  0  0  0
  -26.5616  -34.8942   22.4711 O   0  0  0  0  0  0
  -23.5289  -32.1438   23.7532 O   0  0  0  0  0  0
  -30.7247  -19.1929   20.6786 C   0  0  0  0  0  0
  -30.8469  -18.7538   17.9479 C   0  0  0  0  0  0
  -31.0468  -20.2976   19.8437 C   0  0  0  0  0  0
  -30.4649  -17.8900   20.1917 C   0  0  0  0  0  0
  -30.4248  -17.7019   18.7816 C   0  0  0  0  0  0
  -31.2360  -20.0022   18.4632 C   0  0  0  0  0  0
  -30.6360  -23.2401   22.3188 C   0  0  0  0  0  0
  -31.2988  -21.7162   20.4480 C   0  0  2  0  0  0
  -31.1600  -21.8255   22.0021 C   0  0  1  0  0  0
  -30.7406  -23.9944   21.0008 C   0  0  1  0  0  0
  -30.4243  -22.9145   19.9490 C   0  0  1  0  0  0
  -30.0006  -16.4246   18.0814 C   0  0  0  0  0  0
  -32.4789  -21.5049   22.7263 C   0  0  0  0  0  0
  -30.6972  -23.4487   18.5319 C   0  0  0  0  0  0
  -30.2928  -26.2206   22.1705 C   0  0  0  0  0  0
  -33.3289  -20.8924   17.7545 C   0  0  0  0  0  0
  -30.3227  -16.8136   21.2892 C   0  0  0  0  0  0
  -28.5680  -25.4785   20.4589 C   0  0  0  0  0  0
  -30.0520  -25.3873   20.8987 C   0  0  2  0  0  0
  -31.8828  -20.8544   17.5636 N   0  0  0  0  0  0
  -29.9136  -15.4474   20.9715 N   0  0  0  0  0  0
  -31.4662  -12.3900   19.0941 H   0  0  0  0  0  0
  -30.3196  -11.2688   19.7772 H   0  0  0  0  0  0
  -29.7194  -11.7906   17.3942 H   0  0  0  0  0  0
  -29.6669  -13.4934   17.7580 H   0  0  0  0  0  0
  -27.7927  -11.3236   18.7621 H   0  0  0  0  0  0
  -27.3666  -12.6899   17.7690 H   0  0  0  0  0  0
  -27.7084  -14.2502   19.5901 H   0  0  0  0  0  0
  -28.6791  -11.9047   21.2928 H   0  0  0  0  0  0
  -28.4792  -13.5264   21.8781 H   0  0  0  0  0  0
  -25.2763   -9.5684   22.4727 H   0  0  0  0  0  0
  -24.0004   -7.4634   22.7457 H   0  0  0  0  0  0
  -21.0826   -8.8763   19.8949 H   0  0  0  0  0  0
  -22.3681  -10.9661   19.6147 H   0  0  0  0  0  0
  -21.2034   -7.6142   23.9714 H   0  0  0  0  0  0
  -21.1482   -6.0511   25.9071 H   0  0  0  0  0  0
  -22.0598   -2.7598   23.2835 H   0  0  0  0  0  0
  -22.4129  -11.9915   22.4814 H   0  0  0  0  0  0
  -21.1127  -13.1248   22.2568 H   0  0  0  0  0  0
  -24.6620  -15.8368   20.5145 H   0  0  0  0  0  0
  -26.2795  -15.6283   20.0750 H   0  0  0  0  0  0
  -26.7052  -32.5581   23.1138 H   0  0  0  0  0  0
  -24.9946  -33.9810   25.0411 H   0  0  0  0  0  0
  -22.6826  -31.3063   21.4090 H   0  0  0  0  0  0
  -23.3755  -35.9646   23.3327 H   0  0  0  0  0  0
  -24.3561  -36.8916   22.2058 H   0  0  0  0  0  0
  -23.7222  -37.6522   23.6651 H   0  0  0  0  0  0
  -26.0354  -31.6121   20.5942 H   0  0  0  0  0  0
  -26.8062  -30.8911   21.9809 H   0  0  0  0  0  0
  -28.1026  -29.1622   21.1097 H   0  0  0  0  0  0
  -26.0873  -25.9521   19.0587 H   0  0  0  0  0  0
  -23.9769  -27.2543   19.0863 H   0  0  0  0  0  0
  -23.7079  -30.5828   19.4031 H   0  0  0  0  0  0
  -22.7269  -29.2288   19.8796 H   0  0  0  0  0  0
  -25.1292  -36.2003   25.0837 H   0  0  0  0  0  0
  -20.9945  -28.3220   24.1458 H   0  0  0  0  0  0
  -20.5669  -26.2265   23.3604 H   0  0  0  0  0  0
  -21.6629  -26.7454   22.1219 H   0  0  0  0  0  0
  -19.6903  -25.6305   21.1234 H   0  0  0  0  0  0
  -19.6685  -27.3213   20.6756 H   0  0  0  0  0  0
  -17.4190  -26.6683   21.4024 H   0  0  0  0  0  0
  -18.0315  -26.0061   22.9017 H   0  0  0  0  0  0
  -19.7929  -30.7245   24.2306 H   0  0  0  0  0  0
  -17.5018  -31.6275   24.5167 H   0  0  0  0  0  0
  -15.5349  -30.3012   23.7638 H   0  0  0  0  0  0
  -15.8654  -28.0839   22.7052 H   0  0  0  0  0  0
  -24.5905  -30.7120   25.7838 H   0  0  0  0  0  0
  -24.9034  -32.2887   26.5028 H   0  0  0  0  0  0
  -25.8175  -30.8835   27.0191 H   0  0  0  0  0  0
  -26.2916  -29.6905   24.1007 H   0  0  0  0  0  0
  -27.4045  -29.7296   25.4510 H   0  0  0  0  0  0
  -27.8759  -30.4483   23.9265 H   0  0  0  0  0  0
  -27.2642  -33.3691   26.2020 H   0  0  0  0  0  0
  -28.3794  -32.7018   25.0208 H   0  0  0  0  0  0
  -28.0782  -31.8554   26.5309 H   0  0  0  0  0  0
  -28.2614  -38.0107   24.7519 H   0  0  0  0  0  0
  -28.1071  -36.2640   24.6287 H   0  0  0  0  0  0
  -27.2302  -37.1464   25.8867 H   0  0  0  0  0  0
  -20.9270  -29.8714   21.6949 H   0  0  0  0  0  0
  -26.0193  -38.2900   24.1407 H   0  0  0  0  0  0
  -30.7274  -19.2953   21.7508 H   0  0  0  0  0  0
  -30.9311  -18.5741   16.8851 H   0  0  0  0  0  0
  -31.1947  -23.7253   23.1207 H   0  0  0  0  0  0
  -29.5929  -23.1932   22.6342 H   0  0  0  0  0  0
  -32.3297  -21.9663   20.1982 H   0  0  0  0  0  0
  -30.3707  -21.1812   22.3825 H   0  0  0  0  0  0
  -31.8037  -24.2174   20.8963 H   0  0  0  0  0  0
  -29.3707  -22.6438   20.0307 H   0  0  0  0  0  0
  -29.7380  -16.6204   17.0410 H   0  0  0  0  0  0
  -29.1148  -15.9908   18.5426 H   0  0  0  0  0  0
  -30.8126  -15.7008   18.0636 H   0  0  0  0  0  0
  -33.2756  -22.1844   22.4190 H   0  0  0  0  0  0
  -32.8090  -20.4899   22.5068 H   0  0  0  0  0  0
  -32.3709  -21.5898   23.8077 H   0  0  0  0  0  0
  -31.7654  -23.5696   18.3525 H   0  0  0  0  0  0
  -30.2295  -24.4147   18.3557 H   0  0  0  0  0  0
  -30.2845  -22.7822   17.7777 H   0  0  0  0  0  0
  -31.3478  -26.2291   22.4442 H   0  0  0  0  0  0
  -29.7287  -25.8226   23.0150 H   0  0  0  0  0  0
  -29.9847  -27.2579   22.0328 H   0  0  0  0  0  0
  -33.6134  -20.7961   18.8017 H   0  0  0  0  0  0
  -33.7321  -21.8341   17.3795 H   0  0  0  0  0  0
  -33.8103  -20.0803   17.2071 H   0  0  0  0  0  0
  -31.2745  -16.7635   21.8197 H   0  0  0  0  0  0
  -29.6081  -17.1847   22.0249 H   0  0  0  0  0  0
  -27.8882  -25.2444   21.2809 H   0  0  0  0  0  0
  -28.3334  -24.8149   19.6261 H   0  0  0  0  0  0
  -30.6080  -25.8930   20.1067 H   0  0  0  0  0  0
  -31.6404  -20.6669   16.5933 H   0  0  0  0  0  0
  -28.9593  -15.2110   21.1910 H   0  0  0  0  0  0
  1 25  1  0  0  0
  1 30  2  0  0  0
  1 91  1  0  0  0
  2  3  1  0  0  0
  2 25  1  0  0  0
  2 92  1  0  0  0
  2 93  1  0  0  0
  3  4  1  0  0  0
  3 94  1  0  0  0
  3 95  1  0  0  0
  4  5  1  0  0  0
  4 96  1  0  0  0
  4 97  1  0  0  0
  5  6  1  0  0  0
  5 26  1  0  0  0
  5 98  1  0  0  0
  6 25  1  0  0  0
  6 99  1  0  0  0
  6100  1  0  0  0
  7  8  2  0  0  0
  7 26  1  0  0  0
  7 29  1  0  0  0
  8  9  1  0  0  0
  8 22  1  0  0  0
  9 10  1  0  0  0
  9 27  2  0  0  0
 10 11  2  0  0  0
 10 15  1  0  0  0
 11 12  1  0  0  0
 11101  1  0  0  0
 12 13  2  0  0  0
 12102  1  0  0  0
 13 14  1  0  0  0
 13 31  1  0  0  0
 14 15  2  0  0  0
 14103  1  0  0  0
 15104  1  0  0  0
 16 17  2  0  0  0
 16 21  1  0  0  0
 16 31  1  0  0  0
 17 18  1  0  0  0
 17105  1  0  0  0
 18 19  2  0  0  0
 18106  1  0  0  0
 19 20  1  0  0  0
 19 24  1  0  0  0
 20 21  2  0  0  0
 20107  1  0  0  0
 21 23  1  0  0  0
 22 28  1  0  0  0
 22 32  2  0  0  0
 26 27  1  0  0  0
 28108  1  0  0  0
 28109  1  0  0  0
 29110  1  0  0  0
 29111  1  0  0  0
 33 34  1  0  0  0
 33 66  1  0  0  0
 33 70  2  0  0  0
 34 36  1  0  0  0
 34 59  1  0  0  0
 34112  1  0  0  0
 35 44  2  0  0  0
 35 45  1  0  0  0
 35 68  1  0  0  0
 36 56  1  0  0  0
 36113  1  0  0  0
 37 39  1  0  0  0
 37 47  1  0  0  0
 37 66  1  0  0  0
 37114  1  0  0  0
 38 43  2  0  0  0
 38 46  1  0  0  0
 38 47  1  0  0  0
 39 64  1  0  0  0
 39 67  2  0  0  0
 40 52  1  0  0  0
 40 53  2  0  0  0
 40 58  1  0  0  0
 41115  1  0  0  0
 41116  1  0  0  0
 41117  1  0  0  0
 41 48  1  0  0  0
 42 43  1  0  0  0
 42 66  1  0  0  0
 42118  1  0  0  0
 42119  1  0  0  0
 43 44  1  0  0  0
 44120  1  0  0  0
 45 46  2  0  0  0
 45121  1  0  0  0
 46122  1  0  0  0
 47123  1  0  0  0
 47124  1  0  0  0
 48 56  1  0  0  0
 48 65  1  0  0  0
 48125  1  0  0  0
 49 50  1  0  0  0
 49 53  1  0  0  0
 49 64  1  0  0  0
 49126  1  0  0  0
 50 51  1  0  0  0
 50127  1  0  0  0
 50128  1  0  0  0
 51 52  1  0  0  0
 51129  1  0  0  0
 51130  1  0  0  0
 52131  1  0  0  0
 52132  1  0  0  0
 53 54  1  0  0  0
 54 55  2  0  0  0
 54133  1  0  0  0
 55 57  1  0  0  0
 55134  1  0  0  0
 56 69  2  0  0  0
 57 58  2  0  0  0
 57135  1  0  0  0
 58136  1  0  0  0
 59 60  1  0  0  0
 59 61  1  0  0  0
 59 62  1  0  0  0
 60137  1  0  0  0
 60138  1  0  0  0
 60139  1  0  0  0
 61140  1  0  0  0
 61141  1  0  0  0
 61142  1  0  0  0
 62143  1  0  0  0
 62144  1  0  0  0
 62145  1  0  0  0
 63 65  1  0  0  0
 63146  1  0  0  0
 63147  1  0  0  0
 63148  1  0  0  0
 64149  1  0  0  0
 65150  1  0  0  0
 68 88  1  0  0  0
 71 73  2  0  0  0
 71 74  1  0  0  0
 71151  1  0  0  0
 72 75  1  0  0  0
 72 76  2  0  0  0
 72152  1  0  0  0
 73 76  1  0  0  0
 73 78  1  0  0  0
 74 75  2  0  0  0
 74 87  1  0  0  0
 75 82  1  0  0  0
 76 90  1  0  0  0
 77 79  1  0  0  0
 77153  1  0  0  0
 77154  1  0  0  0
 77 80  1  0  0  0
 78 79  1  0  0  0
 78 81  1  0  0  0
 78155  1  0  0  0
 79 83  1  0  0  0
 79156  1  0  0  0
 80 81  1  0  0  0
 80 89  1  0  0  0
 80157  1  0  0  0
 81 84  1  0  0  0
 81158  1  0  0  0
 82159  1  0  0  0
 82160  1  0  0  0
 82161  1  0  0  0
 83162  1  0  0  0
 83163  1  0  0  0
 83164  1  0  0  0
 84165  1  0  0  0
 84166  1  0  0  0
 84167  1  0  0  0
 85168  1  0  0  0
 85169  1  0  0  0
 85170  1  0  0  0
 85 89  1  0  0  0
 86 90  1  0  0  0
 86171  1  0  0  0
 86172  1  0  0  0
 86173  1  0  0  0
 87 91  1  0  0  0
 87174  1  0  0  0
 87175  1  0  0  0
 88 89  1  0  0  0
 88176  1  0  0  0
 88177  1  0  0  0
 89178  1  0  0  0
 90179  1  0  0  0
 91180  1  0  0  0
M  ISO  4   1 100  68 101  88 101  91 100
M  END
> <chiral flag>
0

> <version>
0

> <s_m_source_file>
/data/baiqing/PycharmProjects/Reinvent-master-3.2/result/LINK_invent/BTK/process_docking_weight1_custom_sum_contain_oxygen_bond_distance_aromatic_linkinvent_7_9_3/rearranged_h_0166.sdf

> <i_m_source_file_index>
59

> <r_mmod_Potential_Energy-OPLS-2005>
97.9680480957031

> <r_mmod_Stretch_Energy-OPLS-2005>
42.9731559753418

> <r_mmod_Bend_Energy-OPLS-2005>
184.666763305664

> <r_mmod_Torsional_Energy-OPLS-2005>
302.209075927734

> <r_mmod_Improper_Torsional_Energy-OPLS-2005>
10.3820476531982

> <r_mmod_Van_der_Waal_Energy-OPLS-2005>
159.954025268555

> <r_mmod_Electrostatic_Energy-OPLS-2005>
-406.681030273438

> <r_mmod_Solvation_Energy-OPLS-2005>
-208.349426269531

> <b_mmod_Minimization_Converged-OPLS-2005>
0

> <r_mmod_RMS_Derivative-OPLS-2005>
2.86760640144348

$$$$
59
                    3D
 Structure written by MMmdl.
172182  0  0  1  0            999 V2000
  -30.7083  -14.4410   20.5787 C   0  0  0  0  0  0
  -30.4203  -12.2912   19.4161 C   0  0  0  0  0  0
  -29.4906  -12.4965   18.2029 C   0  0  0  0  0  0
  -28.0112  -12.3664   18.6165 C   0  0  0  0  0  0
  -27.6618  -13.2049   19.8756 C   0  0  2  0  0  0
  -28.7022  -12.9769   20.9955 C   0  0  0  0  0  0
  -25.2584  -13.8176   20.5679 C   0  0  0  0  0  0
  -24.1832  -13.0445   20.9176 C   0  0  0  0  0  0
  -24.6387  -11.6917   20.8741 C   0  0  0  0  0  0
  -23.9062  -10.4295   21.0420 C   0  0  0  0  0  0
  -24.3616   -9.4210   21.9197 C   0  0  0  0  0  0
  -23.6289   -8.2249   22.0766 C   0  0  0  0  0  0
  -22.4278   -8.0286   21.3549 C   0  0  0  0  0  0
  -21.9910   -9.0264   20.4657 C   0  0  0  0  0  0
  -22.7241  -10.2142   20.3065 C   0  0  0  0  0  0
  -21.6849   -6.0740   22.5283 C   0  0  0  0  0  0
  -21.4016   -6.5643   23.8219 C   0  0  0  0  0  0
  -21.3655   -5.6798   24.9180 C   0  0  0  0  0  0
  -21.6043   -4.3060   24.7233 C   0  0  0  0  0  0
  -21.8816   -3.8148   23.4352 C   0  0  0  0  0  0
  -21.9192   -4.6966   22.3406 C   0  0  0  0  0  0
  -22.7857  -13.5248   21.1831 C   0  0  0  0  0  0
  -22.1655   -4.2150   21.0983 F   0  0  0  0  0  0
  -21.5628   -3.4541   25.7742 F   0  0  0  0  0  0
  -30.0350  -13.2703   20.4436 N   0  0  0  0  0  0
  -26.3019  -12.9338   20.3375 N   0  0  0  0  0  0
  -25.9314  -11.6503   20.5781 N   0  0  0  0  0  0
  -22.0486  -12.8247   22.0393 N   0  0  0  0  0  0
  -25.4297  -15.1891   20.4091 N   0  0  0  0  0  0
  -31.8315  -14.6360   20.1075 O   0  0  0  0  0  0
  -21.6637   -6.8885   21.4248 O   0  0  0  0  0  0
  -22.3555  -14.5557   20.6684 O   0  0  0  0  0  0
  -24.6134  -31.8681   23.2080 C   0  0  0  0  0  0
  -25.9045  -32.4809   23.8374 C   0  0  1  0  0  0
  -27.2402  -27.4367   20.0990 C   0  0  0  0  0  0
  -25.5896  -33.8604   24.2314 N   0  0  0  0  0  0
  -23.3998  -30.4883   21.5481 C   0  0  2  0  0  0
  -24.8462  -28.9459   20.1143 C   0  0  0  0  0  0
  -22.7379  -29.4674   22.5012 C   0  0  0  0  0  0
  -18.0256  -28.1364   22.8471 C   0  0  0  0  0  0
  -24.1504  -36.7318   23.2638 C   0  0  0  0  0  0
  -25.9245  -30.8305   21.3598 C   0  0  0  0  0  0
  -26.0008  -29.4626   20.7132 C   0  0  0  0  0  0
  -27.1964  -28.7136   20.7031 C   0  0  0  0  0  0
  -26.0684  -26.9254   19.4984 C   0  0  0  0  0  0
  -24.8746  -27.6773   19.5032 C   0  0  0  0  0  0
  -23.6067  -29.8126   20.1639 C   0  0  0  0  0  0
  -25.4118  -36.3099   24.0330 C   0  0  1  0  0  0
  -20.5836  -28.3670   23.1309 C   0  0  2  0  0  0
  -20.6765  -26.9423   22.5401 C   0  0  0  0  0  0
  -19.5753  -26.6392   21.5183 C   0  0  0  0  0  0
  -18.1919  -26.7911   22.1595 C   0  0  0  0  0  0
  -19.1500  -28.8831   23.2886 C   0  0  0  0  0  0
  -18.9456  -30.1426   23.8921 C   0  0  0  0  0  0
  -17.6470  -30.6591   24.0554 C   0  0  0  0  0  0
  -25.9036  -34.9464   23.5124 C   0  0  0  0  0  0
  -16.5346  -29.9100   23.6317 C   0  0  0  0  0  0
  -16.7252  -28.6499   23.0354 C   0  0  0  0  0  0
  -26.4476  -31.6577   25.0693 C   0  0  0  0  0  0
  -25.3737  -31.3657   26.1438 C   0  0  0  0  0  0
  -27.0305  -30.3028   24.6031 C   0  0  0  0  0  0
  -27.6067  -32.4281   25.7447 C   0  0  0  0  0  0
  -27.5588  -37.1809   24.8457 C   0  0  0  0  0  0
  -21.4113  -29.3046   22.3731 N   0  0  0  0  0  0
  -26.4304  -37.3783   23.9393 N   0  0  0  0  0  0
  -24.6635  -31.0777   22.0977 N   0  0  0  0  0  0
  -23.4138  -28.8244   23.3089 O   0  0  0  0  0  0
  -28.4470  -26.7729   20.1050 O   0  0  0  0  0  0
  -26.5616  -34.8925   22.4703 O   0  0  0  0  0  0
  -23.5332  -32.1457   23.7484 O   0  0  0  0  0  0
  -29.7272  -20.7391   21.5900 C   0  0  0  0  0  0
  -28.6930  -22.8912   20.9973 C   0  0  0  0  0  0
  -29.7269  -22.1472   21.6233 C   0  0  0  0  0  0
  -27.6106  -22.1748   20.4172 C   0  0  0  0  0  0
  -27.6057  -20.7469   20.4020 C   0  0  0  0  0  0
  -28.6933  -20.0171   20.9595 C   0  0  0  0  0  0
  -29.9362  -25.0116   20.1990 C   0  0  0  0  0  0
  -29.4014  -17.7463   21.8370 C   0  0  0  0  0  0
  -29.1128  -18.1137   19.5097 C   0  0  0  0  0  0
  -28.7917  -24.4141   20.9866 C   0  0  1  0  0  0
  -30.4348  -16.8635   21.0921 C   0  0  2  0  0  0
  -30.4902  -17.4594   19.6624 C   0  0  2  0  0  0
  -28.5266  -25.3735   19.8175 C   0  0  2  0  0  0
  -30.8731  -22.8424   22.3440 C   0  0  0  0  0  0
  -26.4553  -22.9553   19.7996 C   0  0  0  0  0  0
  -26.4137  -20.0055   19.7946 C   0  0  0  0  0  0
  -28.7639  -18.6076   20.8355 N   0  0  0  0  0  0
  -30.0019  -15.4590   21.0966 N   0  0  0  0  0  0
  -31.5390  -18.4859   19.5419 N   0  3  0  0  0  0
  -31.4641  -12.3894   19.1125 H   0  0  0  0  0  0
  -30.3218  -11.2780   19.8091 H   0  0  0  0  0  0
  -29.7239  -11.7694   17.4236 H   0  0  0  0  0  0
  -29.6659  -13.4809   17.7658 H   0  0  0  0  0  0
  -27.8135  -11.3114   18.8088 H   0  0  0  0  0  0
  -27.3633  -12.6484   17.7865 H   0  0  0  0  0  0
  -27.7093  -14.2539   19.5816 H   0  0  0  0  0  0
  -28.6703  -11.9415   21.3386 H   0  0  0  0  0  0
  -28.4699  -13.5808   21.8739 H   0  0  0  0  0  0
  -25.2766   -9.5682   22.4772 H   0  0  0  0  0  0
  -23.9996   -7.4641   22.7485 H   0  0  0  0  0  0
  -21.0846   -8.8791   19.8959 H   0  0  0  0  0  0
  -22.3712  -10.9686   19.6170 H   0  0  0  0  0  0
  -21.2009   -7.6151   23.9724 H   0  0  0  0  0  0
  -21.1480   -6.0526   25.9084 H   0  0  0  0  0  0
  -22.0596   -2.7611   23.2855 H   0  0  0  0  0  0
  -22.4082  -11.9897   22.4771 H   0  0  0  0  0  0
  -21.1110  -13.1303   22.2597 H   0  0  0  0  0  0
  -24.6638  -15.8433   20.5269 H   0  0  0  0  0  0
  -26.2835  -15.6348   20.0999 H   0  0  0  0  0  0
  -26.7111  -32.5518   23.1131 H   0  0  0  0  0  0
  -25.0039  -33.9762   25.0453 H   0  0  0  0  0  0
  -22.6896  -31.3055   21.4054 H   0  0  0  0  0  0
  -23.3756  -35.9661   23.3294 H   0  0  0  0  0  0
  -24.3613  -36.8946   22.2055 H   0  0  0  0  0  0
  -23.7268  -37.6522   23.6670 H   0  0  0  0  0  0
  -26.0308  -31.5942   20.5876 H   0  0  0  0  0  0
  -26.8146  -30.8891   21.9747 H   0  0  0  0  0  0
  -28.0908  -29.1087   21.1656 H   0  0  0  0  0  0
  -26.0669  -25.9628   19.0087 H   0  0  0  0  0  0
  -23.9887  -27.2749   19.0299 H   0  0  0  0  0  0
  -23.7112  -30.5848   19.4001 H   0  0  0  0  0  0
  -22.7303  -29.2295   19.8738 H   0  0  0  0  0  0
  -25.1292  -36.1970   25.0819 H   0  0  0  0  0  0
  -20.9891  -28.3266   24.1440 H   0  0  0  0  0  0
  -20.5655  -26.2314   23.3603 H   0  0  0  0  0  0
  -21.6659  -26.7498   22.1214 H   0  0  0  0  0  0
  -19.6959  -25.6300   21.1238 H   0  0  0  0  0  0
  -19.6699  -27.3192   20.6701 H   0  0  0  0  0  0
  -17.4196  -26.6635   21.3988 H   0  0  0  0  0  0
  -18.0347  -26.0042   22.8987 H   0  0  0  0  0  0
  -19.7946  -30.7183   24.2345 H   0  0  0  0  0  0
  -17.5053  -31.6280   24.5148 H   0  0  0  0  0  0
  -15.5358  -30.3028   23.7634 H   0  0  0  0  0  0
  -15.8635  -28.0818   22.7099 H   0  0  0  0  0  0
  -24.5917  -30.6999   25.7756 H   0  0  0  0  0  0
  -24.8909  -32.2801   26.4909 H   0  0  0  0  0  0
  -25.8085  -30.8804   27.0189 H   0  0  0  0  0  0
  -26.2827  -29.6771   24.1139 H   0  0  0  0  0  0
  -27.4162  -29.7268   25.4453 H   0  0  0  0  0  0
  -27.8625  -30.4363   23.9109 H   0  0  0  0  0  0
  -27.2707  -33.3583   26.2041 H   0  0  0  0  0  0
  -28.3856  -32.6827   25.0247 H   0  0  0  0  0  0
  -28.0751  -31.8382   26.5336 H   0  0  0  0  0  0
  -28.2585  -38.0127   24.7514 H   0  0  0  0  0  0
  -28.1098  -36.2655   24.6264 H   0  0  0  0  0  0
  -27.2300  -37.1413   25.8858 H   0  0  0  0  0  0
  -20.9298  -29.8767   21.6930 H   0  0  0  0  0  0
  -26.0196  -38.2860   24.1405 H   0  0  0  0  0  0
  -30.5615  -20.2244   22.0416 H   0  0  0  0  0  0
  -30.4742  -24.3659   19.5086 H   0  0  0  0  0  0
  -30.5489  -25.7505   20.7127 H   0  0  0  0  0  0
  -29.8803  -18.3114   22.6356 H   0  0  0  0  0  0
  -28.6374  -17.1402   22.3250 H   0  0  0  0  0  0
  -28.3776  -17.3631   19.2174 H   0  0  0  0  0  0
  -29.0996  -18.8890   18.7420 H   0  0  0  0  0  0
  -28.5931  -24.8094   21.9817 H   0  0  0  0  0  0
  -31.4055  -16.9112   21.5903 H   0  0  0  0  0  0
  -30.6584  -16.7166   18.8814 H   0  0  0  0  0  0
  -28.1864  -25.0504   18.8347 H   0  0  0  0  0  0
  -31.5839  -23.2613   21.6305 H   0  0  0  0  0  0
  -31.4184  -22.1502   22.9869 H   0  0  0  0  0  0
  -30.5065  -23.6466   22.9815 H   0  0  0  0  0  0
  -26.2921  -23.8931   20.3277 H   0  0  0  0  0  0
  -25.5019  -22.4347   19.8430 H   0  0  0  0  0  0
  -26.6717  -23.1765   18.7541 H   0  0  0  0  0  0
  -25.4919  -20.2871   20.3027 H   0  0  0  0  0  0
  -26.4737  -18.9232   19.8885 H   0  0  0  0  0  0
  -26.3164  -20.2402   18.7344 H   0  0  0  0  0  0
  -29.0730  -15.2530   21.4299 H   0  0  0  0  0  0
  -31.3987  -19.2125   20.2190 H   0  0  0  0  0  0
  -31.5205  -18.8939   18.6249 H   0  0  0  0  0  0
  -32.4453  -18.0747   19.6825 H   0  0  0  0  0  0
  1 25  1  0  0  0
  1 30  2  0  0  0
  1 88  1  0  0  0
  2  3  1  0  0  0
  2 25  1  0  0  0
  2 90  1  0  0  0
  2 91  1  0  0  0
  3  4  1  0  0  0
  3 92  1  0  0  0
  3 93  1  0  0  0
  4  5  1  0  0  0
  4 94  1  0  0  0
  4 95  1  0  0  0
  5  6  1  0  0  0
  5 26  1  0  0  0
  5 96  1  0  0  0
  6 25  1  0  0  0
  6 97  1  0  0  0
  6 98  1  0  0  0
  7  8  2  0  0  0
  7 26  1  0  0  0
  7 29  1  0  0  0
  8  9  1  0  0  0
  8 22  1  0  0  0
  9 10  1  0  0  0
  9 27  2  0  0  0
 10 11  2  0  0  0
 10 15  1  0  0  0
 11 12  1  0  0  0
 11 99  1  0  0  0
 12 13  2  0  0  0
 12100  1  0  0  0
 13 14  1  0  0  0
 13 31  1  0  0  0
 14 15  2  0  0  0
 14101  1  0  0  0
 15102  1  0  0  0
 16 17  2  0  0  0
 16 21  1  0  0  0
 16 31  1  0  0  0
 17 18  1  0  0  0
 17103  1  0  0  0
 18 19  2  0  0  0
 18104  1  0  0  0
 19 20  1  0  0  0
 19 24  1  0  0  0
 20 21  2  0  0  0
 20105  1  0  0  0
 21 23  1  0  0  0
 22 28  1  0  0  0
 22 32  2  0  0  0
 26 27  1  0  0  0
 28106  1  0  0  0
 28107  1  0  0  0
 29108  1  0  0  0
 29109  1  0  0  0
 33 34  1  0  0  0
 33 66  1  0  0  0
 33 70  2  0  0  0
 34 36  1  0  0  0
 34 59  1  0  0  0
 34110  1  0  0  0
 35 44  2  0  0  0
 35 45  1  0  0  0
 35 68  1  0  0  0
 36 56  1  0  0  0
 36111  1  0  0  0
 37 39  1  0  0  0
 37 47  1  0  0  0
 37 66  1  0  0  0
 37112  1  0  0  0
 38 43  2  0  0  0
 38 46  1  0  0  0
 38 47  1  0  0  0
 39 64  1  0  0  0
 39 67  2  0  0  0
 40 52  1  0  0  0
 40 53  2  0  0  0
 40 58  1  0  0  0
 41113  1  0  0  0
 41114  1  0  0  0
 41115  1  0  0  0
 41 48  1  0  0  0
 42 43  1  0  0  0
 42 66  1  0  0  0
 42116  1  0  0  0
 42117  1  0  0  0
 43 44  1  0  0  0
 44118  1  0  0  0
 45 46  2  0  0  0
 45119  1  0  0  0
 46120  1  0  0  0
 47121  1  0  0  0
 47122  1  0  0  0
 48 56  1  0  0  0
 48 65  1  0  0  0
 48123  1  0  0  0
 49 50  1  0  0  0
 49 53  1  0  0  0
 49 64  1  0  0  0
 49124  1  0  0  0
 50 51  1  0  0  0
 50125  1  0  0  0
 50126  1  0  0  0
 51 52  1  0  0  0
 51127  1  0  0  0
 51128  1  0  0  0
 52129  1  0  0  0
 52130  1  0  0  0
 53 54  1  0  0  0
 54 55  2  0  0  0
 54131  1  0  0  0
 55 57  1  0  0  0
 55132  1  0  0  0
 56 69  2  0  0  0
 57 58  2  0  0  0
 57133  1  0  0  0
 58134  1  0  0  0
 59 60  1  0  0  0
 59 61  1  0  0  0
 59 62  1  0  0  0
 60135  1  0  0  0
 60136  1  0  0  0
 60137  1  0  0  0
 61138  1  0  0  0
 61139  1  0  0  0
 61140  1  0  0  0
 62141  1  0  0  0
 62142  1  0  0  0
 62143  1  0  0  0
 63 65  1  0  0  0
 63144  1  0  0  0
 63145  1  0  0  0
 63146  1  0  0  0
 64147  1  0  0  0
 65148  1  0  0  0
 68 83  1  0  0  0
 71 73  2  0  0  0
 71 76  1  0  0  0
 71149  1  0  0  0
 72 73  1  0  0  0
 72 74  2  0  0  0
 72 80  1  0  0  0
 73 84  1  0  0  0
 74 75  1  0  0  0
 74 85  1  0  0  0
 75 76  2  0  0  0
 75 86  1  0  0  0
 76 87  1  0  0  0
 77 80  1  0  0  0
 77 83  1  0  0  0
 77150  1  0  0  0
 77151  1  0  0  0
 78 81  1  0  0  0
 78 87  1  0  0  0
 78152  1  0  0  0
 78153  1  0  0  0
 79 82  1  0  0  0
 79 87  1  0  0  0
 79154  1  0  0  0
 79155  1  0  0  0
 80 83  1  0  0  0
 80156  1  0  0  0
 81 82  1  0  0  0
 81 88  1  0  0  0
 81157  1  0  0  0
 82 89  1  0  0  0
 82158  1  0  0  0
 83159  1  0  0  0
 84160  1  0  0  0
 84161  1  0  0  0
 84162  1  0  0  0
 85163  1  0  0  0
 85164  1  0  0  0
 85165  1  0  0  0
 86166  1  0  0  0
 86167  1  0  0  0
 86168  1  0  0  0
 88169  1  0  0  0
 89170  1  0  0  0
 89171  1  0  0  0
 89172  1  0  0  0
M  CHG  1  89   1
M  ISO  4   1 100  68 101  83 101  88 100
M  END
> <chiral flag>
0

> <version>
0

> <s_m_source_file>
/data/baiqing/PycharmProjects/Reinvent-master-3.2/result/LINK_invent/BTK/process_docking_weight1_custom_sum_contain_oxygen_bond_distance_aromatic_linkinvent_7_9_3/rearranged_h_0166.sdf

> <i_m_source_file_index>
60

> <r_mmod_Potential_Energy-OPLS-2005>
-293.813323974609

> <r_mmod_Stretch_Energy-OPLS-2005>
41.303108215332

> <r_mmod_Bend_Energy-OPLS-2005>
149.754272460938

> <r_mmod_Torsional_Energy-OPLS-2005>
326.153137207031

> <r_mmod_Improper_Torsional_Energy-OPLS-2005>
8.11304950714111

> <r_mmod_Van_der_Waal_Energy-OPLS-2005>
158.834838867188

> <r_mmod_Electrostatic_Energy-OPLS-2005>
-526.408508300781

> <r_mmod_Solvation_Energy-OPLS-2005>
-462.829010009766

> <b_mmod_Minimization_Converged-OPLS-2005>
0

> <r_mmod_RMS_Derivative-OPLS-2005>
2.13120722770691

$$$$
60
                    3D
 Structure written by MMmdl.
175185  0  0  1  0            999 V2000
  -30.6167  -14.5517   20.5483 C   0  0  0  0  0  0
  -30.4405  -12.3380   19.4450 C   0  0  0  0  0  0
  -29.5110  -12.4933   18.2210 C   0  0  0  0  0  0
  -28.0302  -12.3497   18.6278 C   0  0  0  0  0  0
  -27.6592  -13.2036   19.8735 C   0  0  2  0  0  0
  -28.6929  -13.0059   21.0067 C   0  0  0  0  0  0
  -25.2531  -13.8172   20.5635 C   0  0  0  0  0  0
  -24.1778  -13.0419   20.9212 C   0  0  0  0  0  0
  -24.6372  -11.6928   20.8786 C   0  0  0  0  0  0
  -23.9064  -10.4297   21.0472 C   0  0  0  0  0  0
  -24.3620   -9.4194   21.9208 C   0  0  0  0  0  0
  -23.6268   -8.2227   22.0758 C   0  0  0  0  0  0
  -22.4236   -8.0294   21.3562 C   0  0  0  0  0  0
  -21.9914   -9.0282   20.4658 C   0  0  0  0  0  0
  -22.7273  -10.2153   20.3083 C   0  0  0  0  0  0
  -21.6825   -6.0740   22.5304 C   0  0  0  0  0  0
  -21.4010   -6.5649   23.8246 C   0  0  0  0  0  0
  -21.3655   -5.6800   24.9209 C   0  0  0  0  0  0
  -21.6023   -4.3059   24.7257 C   0  0  0  0  0  0
  -21.8810   -3.8165   23.4376 C   0  0  0  0  0  0
  -21.9181   -4.6975   22.3437 C   0  0  0  0  0  0
  -22.7809  -13.5271   21.1827 C   0  0  0  0  0  0
  -22.1634   -4.2149   21.1011 F   0  0  0  0  0  0
  -21.5636   -3.4542   25.7771 F   0  0  0  0  0  0
  -30.0201  -13.3278   20.4581 N   0  0  0  0  0  0
  -26.2982  -12.9314   20.3323 N   0  0  0  0  0  0
  -25.9283  -11.6508   20.5776 N   0  0  0  0  0  0
  -22.0407  -12.8282   22.0421 N   0  0  0  0  0  0
  -25.4219  -15.1867   20.3980 N   0  0  0  0  0  0
  -31.7384  -14.7831   20.0870 O   0  0  0  0  0  0
  -21.6611   -6.8883   21.4251 O   0  0  0  0  0  0
  -22.3537  -14.5557   20.6671 O   0  0  0  0  0  0
  -24.6160  -31.8729   23.2136 C   0  0  0  0  0  0
  -25.9021  -32.4846   23.8455 C   0  0  1  0  0  0
  -27.1922  -27.4131   20.0818 C   0  0  0  0  0  0
  -25.5894  -33.8645   24.2360 N   0  0  0  0  0  0
  -23.4001  -30.4933   21.5596 C   0  0  2  0  0  0
  -24.8321  -28.9771   20.0869 C   0  0  0  0  0  0
  -22.7335  -29.4656   22.5065 C   0  0  0  0  0  0
  -18.0228  -28.1403   22.8464 C   0  0  0  0  0  0
  -24.1496  -36.7367   23.2631 C   0  0  0  0  0  0
  -25.9216  -30.8330   21.3558 C   0  0  0  0  0  0
  -25.9894  -29.4672   20.6970 C   0  0  0  0  0  0
  -27.1671  -28.6896   20.6978 C   0  0  0  0  0  0
  -26.0188  -26.9381   19.4607 C   0  0  0  0  0  0
  -24.8442  -27.7157   19.4612 C   0  0  0  0  0  0
  -23.5972  -29.8491   20.1606 C   0  0  0  0  0  0
  -25.4104  -36.3147   24.0352 C   0  0  1  0  0  0
  -20.5807  -28.3685   23.1419 C   0  0  2  0  0  0
  -20.6778  -26.9442   22.5480 C   0  0  0  0  0  0
  -19.5768  -26.6441   21.5238 C   0  0  0  0  0  0
  -18.1927  -26.7945   22.1648 C   0  0  0  0  0  0
  -19.1467  -28.8853   23.2943 C   0  0  0  0  0  0
  -18.9402  -30.1450   23.8979 C   0  0  0  0  0  0
  -17.6408  -30.6630   24.0534 C   0  0  0  0  0  0
  -25.9032  -34.9493   23.5118 C   0  0  0  0  0  0
  -16.5294  -29.9133   23.6283 C   0  0  0  0  0  0
  -16.7225  -28.6539   23.0336 C   0  0  0  0  0  0
  -26.4445  -31.6594   25.0760 C   0  0  0  0  0  0
  -25.3701  -31.3676   26.1497 C   0  0  0  0  0  0
  -27.0247  -30.3068   24.6009 C   0  0  0  0  0  0
  -27.6044  -32.4284   25.7516 C   0  0  0  0  0  0
  -27.5575  -37.1841   24.8447 C   0  0  0  0  0  0
  -21.4073  -29.3068   22.3856 N   0  0  0  0  0  0
  -26.4300  -37.3834   23.9387 N   0  0  0  0  0  0
  -24.6667  -31.0791   22.1028 N   0  0  0  0  0  0
  -23.4046  -28.8119   23.3098 O   0  0  0  0  0  0
  -28.3765  -26.7138   20.0618 O   0  0  0  0  0  0
  -26.5633  -34.8908   22.4704 O   0  0  0  0  0  0
  -23.5362  -32.1512   23.7494 O   0  0  0  0  0  0
  -30.1733  -21.7814   23.1741 C   0  0  0  0  0  0
  -29.9728  -20.6019   22.4610 C   0  0  0  0  0  0
  -28.6879  -22.9925   21.6569 C   0  0  0  0  0  0
  -29.5226  -22.9559   22.8127 C   0  0  0  0  0  0
  -28.3158  -21.7331   21.0506 C   0  0  0  0  0  0
  -28.9945  -20.5041   21.4474 C   0  0  0  0  0  0
  -29.6197  -25.0054   20.6930 C   0  0  0  0  0  0
  -29.0728  -17.9297   21.6503 C   0  0  0  0  0  0
  -28.9098  -18.9383   19.4998 C   0  0  0  0  0  0
  -28.3076  -24.4077   21.1966 C   0  0  1  0  0  0
  -29.8950  -17.0161   20.6926 C   0  0  2  0  0  0
  -29.2444  -17.4324   19.3625 C   0  0  2  0  0  0
  -28.4096  -25.2804   19.9089 C   0  0  2  0  0  0
  -29.8210  -24.1523   23.7155 C   0  0  0  0  0  0
  -27.2838  -22.0795   18.6505 C   0  0  0  0  0  0
  -27.0753  -21.6815   20.1256 C   0  0  1  0  0  0
  -28.7428  -19.1899   20.9290 N   0  0  0  0  0  0
  -29.7827  -15.5502   20.9403 N   0  0  0  0  0  0
  -30.0866  -17.1277   18.1991 N   0  3  0  0  0  0
  -25.9296  -22.3957   20.7265 N   0  3  0  0  0  0
  -31.4798  -12.4692   19.1401 H   0  0  0  0  0  0
  -30.3773  -11.3218   19.8386 H   0  0  0  0  0  0
  -29.7665  -11.7605   17.4507 H   0  0  0  0  0  0
  -29.6752  -13.4759   17.7785 H   0  0  0  0  0  0
  -27.8513  -11.2948   18.8368 H   0  0  0  0  0  0
  -27.3836  -12.6062   17.7864 H   0  0  0  0  0  0
  -27.6928  -14.2470   19.5505 H   0  0  0  0  0  0
  -28.6769  -11.9855   21.3881 H   0  0  0  0  0  0
  -28.4378  -13.6288   21.8631 H   0  0  0  0  0  0
  -25.2790   -9.5611   22.4765 H   0  0  0  0  0  0
  -23.9970   -7.4598   22.7468 H   0  0  0  0  0  0
  -21.0842   -8.8864   19.8928 H   0  0  0  0  0  0
  -22.3811  -10.9695   19.6171 H   0  0  0  0  0  0
  -21.1995   -7.6153   23.9769 H   0  0  0  0  0  0
  -21.1463   -6.0525   25.9119 H   0  0  0  0  0  0
  -22.0573   -2.7611   23.2916 H   0  0  0  0  0  0
  -22.4051  -11.9962   22.4802 H   0  0  0  0  0  0
  -21.1004  -13.1290   22.2606 H   0  0  0  0  0  0
  -24.6516  -15.8402   20.4879 H   0  0  0  0  0  0
  -26.2704  -15.6243   20.0637 H   0  0  0  0  0  0
  -26.7046  -32.5532   23.1216 H   0  0  0  0  0  0
  -25.0024  -33.9846   25.0482 H   0  0  0  0  0  0
  -22.6850  -31.3092   21.4364 H   0  0  0  0  0  0
  -23.3756  -35.9707   23.3300 H   0  0  0  0  0  0
  -24.3588  -36.8979   22.2038 H   0  0  0  0  0  0
  -23.7241  -37.6571   23.6644 H   0  0  0  0  0  0
  -25.9980  -31.5863   20.5679 H   0  0  0  0  0  0
  -26.8211  -30.9017   21.9597 H   0  0  0  0  0  0
  -28.0680  -29.0625   21.1617 H   0  0  0  0  0  0
  -26.0019  -25.9893   18.9438 H   0  0  0  0  0  0
  -23.9528  -27.3507   18.9713 H   0  0  0  0  0  0
  -23.7032  -30.6406   19.4153 H   0  0  0  0  0  0
  -22.7116  -29.2785   19.8749 H   0  0  0  0  0  0
  -25.1265  -36.2075   25.0871 H   0  0  0  0  0  0
  -20.9813  -28.3221   24.1574 H   0  0  0  0  0  0
  -20.5773  -26.2221   23.3613 H   0  0  0  0  0  0
  -21.6672  -26.7609   22.1290 H   0  0  0  0  0  0
  -19.6952  -25.6370   21.1235 H   0  0  0  0  0  0
  -19.6717  -27.3239   20.6748 H   0  0  0  0  0  0
  -17.4199  -26.6634   21.4058 H   0  0  0  0  0  0
  -18.0300  -26.0168   22.9124 H   0  0  0  0  0  0
  -19.7864  -30.7225   24.2453 H   0  0  0  0  0  0
  -17.4975  -31.6296   24.5139 H   0  0  0  0  0  0
  -15.5306  -30.3072   23.7672 H   0  0  0  0  0  0
  -15.8589  -28.0901   22.7110 H   0  0  0  0  0  0
  -24.5875  -30.7031   25.7798 H   0  0  0  0  0  0
  -24.8904  -32.2843   26.4952 H   0  0  0  0  0  0
  -25.8027  -30.8822   27.0253 H   0  0  0  0  0  0
  -26.2780  -29.6916   24.0979 H   0  0  0  0  0  0
  -27.4008  -29.7183   25.4380 H   0  0  0  0  0  0
  -27.8606  -30.4460   23.9133 H   0  0  0  0  0  0
  -27.2663  -33.3525   26.2214 H   0  0  0  0  0  0
  -28.3783  -32.6923   25.0293 H   0  0  0  0  0  0
  -28.0807  -31.8356   26.5335 H   0  0  0  0  0  0
  -28.2602  -38.0132   24.7505 H   0  0  0  0  0  0
  -28.1060  -36.2659   24.6268 H   0  0  0  0  0  0
  -27.2302  -37.1492   25.8855 H   0  0  0  0  0  0
  -20.9182  -29.8738   21.7094 H   0  0  0  0  0  0
  -26.0206  -38.2925   24.1378 H   0  0  0  0  0  0
  -30.8700  -21.7896   23.9982 H   0  0  0  0  0  0
  -30.5786  -19.7643   22.7535 H   0  0  0  0  0  0
  -30.3194  -24.3412   20.1952 H   0  0  0  0  0  0
  -30.0949  -25.7602   21.3133 H   0  0  0  0  0  0
  -29.5875  -18.0501   22.6004 H   0  0  0  0  0  0
  -28.1211  -17.4477   21.8893 H   0  0  0  0  0  0
  -27.9967  -19.1772   18.9541 H   0  0  0  0  0  0
  -29.6990  -19.5620   19.0750 H   0  0  0  0  0  0
  -27.7150  -24.8968   21.9661 H   0  0  0  0  0  0
  -30.9431  -17.3188   20.7192 H   0  0  0  0  0  0
  -28.2916  -16.9072   19.2536 H   0  0  0  0  0  0
  -28.4374  -24.9136   18.8869 H   0  0  0  0  0  0
  -29.6397  -23.8674   24.7514 H   0  0  0  0  0  0
  -29.2615  -25.0698   23.5236 H   0  0  0  0  0  0
  -30.8889  -24.3759   23.6666 H   0  0  0  0  0  0
  -28.1409  -21.5831   18.1955 H   0  0  0  0  0  0
  -27.3731  -23.1500   18.5044 H   0  0  0  0  0  0
  -26.4047  -21.7911   18.0724 H   0  0  0  0  0  0
  -26.7519  -20.6458   20.1010 H   0  0  0  0  0  0
  -28.9088  -15.2252   21.3296 H   0  0  0  0  0  0
  -30.9297  -17.6745   18.2506 H   0  0  0  0  0  0
  -29.6038  -17.3537   17.3451 H   0  0  0  0  0  0
  -30.3409  -16.1548   18.1799 H   0  0  0  0  0  0
  -25.7633  -22.0338   21.6499 H   0  0  0  0  0  0
  -25.0964  -22.2701   20.1785 H   0  0  0  0  0  0
  -26.1069  -23.3803   20.7991 H   0  0  0  0  0  0
  1 25  1  0  0  0
  1 30  2  0  0  0
  1 88  1  0  0  0
  2  3  1  0  0  0
  2 25  1  0  0  0
  2 91  1  0  0  0
  2 92  1  0  0  0
  3  4  1  0  0  0
  3 93  1  0  0  0
  3 94  1  0  0  0
  4  5  1  0  0  0
  4 95  1  0  0  0
  4 96  1  0  0  0
  5  6  1  0  0  0
  5 26  1  0  0  0
  5 97  1  0  0  0
  6 25  1  0  0  0
  6 98  1  0  0  0
  6 99  1  0  0  0
  7  8  2  0  0  0
  7 26  1  0  0  0
  7 29  1  0  0  0
  8  9  1  0  0  0
  8 22  1  0  0  0
  9 10  1  0  0  0
  9 27  2  0  0  0
 10 11  2  0  0  0
 10 15  1  0  0  0
 11 12  1  0  0  0
 11100  1  0  0  0
 12 13  2  0  0  0
 12101  1  0  0  0
 13 14  1  0  0  0
 13 31  1  0  0  0
 14 15  2  0  0  0
 14102  1  0  0  0
 15103  1  0  0  0
 16 17  2  0  0  0
 16 21  1  0  0  0
 16 31  1  0  0  0
 17 18  1  0  0  0
 17104  1  0  0  0
 18 19  2  0  0  0
 18105  1  0  0  0
 19 20  1  0  0  0
 19 24  1  0  0  0
 20 21  2  0  0  0
 20106  1  0  0  0
 21 23  1  0  0  0
 22 28  1  0  0  0
 22 32  2  0  0  0
 26 27  1  0  0  0
 28107  1  0  0  0
 28108  1  0  0  0
 29109  1  0  0  0
 29110  1  0  0  0
 33 34  1  0  0  0
 33 66  1  0  0  0
 33 70  2  0  0  0
 34 36  1  0  0  0
 34 59  1  0  0  0
 34111  1  0  0  0
 35 44  2  0  0  0
 35 45  1  0  0  0
 35 68  1  0  0  0
 36 56  1  0  0  0
 36112  1  0  0  0
 37 39  1  0  0  0
 37 47  1  0  0  0
 37 66  1  0  0  0
 37113  1  0  0  0
 38 43  2  0  0  0
 38 46  1  0  0  0
 38 47  1  0  0  0
 39 64  1  0  0  0
 39 67  2  0  0  0
 40 52  1  0  0  0
 40 53  2  0  0  0
 40 58  1  0  0  0
 41114  1  0  0  0
 41115  1  0  0  0
 41116  1  0  0  0
 41 48  1  0  0  0
 42 43  1  0  0  0
 42 66  1  0  0  0
 42117  1  0  0  0
 42118  1  0  0  0
 43 44  1  0  0  0
 44119  1  0  0  0
 45 46  2  0  0  0
 45120  1  0  0  0
 46121  1  0  0  0
 47122  1  0  0  0
 47123  1  0  0  0
 48 56  1  0  0  0
 48 65  1  0  0  0
 48124  1  0  0  0
 49 50  1  0  0  0
 49 53  1  0  0  0
 49 64  1  0  0  0
 49125  1  0  0  0
 50 51  1  0  0  0
 50126  1  0  0  0
 50127  1  0  0  0
 51 52  1  0  0  0
 51128  1  0  0  0
 51129  1  0  0  0
 52130  1  0  0  0
 52131  1  0  0  0
 53 54  1  0  0  0
 54 55  2  0  0  0
 54132  1  0  0  0
 55 57  1  0  0  0
 55133  1  0  0  0
 56 69  2  0  0  0
 57 58  2  0  0  0
 57134  1  0  0  0
 58135  1  0  0  0
 59 60  1  0  0  0
 59 61  1  0  0  0
 59 62  1  0  0  0
 60136  1  0  0  0
 60137  1  0  0  0
 60138  1  0  0  0
 61139  1  0  0  0
 61140  1  0  0  0
 61141  1  0  0  0
 62142  1  0  0  0
 62143  1  0  0  0
 62144  1  0  0  0
 63 65  1  0  0  0
 63145  1  0  0  0
 63146  1  0  0  0
 63147  1  0  0  0
 64148  1  0  0  0
 65149  1  0  0  0
 68 83  1  0  0  0
 71 72  2  0  0  0
 71 74  1  0  0  0
 71150  1  0  0  0
 72 76  1  0  0  0
 72151  1  0  0  0
 73 74  2  0  0  0
 73 75  1  0  0  0
 73 80  1  0  0  0
 74 84  1  0  0  0
 75 76  2  0  0  0
 75 86  1  0  0  0
 76 87  1  0  0  0
 77 80  1  0  0  0
 77 83  1  0  0  0
 77152  1  0  0  0
 77153  1  0  0  0
 78 81  1  0  0  0
 78 87  1  0  0  0
 78154  1  0  0  0
 78155  1  0  0  0
 79 82  1  0  0  0
 79 87  1  0  0  0
 79156  1  0  0  0
 79157  1  0  0  0
 80 83  1  0  0  0
 80158  1  0  0  0
 81 82  1  0  0  0
 81 88  1  0  0  0
 81159  1  0  0  0
 82 89  1  0  0  0
 82160  1  0  0  0
 83161  1  0  0  0
 84162  1  0  0  0
 84163  1  0  0  0
 84164  1  0  0  0
 85165  1  0  0  0
 85166  1  0  0  0
 85167  1  0  0  0
 85 86  1  0  0  0
 86 90  1  0  0  0
 86168  1  0  0  0
 88169  1  0  0  0
 89170  1  0  0  0
 89171  1  0  0  0
 89172  1  0  0  0
 90173  1  0  0  0
 90174  1  0  0  0
 90175  1  0  0  0
M  CHG  2  89   1  90   1
M  ISO  4   1 100  68 101  83 101  88 100
M  END
> <chiral flag>
0

> <version>
0

> <s_m_source_file>
/data/baiqing/PycharmProjects/Reinvent-master-3.2/result/LINK_invent/BTK/process_docking_weight1_custom_sum_contain_oxygen_bond_distance_aromatic_linkinvent_7_9_3/rearranged_h_0166.sdf

> <i_m_source_file_index>
61

> <r_mmod_Potential_Energy-OPLS-2005>
-376.762145996094

> <r_mmod_Stretch_Energy-OPLS-2005>
67.0030364990234

> <r_mmod_Bend_Energy-OPLS-2005>
242.723587036133

> <r_mmod_Torsional_Energy-OPLS-2005>
339.524169921875

> <r_mmod_Improper_Torsional_Energy-OPLS-2005>
10.4601078033447

> <r_mmod_Van_der_Waal_Energy-OPLS-2005>
148.453704833984

> <r_mmod_Electrostatic_Energy-OPLS-2005>
-245.601745605469

> <r_mmod_Solvation_Energy-OPLS-2005>
-961.95703125

> <b_mmod_Minimization_Converged-OPLS-2005>
0

> <r_mmod_RMS_Derivative-OPLS-2005>
10.1327447891235

$$$$
61
                    3D
 Structure written by MMmdl.
173182  0  0  1  0            999 V2000
  -30.7029  -14.4465   20.5094 C   0  0  0  0  0  0
  -30.4193  -12.2721   19.4162 C   0  0  0  0  0  0
  -29.4923  -12.4636   18.1963 C   0  0  0  0  0  0
  -28.0104  -12.3536   18.6099 C   0  0  0  0  0  0
  -27.6573  -13.2031   19.8607 C   0  0  2  0  0  0
  -28.7018  -13.0105   20.9847 C   0  0  0  0  0  0
  -25.2613  -13.8160   20.5675 C   0  0  0  0  0  0
  -24.1852  -13.0453   20.9172 C   0  0  0  0  0  0
  -24.6394  -11.6913   20.8729 C   0  0  0  0  0  0
  -23.9056  -10.4304   21.0409 C   0  0  0  0  0  0
  -24.3609   -9.4223   21.9187 C   0  0  0  0  0  0
  -23.6297   -8.2249   22.0755 C   0  0  0  0  0  0
  -22.4283   -8.0282   21.3546 C   0  0  0  0  0  0
  -21.9915   -9.0254   20.4660 C   0  0  0  0  0  0
  -22.7231  -10.2134   20.3064 C   0  0  0  0  0  0
  -21.6852   -6.0738   22.5277 C   0  0  0  0  0  0
  -21.4008   -6.5643   23.8208 C   0  0  0  0  0  0
  -21.3657   -5.6793   24.9171 C   0  0  0  0  0  0
  -21.6045   -4.3054   24.7221 C   0  0  0  0  0  0
  -21.8822   -3.8149   23.4341 C   0  0  0  0  0  0
  -21.9199   -4.6969   22.3397 C   0  0  0  0  0  0
  -22.7879  -13.5265   21.1822 C   0  0  0  0  0  0
  -22.1674   -4.2152   21.0976 F   0  0  0  0  0  0
  -21.5628   -3.4535   25.7733 F   0  0  0  0  0  0
  -30.0315  -13.2731   20.4173 N   0  0  0  0  0  0
  -26.3015  -12.9319   20.3309 N   0  0  0  0  0  0
  -25.9308  -11.6481   20.5735 N   0  0  0  0  0  0
  -22.0500  -12.8270   22.0376 N   0  0  0  0  0  0
  -25.4405  -15.1863   20.4100 N   0  0  0  0  0  0
  -31.8911  -14.5724   20.1963 O   0  0  0  0  0  0
  -21.6643   -6.8878   21.4244 O   0  0  0  0  0  0
  -22.3580  -14.5568   20.6659 O   0  0  0  0  0  0
  -24.6116  -31.8715   23.2141 C   0  0  0  0  0  0
  -25.9025  -32.4837   23.8419 C   0  0  1  0  0  0
  -27.2302  -27.4643   20.0850 C   0  0  0  0  0  0
  -25.5896  -33.8628   24.2361 N   0  0  0  0  0  0
  -23.3969  -30.5004   21.5525 C   0  0  2  0  0  0
  -24.8401  -28.9732   20.1141 C   0  0  0  0  0  0
  -22.7390  -29.4688   22.4976 C   0  0  0  0  0  0
  -18.0268  -28.1390   22.8510 C   0  0  0  0  0  0
  -24.1487  -36.7323   23.2639 C   0  0  0  0  0  0
  -25.9244  -30.8472   21.3622 C   0  0  0  0  0  0
  -25.9995  -29.4832   20.7106 C   0  0  0  0  0  0
  -27.1956  -28.7349   20.6973 C   0  0  0  0  0  0
  -26.0508  -26.9705   19.4730 C   0  0  0  0  0  0
  -24.8591  -27.7133   19.4953 C   0  0  0  0  0  0
  -23.6045  -29.8391   20.1645 C   0  0  0  0  0  0
  -25.4095  -36.3111   24.0355 C   0  0  1  0  0  0
  -20.5861  -28.3664   23.1341 C   0  0  2  0  0  0
  -20.6757  -26.9404   22.5430 C   0  0  0  0  0  0
  -19.5734  -26.6395   21.5232 C   0  0  0  0  0  0
  -18.1911  -26.7941   22.1635 C   0  0  0  0  0  0
  -19.1524  -28.8835   23.2930 C   0  0  0  0  0  0
  -18.9448  -30.1446   23.8932 C   0  0  0  0  0  0
  -17.6455  -30.6589   24.0572 C   0  0  0  0  0  0
  -25.9020  -34.9483   23.5152 C   0  0  0  0  0  0
  -16.5342  -29.9102   23.6317 C   0  0  0  0  0  0
  -16.7264  -28.6521   23.0336 C   0  0  0  0  0  0
  -26.4462  -31.6604   25.0731 C   0  0  0  0  0  0
  -25.3747  -31.3712   26.1504 C   0  0  0  0  0  0
  -27.0272  -30.3046   24.6072 C   0  0  0  0  0  0
  -27.6053  -32.4299   25.7474 C   0  0  0  0  0  0
  -27.5588  -37.1809   24.8457 C   0  0  0  0  0  0
  -21.4121  -29.3043   22.3738 N   0  0  0  0  0  0
  -26.4283  -37.3792   23.9423 N   0  0  0  0  0  0
  -24.6633  -31.0857   22.1016 N   0  0  0  0  0  0
  -23.4186  -28.8218   23.2988 O   0  0  0  0  0  0
  -28.4120  -26.7539   20.1085 O   0  0  0  0  0  0
  -26.5571  -34.8929   22.4704 O   0  0  0  0  0  0
  -23.5321  -32.1444   23.7555 O   0  0  0  0  0  0
  -28.3222  -21.1877   21.4377 C   0  0  0  0  0  0
  -28.7510  -21.1643   19.0408 C   0  0  0  0  0  0
  -28.2814  -20.5363   20.1512 C   0  0  0  0  0  0
  -28.7592  -22.4535   21.5354 C   0  0  0  0  0  0
  -29.3287  -22.5225   19.1589 C   0  0  0  0  0  0
  -28.7046  -17.4712   21.5693 C   0  0  0  0  0  0
  -28.7619  -17.2543   19.1005 C   0  0  0  0  0  0
  -29.8122  -16.3904   21.6814 C   0  0  0  0  0  0
  -29.9402  -16.2911   19.2225 C   0  0  0  0  0  0
  -28.8329  -18.2586   20.2528 C   0  0  0  0  0  0
  -28.7928  -23.1771   22.8753 C   0  0  0  0  0  0
  -27.9683  -21.3872   16.5797 C   0  0  0  0  0  0
  -30.0419  -20.0247   17.1703 C   0  0  0  0  0  0
  -29.5196  -24.5872   20.4344 C   0  0  0  0  0  0
  -28.3096  -25.3537   19.8790 C   0  0  0  0  0  0
  -28.6642  -20.5185   17.6472 C   0  0  0  0  0  0
  -29.2279  -23.1367   20.3797 N   0  0  0  0  0  0
  -29.8996  -15.5333   20.4851 N   0  0  0  0  0  0
  -29.8631  -23.1027   18.2046 O   0  0  0  0  0  0
  -27.8116  -19.2464   20.1066 O   0  0  0  0  0  0
  -31.4655  -12.3621   19.1142 H   0  0  0  0  0  0
  -30.3110  -11.2687   19.8305 H   0  0  0  0  0  0
  -29.7197  -11.7157   17.4354 H   0  0  0  0  0  0
  -29.6757  -13.4314   17.7292 H   0  0  0  0  0  0
  -27.8042  -11.3003   18.8060 H   0  0  0  0  0  0
  -27.3671  -12.6369   17.7757 H   0  0  0  0  0  0
  -27.6913  -14.2442   19.5419 H   0  0  0  0  0  0
  -28.6623  -11.9955   21.3820 H   0  0  0  0  0  0
  -28.4874  -13.6762   21.8222 H   0  0  0  0  0  0
  -25.2750   -9.5699   22.4759 H   0  0  0  0  0  0
  -24.0014   -7.4640   22.7463 H   0  0  0  0  0  0
  -21.0841   -8.8767   19.8967 H   0  0  0  0  0  0
  -22.3690  -10.9667   19.6166 H   0  0  0  0  0  0
  -21.1991   -7.6153   23.9712 H   0  0  0  0  0  0
  -21.1481   -6.0523   25.9072 H   0  0  0  0  0  0
  -22.0605   -2.7619   23.2828 H   0  0  0  0  0  0
  -22.4087  -11.9930   22.4772 H   0  0  0  0  0  0
  -21.1121  -13.1324   22.2547 H   0  0  0  0  0  0
  -24.6847  -15.8539   20.5167 H   0  0  0  0  0  0
  -26.3119  -15.6143   20.1257 H   0  0  0  0  0  0
  -26.7098  -32.5561   23.1192 H   0  0  0  0  0  0
  -25.0067  -33.9781   25.0525 H   0  0  0  0  0  0
  -22.6867  -31.3187   21.4187 H   0  0  0  0  0  0
  -23.3743  -35.9658   23.3264 H   0  0  0  0  0  0
  -24.3608  -36.8955   22.2061 H   0  0  0  0  0  0
  -23.7237  -37.6525   23.6659 H   0  0  0  0  0  0
  -26.0325  -31.6142   20.5936 H   0  0  0  0  0  0
  -26.8144  -30.8996   21.9775 H   0  0  0  0  0  0
  -28.0895  -29.1261   21.1642 H   0  0  0  0  0  0
  -26.0270  -26.0189   18.9622 H   0  0  0  0  0  0
  -23.9689  -27.3199   19.0242 H   0  0  0  0  0  0
  -23.7196  -30.6173   19.4087 H   0  0  0  0  0  0
  -22.7255  -29.2652   19.8633 H   0  0  0  0  0  0
  -25.1266  -36.1964   25.0845 H   0  0  0  0  0  0
  -20.9986  -28.3219   24.1452 H   0  0  0  0  0  0
  -20.5684  -26.2267   23.3615 H   0  0  0  0  0  0
  -21.6628  -26.7458   22.1214 H   0  0  0  0  0  0
  -19.6887  -25.6311   21.1254 H   0  0  0  0  0  0
  -19.6671  -27.3214   20.6773 H   0  0  0  0  0  0
  -17.4195  -26.6720   21.4014 H   0  0  0  0  0  0
  -18.0276  -26.0076   22.9023 H   0  0  0  0  0  0
  -19.7920  -30.7259   24.2312 H   0  0  0  0  0  0
  -17.5005  -31.6274   24.5175 H   0  0  0  0  0  0
  -15.5342  -30.3017   23.7615 H   0  0  0  0  0  0
  -15.8671  -28.0867   22.7001 H   0  0  0  0  0  0
  -24.5896  -30.7078   25.7865 H   0  0  0  0  0  0
  -24.8972  -32.2878   26.4982 H   0  0  0  0  0  0
  -25.8133  -30.8870   27.0243 H   0  0  0  0  0  0
  -26.2803  -29.6813   24.1149 H   0  0  0  0  0  0
  -27.4082  -29.7267   25.4502 H   0  0  0  0  0  0
  -27.8622  -30.4371   23.9185 H   0  0  0  0  0  0
  -27.2706  -33.3604   26.2072 H   0  0  0  0  0  0
  -28.3859  -32.6845   25.0292 H   0  0  0  0  0  0
  -28.0734  -31.8405   26.5373 H   0  0  0  0  0  0
  -28.2582  -38.0129   24.7525 H   0  0  0  0  0  0
  -28.1111  -36.2666   24.6232 H   0  0  0  0  0  0
  -27.2332  -37.1388   25.8865 H   0  0  0  0  0  0
  -20.9256  -29.8820   21.7031 H   0  0  0  0  0  0
  -26.0171  -38.2870   24.1420 H   0  0  0  0  0  0
  -27.9753  -20.6596   22.3149 H   0  0  0  0  0  0
  -28.7690  -18.1515   22.4195 H   0  0  0  0  0  0
  -27.7219  -17.0007   21.6254 H   0  0  0  0  0  0
  -27.8145  -16.7145   19.1135 H   0  0  0  0  0  0
  -28.8193  -17.7377   18.1305 H   0  0  0  0  0  0
  -29.6317  -15.7751   22.5650 H   0  0  0  0  0  0
  -30.7780  -16.8741   21.8369 H   0  0  0  0  0  0
  -30.8798  -16.8449   19.1553 H   0  0  0  0  0  0
  -29.9243  -15.6145   18.3664 H   0  0  0  0  0  0
  -29.8200  -18.7275   20.2360 H   0  0  0  0  0  0
  -28.3607  -22.5577   23.6627 H   0  0  0  0  0  0
  -28.2208  -24.1056   22.8487 H   0  0  0  0  0  0
  -29.8200  -23.3995   23.1669 H   0  0  0  0  0  0
  -27.0584  -21.8453   16.9687 H   0  0  0  0  0  0
  -27.6818  -20.7841   15.7176 H   0  0  0  0  0  0
  -28.6127  -22.1829   16.2063 H   0  0  0  0  0  0
  -30.5264  -19.4080   17.9278 H   0  0  0  0  0  0
  -30.7140  -20.8560   16.9551 H   0  0  0  0  0  0
  -29.9547  -19.4263   16.2638 H   0  0  0  0  0  0
  -29.7510  -24.9423   21.4346 H   0  0  0  0  0  0
  -30.4156  -24.8334   19.8620 H   0  0  0  0  0  0
  -27.4202  -24.9544   20.3691 H   0  0  0  0  0  0
  -28.2027  -25.1800   18.8063 H   0  0  0  0  0  0
  -28.0060  -19.6582   17.7400 H   0  0  0  0  0  0
  1 25  1  0  0  0
  1 30  2  0  0  0
  1 88  1  0  0  0
  2  3  1  0  0  0
  2 25  1  0  0  0
  2 91  1  0  0  0
  2 92  1  0  0  0
  3  4  1  0  0  0
  3 93  1  0  0  0
  3 94  1  0  0  0
  4  5  1  0  0  0
  4 95  1  0  0  0
  4 96  1  0  0  0
  5  6  1  0  0  0
  5 26  1  0  0  0
  5 97  1  0  0  0
  6 25  1  0  0  0
  6 98  1  0  0  0
  6 99  1  0  0  0
  7  8  2  0  0  0
  7 26  1  0  0  0
  7 29  1  0  0  0
  8  9  1  0  0  0
  8 22  1  0  0  0
  9 10  1  0  0  0
  9 27  2  0  0  0
 10 11  2  0  0  0
 10 15  1  0  0  0
 11 12  1  0  0  0
 11100  1  0  0  0
 12 13  2  0  0  0
 12101  1  0  0  0
 13 14  1  0  0  0
 13 31  1  0  0  0
 14 15  2  0  0  0
 14102  1  0  0  0
 15103  1  0  0  0
 16 17  2  0  0  0
 16 21  1  0  0  0
 16 31  1  0  0  0
 17 18  1  0  0  0
 17104  1  0  0  0
 18 19  2  0  0  0
 18105  1  0  0  0
 19 20  1  0  0  0
 19 24  1  0  0  0
 20 21  2  0  0  0
 20106  1  0  0  0
 21 23  1  0  0  0
 22 28  1  0  0  0
 22 32  2  0  0  0
 26 27  1  0  0  0
 28107  1  0  0  0
 28108  1  0  0  0
 29109  1  0  0  0
 29110  1  0  0  0
 33 34  1  0  0  0
 33 66  1  0  0  0
 33 70  2  0  0  0
 34 36  1  0  0  0
 34 59  1  0  0  0
 34111  1  0  0  0
 35 44  2  0  0  0
 35 45  1  0  0  0
 35 68  1  0  0  0
 36 56  1  0  0  0
 36112  1  0  0  0
 37 39  1  0  0  0
 37 47  1  0  0  0
 37 66  1  0  0  0
 37113  1  0  0  0
 38 43  2  0  0  0
 38 46  1  0  0  0
 38 47  1  0  0  0
 39 64  1  0  0  0
 39 67  2  0  0  0
 40 52  1  0  0  0
 40 53  2  0  0  0
 40 58  1  0  0  0
 41114  1  0  0  0
 41115  1  0  0  0
 41116  1  0  0  0
 41 48  1  0  0  0
 42 43  1  0  0  0
 42 66  1  0  0  0
 42117  1  0  0  0
 42118  1  0  0  0
 43 44  1  0  0  0
 44119  1  0  0  0
 45 46  2  0  0  0
 45120  1  0  0  0
 46121  1  0  0  0
 47122  1  0  0  0
 47123  1  0  0  0
 48 56  1  0  0  0
 48 65  1  0  0  0
 48124  1  0  0  0
 49 50  1  0  0  0
 49 53  1  0  0  0
 49 64  1  0  0  0
 49125  1  0  0  0
 50 51  1  0  0  0
 50126  1  0  0  0
 50127  1  0  0  0
 51 52  1  0  0  0
 51128  1  0  0  0
 51129  1  0  0  0
 52130  1  0  0  0
 52131  1  0  0  0
 53 54  1  0  0  0
 54 55  2  0  0  0
 54132  1  0  0  0
 55 57  1  0  0  0
 55133  1  0  0  0
 56 69  2  0  0  0
 57 58  2  0  0  0
 57134  1  0  0  0
 58135  1  0  0  0
 59 60  1  0  0  0
 59 61  1  0  0  0
 59 62  1  0  0  0
 60136  1  0  0  0
 60137  1  0  0  0
 60138  1  0  0  0
 61139  1  0  0  0
 61140  1  0  0  0
 61141  1  0  0  0
 62142  1  0  0  0
 62143  1  0  0  0
 62144  1  0  0  0
 63 65  1  0  0  0
 63145  1  0  0  0
 63146  1  0  0  0
 63147  1  0  0  0
 64148  1  0  0  0
 65149  1  0  0  0
 68 85  1  0  0  0
 71 73  1  0  0  0
 71 74  2  0  0  0
 71150  1  0  0  0
 72 73  2  0  0  0
 72 75  1  0  0  0
 72 86  1  0  0  0
 73 90  1  0  0  0
 74 81  1  0  0  0
 74 87  1  0  0  0
 75 87  1  0  0  0
 75 89  2  0  0  0
 76 78  1  0  0  0
 76 80  1  0  0  0
 76151  1  0  0  0
 76152  1  0  0  0
 77 79  1  0  0  0
 77 80  1  0  0  0
 77153  1  0  0  0
 77154  1  0  0  0
 78 88  1  0  0  0
 78155  1  0  0  0
 78156  1  0  0  0
 79 88  1  0  0  0
 79157  1  0  0  0
 79158  1  0  0  0
 80 90  1  0  0  0
 80159  1  0  0  0
 81160  1  0  0  0
 81161  1  0  0  0
 81162  1  0  0  0
 82163  1  0  0  0
 82164  1  0  0  0
 82165  1  0  0  0
 82 86  1  0  0  0
 83 86  1  0  0  0
 83166  1  0  0  0
 83167  1  0  0  0
 83168  1  0  0  0
 84 85  1  0  0  0
 84 87  1  0  0  0
 84169  1  0  0  0
 84170  1  0  0  0
 85171  1  0  0  0
 85172  1  0  0  0
 86173  1  0  0  0
M  ISO  4   1 100  68 101  85 101  88 100
M  END
> <chiral flag>
0

> <version>
0

> <s_m_source_file>
/data/baiqing/PycharmProjects/Reinvent-master-3.2/result/LINK_invent/BTK/process_docking_weight1_custom_sum_contain_oxygen_bond_distance_aromatic_linkinvent_7_9_3/rearranged_h_0166.sdf

> <i_m_source_file_index>
62

> <r_mmod_Potential_Energy-OPLS-2005>
320.331298828125

> <r_mmod_Stretch_Energy-OPLS-2005>
43.6092872619629

> <r_mmod_Bend_Energy-OPLS-2005>
110.921440124512

> <r_mmod_Torsional_Energy-OPLS-2005>
362.227264404297

> <r_mmod_Improper_Torsional_Energy-OPLS-2005>
18.1039657592773

> <r_mmod_Van_der_Waal_Energy-OPLS-2005>
181.755447387695

> <r_mmod_Electrostatic_Energy-OPLS-2005>
-219.902008056641

> <r_mmod_Solvation_Energy-OPLS-2005>
-193.447906494141

> <b_mmod_Minimization_Converged-OPLS-2005>
0

> <r_mmod_RMS_Derivative-OPLS-2005>
2.35671949386597

$$$$
62
                    3D
 Structure written by MMmdl.
170180  0  0  1  0            999 V2000
  -30.7516  -14.3208   20.4940 C   0  0  0  0  0  0
  -30.4179  -12.1445   19.4422 C   0  0  0  0  0  0
  -29.4917  -12.2561   18.2100 C   0  0  0  0  0  0
  -27.9919  -12.3340   18.5982 C   0  0  0  0  0  0
  -27.6555  -13.1692   19.8762 C   0  0  2  0  0  0
  -28.7093  -12.9557   20.9898 C   0  0  0  0  0  0
  -25.2580  -13.8089   20.5723 C   0  0  0  0  0  0
  -24.1796  -13.0411   20.9173 C   0  0  0  0  0  0
  -24.6302  -11.6856   20.8738 C   0  0  0  0  0  0
  -23.8991  -10.4249   21.0431 C   0  0  0  0  0  0
  -24.3571   -9.4158   21.9203 C   0  0  0  0  0  0
  -23.6244   -8.2211   22.0763 C   0  0  0  0  0  0
  -22.4227   -8.0257   21.3560 C   0  0  0  0  0  0
  -21.9845   -9.0229   20.4656 C   0  0  0  0  0  0
  -22.7176  -10.2097   20.3072 C   0  0  0  0  0  0
  -21.6841   -6.0708   22.5279 C   0  0  0  0  0  0
  -21.4004   -6.5622   23.8202 C   0  0  0  0  0  0
  -21.3638   -5.6780   24.9162 C   0  0  0  0  0  0
  -21.6042   -4.3043   24.7218 C   0  0  0  0  0  0
  -21.8842   -3.8134   23.4333 C   0  0  0  0  0  0
  -21.9196   -4.6952   22.3399 C   0  0  0  0  0  0
  -22.7827  -13.5261   21.1856 C   0  0  0  0  0  0
  -22.1676   -4.2155   21.0972 F   0  0  0  0  0  0
  -21.5591   -3.4543   25.7737 F   0  0  0  0  0  0
  -30.0476  -13.1681   20.4177 N   0  0  0  0  0  0
  -26.2974  -12.9161   20.3427 N   0  0  0  0  0  0
  -25.9211  -11.6362   20.5838 N   0  0  0  0  0  0
  -22.0485  -12.8260   22.0444 N   0  0  0  0  0  0
  -25.4312  -15.1815   20.4183 N   0  0  0  0  0  0
  -31.9580  -14.4378   20.2553 O   0  0  0  0  0  0
  -21.6615   -6.8843   21.4239 O   0  0  0  0  0  0
  -22.3505  -14.5562   20.6701 O   0  0  0  0  0  0
  -24.6054  -31.8779   23.2383 C   0  0  0  0  0  0
  -25.8999  -32.4871   23.8571 C   0  0  1  0  0  0
  -27.1792  -27.5179   20.0640 C   0  0  0  0  0  0
  -25.5952  -33.8682   24.2490 N   0  0  0  0  0  0
  -23.3783  -30.5348   21.5758 C   0  0  2  0  0  0
  -24.8000  -29.0391   20.1265 C   0  0  0  0  0  0
  -22.7316  -29.4795   22.5047 C   0  0  0  0  0  0
  -18.0242  -28.1394   22.8478 C   0  0  0  0  0  0
  -24.1475  -36.7366   23.2641 C   0  0  0  0  0  0
  -25.9080  -30.8717   21.3843 C   0  0  0  0  0  0
  -25.9683  -29.5167   20.7364 C   0  0  0  0  0  0
  -27.1537  -28.7584   20.7248 C   0  0  0  0  0  0
  -26.0026  -27.1173   19.3762 C   0  0  0  0  0  0
  -24.8091  -27.8260   19.4503 C   0  0  0  0  0  0
  -23.5706  -29.8975   20.1817 C   0  0  0  0  0  0
  -25.4096  -36.3163   24.0339 C   0  0  1  0  0  0
  -20.5831  -28.3651   23.1337 C   0  0  2  0  0  0
  -20.6752  -26.9403   22.5417 C   0  0  0  0  0  0
  -19.5723  -26.6392   21.5227 C   0  0  0  0  0  0
  -18.1898  -26.7944   22.1602 C   0  0  0  0  0  0
  -19.1499  -28.8819   23.2910 C   0  0  0  0  0  0
  -18.9438  -30.1442   23.8920 C   0  0  0  0  0  0
  -17.6453  -30.6611   24.0547 C   0  0  0  0  0  0
  -25.9015  -34.9499   23.5192 C   0  0  0  0  0  0
  -16.5345  -29.9103   23.6349 C   0  0  0  0  0  0
  -16.7211  -28.6510   23.0343 C   0  0  0  0  0  0
  -26.4493  -31.6601   25.0825 C   0  0  0  0  0  0
  -25.3787  -31.3586   26.1561 C   0  0  0  0  0  0
  -27.0379  -30.3082   24.6174 C   0  0  0  0  0  0
  -27.6108  -32.4314   25.7535 C   0  0  0  0  0  0
  -27.5569  -37.1835   24.8469 C   0  0  0  0  0  0
  -21.4066  -29.3062   22.3771 N   0  0  0  0  0  0
  -26.4286  -37.3850   23.9427 N   0  0  0  0  0  0
  -24.6514  -31.1044   22.1248 N   0  0  0  0  0  0
  -23.4160  -28.8200   23.2919 O   0  0  0  0  0  0
  -28.3607  -26.8086   20.0494 O   0  0  0  0  0  0
  -26.5535  -34.8909   22.4732 O   0  0  0  0  0  0
  -23.5272  -32.1420   23.7906 O   0  0  0  0  0  0
  -27.9994  -19.9335   19.4103 C   0  0  0  0  0  0
  -28.6195  -20.7101   16.7199 C   0  0  0  0  0  0
  -27.6325  -21.1649   18.9059 C   0  0  0  0  0  0
  -28.7924  -19.1208   18.5839 C   0  0  0  0  0  0
  -27.9501  -21.5463   17.6116 C   0  0  0  0  0  0
  -29.0676  -19.4743   17.2203 C   0  0  0  0  0  0
  -27.2734  -22.3393   19.7403 C   0  0  0  0  0  0
  -27.8248  -23.0155   17.4886 C   0  0  0  0  0  0
  -29.3926  -17.7819   20.7384 C   0  0  0  0  0  0
  -28.7259  -16.6939   18.6517 C   0  0  0  0  0  0
  -30.2723  -16.5884   21.1378 C   0  0  0  0  0  0
  -29.7223  -15.6064   18.8877 C   0  0  0  0  0  0
  -29.4105  -17.9132   19.2005 C   0  0  0  0  0  0
  -29.8842  -18.6237   16.2579 C   0  0  0  0  0  0
  -27.5380  -24.7174   19.2004 C   0  0  0  0  0  0
  -28.2869  -25.4136   20.3310 C   0  0  0  0  0  0
  -29.9785  -15.3908   20.3268 N   0  0  0  0  0  0
  -27.9597  -23.3677   18.9231 N   0  3  1  0  0  0
  -31.4635  -12.2145   19.1412 H   0  0  0  0  0  0
  -30.3120  -11.1609   19.9015 H   0  0  0  0  0  0
  -29.6352  -11.3710   17.5922 H   0  0  0  0  0  0
  -29.8046  -13.0478   17.5363 H   0  0  0  0  0  0
  -27.6649  -11.3030   18.7475 H   0  0  0  0  0  0
  -27.4118  -12.7032   17.7484 H   0  0  0  0  0  0
  -27.6605  -14.2187   19.6088 H   0  0  0  0  0  0
  -28.6407  -11.9458   21.3938 H   0  0  0  0  0  0
  -28.5222  -13.6318   21.8227 H   0  0  0  0  0  0
  -25.2735   -9.5615   22.4728 H   0  0  0  0  0  0
  -23.9981   -7.4570   22.7447 H   0  0  0  0  0  0
  -21.0794   -8.8711   19.8898 H   0  0  0  0  0  0
  -22.3691  -10.9622   19.6119 H   0  0  0  0  0  0
  -21.1996   -7.6133   23.9698 H   0  0  0  0  0  0
  -21.1415   -6.0510   25.9058 H   0  0  0  0  0  0
  -22.0645   -2.7606   23.2851 H   0  0  0  0  0  0
  -22.4109  -11.9909   22.4791 H   0  0  0  0  0  0
  -21.1058  -13.1150   22.2619 H   0  0  0  0  0  0
  -24.6648  -15.8351   20.5247 H   0  0  0  0  0  0
  -26.2996  -15.6357   20.1679 H   0  0  0  0  0  0
  -26.7017  -32.5640   23.1291 H   0  0  0  0  0  0
  -25.0171  -33.9871   25.0685 H   0  0  0  0  0  0
  -22.6727  -31.3618   21.4582 H   0  0  0  0  0  0
  -23.3731  -35.9707   23.3316 H   0  0  0  0  0  0
  -24.3558  -36.8980   22.2046 H   0  0  0  0  0  0
  -23.7179  -37.6563   23.6636 H   0  0  0  0  0  0
  -26.0315  -31.6423   20.6184 H   0  0  0  0  0  0
  -26.8001  -30.9091   21.9979 H   0  0  0  0  0  0
  -28.0500  -29.1221   21.2085 H   0  0  0  0  0  0
  -25.9264  -26.3343   18.6541 H   0  0  0  0  0  0
  -23.9371  -27.4851   18.9066 H   0  0  0  0  0  0
  -23.6679  -30.6851   19.4307 H   0  0  0  0  0  0
  -22.6929  -29.3167   19.8835 H   0  0  0  0  0  0
  -25.1244  -36.2073   25.0819 H   0  0  0  0  0  0
  -20.9927  -28.3170   24.1449 H   0  0  0  0  0  0
  -20.5705  -26.2246   23.3584 H   0  0  0  0  0  0
  -21.6621  -26.7501   22.1170 H   0  0  0  0  0  0
  -19.6907  -25.6329   21.1220 H   0  0  0  0  0  0
  -19.6669  -27.3214   20.6791 H   0  0  0  0  0  0
  -17.4182  -26.6660   21.3973 H   0  0  0  0  0  0
  -18.0269  -26.0112   22.8991 H   0  0  0  0  0  0
  -19.7927  -30.7231   24.2316 H   0  0  0  0  0  0
  -17.5017  -31.6315   24.5116 H   0  0  0  0  0  0
  -15.5349  -30.2989   23.7780 H   0  0  0  0  0  0
  -15.8577  -28.0856   22.7097 H   0  0  0  0  0  0
  -24.6048  -30.6833   25.7896 H   0  0  0  0  0  0
  -24.8875  -32.2672   26.5083 H   0  0  0  0  0  0
  -25.8216  -30.8738   27.0267 H   0  0  0  0  0  0
  -26.2930  -29.6755   24.1335 H   0  0  0  0  0  0
  -27.4294  -29.7406   25.4626 H   0  0  0  0  0  0
  -27.8728  -30.4500   23.9305 H   0  0  0  0  0  0
  -27.2818  -33.3664   26.2104 H   0  0  0  0  0  0
  -28.3948  -32.6775   25.0351 H   0  0  0  0  0  0
  -28.0702  -31.8356   26.5410 H   0  0  0  0  0  0
  -28.2606  -38.0129   24.7595 H   0  0  0  0  0  0
  -28.1042  -36.2661   24.6228 H   0  0  0  0  0  0
  -27.2272  -37.1449   25.8871 H   0  0  0  0  0  0
  -20.9156  -29.8841   21.7083 H   0  0  0  0  0  0
  -26.0167  -38.2933   24.1468 H   0  0  0  0  0  0
  -27.8163  -19.7106   20.4505 H   0  0  0  0  0  0
  -28.8983  -21.0491   15.7275 H   0  0  0  0  0  0
  -27.6701  -22.2828   20.7531 H   0  0  0  0  0  0
  -26.1866  -22.4547   19.7798 H   0  0  0  0  0  0
  -26.8500  -23.2868   17.0757 H   0  0  0  0  0  0
  -28.6170  -23.4407   16.8741 H   0  0  0  0  0  0
  -29.7565  -18.6878   21.2260 H   0  0  0  0  0  0
  -28.3775  -17.6192   21.1080 H   0  0  0  0  0  0
  -27.7688  -16.5203   19.1467 H   0  0  0  0  0  0
  -28.5065  -16.7655   17.5885 H   0  0  0  0  0  0
  -30.1411  -16.3641   22.1988 H   0  0  0  0  0  0
  -31.3205  -16.8642   21.0093 H   0  0  0  0  0  0
  -30.6502  -15.8001   18.3446 H   0  0  0  0  0  0
  -29.2828  -14.7548   18.4034 H   0  0  0  0  0  0
  -30.4610  -17.9648   18.9077 H   0  0  0  0  0  0
  -30.6047  -19.2539   15.7334 H   0  0  0  0  0  0
  -29.2276  -18.1815   15.5072 H   0  0  0  0  0  0
  -30.4410  -17.8158   16.7257 H   0  0  0  0  0  0
  -27.7009  -25.2879   18.2840 H   0  0  0  0  0  0
  -26.4777  -24.6310   19.4345 H   0  0  0  0  0  0
  -29.3088  -25.0444   20.4109 H   0  0  0  0  0  0
  -27.8168  -25.2291   21.2984 H   0  0  0  0  0  0
  -28.9441  -23.2812   19.1249 H   0  0  0  0  0  0
  1 25  1  0  0  0
  1 30  2  0  0  0
  1 87  1  0  0  0
  2  3  1  0  0  0
  2 25  1  0  0  0
  2 89  1  0  0  0
  2 90  1  0  0  0
  3  4  1  0  0  0
  3 91  1  0  0  0
  3 92  1  0  0  0
  4  5  1  0  0  0
  4 93  1  0  0  0
  4 94  1  0  0  0
  5  6  1  0  0  0
  5 26  1  0  0  0
  5 95  1  0  0  0
  6 25  1  0  0  0
  6 96  1  0  0  0
  6 97  1  0  0  0
  7  8  2  0  0  0
  7 26  1  0  0  0
  7 29  1  0  0  0
  8  9  1  0  0  0
  8 22  1  0  0  0
  9 10  1  0  0  0
  9 27  2  0  0  0
 10 11  2  0  0  0
 10 15  1  0  0  0
 11 12  1  0  0  0
 11 98  1  0  0  0
 12 13  2  0  0  0
 12 99  1  0  0  0
 13 14  1  0  0  0
 13 31  1  0  0  0
 14 15  2  0  0  0
 14100  1  0  0  0
 15101  1  0  0  0
 16 17  2  0  0  0
 16 21  1  0  0  0
 16 31  1  0  0  0
 17 18  1  0  0  0
 17102  1  0  0  0
 18 19  2  0  0  0
 18103  1  0  0  0
 19 20  1  0  0  0
 19 24  1  0  0  0
 20 21  2  0  0  0
 20104  1  0  0  0
 21 23  1  0  0  0
 22 28  1  0  0  0
 22 32  2  0  0  0
 26 27  1  0  0  0
 28105  1  0  0  0
 28106  1  0  0  0
 29107  1  0  0  0
 29108  1  0  0  0
 33 34  1  0  0  0
 33 66  1  0  0  0
 33 70  2  0  0  0
 34 36  1  0  0  0
 34 59  1  0  0  0
 34109  1  0  0  0
 35 44  2  0  0  0
 35 45  1  0  0  0
 35 68  1  0  0  0
 36 56  1  0  0  0
 36110  1  0  0  0
 37 39  1  0  0  0
 37 47  1  0  0  0
 37 66  1  0  0  0
 37111  1  0  0  0
 38 43  2  0  0  0
 38 46  1  0  0  0
 38 47  1  0  0  0
 39 64  1  0  0  0
 39 67  2  0  0  0
 40 52  1  0  0  0
 40 53  2  0  0  0
 40 58  1  0  0  0
 41112  1  0  0  0
 41113  1  0  0  0
 41114  1  0  0  0
 41 48  1  0  0  0
 42 43  1  0  0  0
 42 66  1  0  0  0
 42115  1  0  0  0
 42116  1  0  0  0
 43 44  1  0  0  0
 44117  1  0  0  0
 45 46  2  0  0  0
 45118  1  0  0  0
 46119  1  0  0  0
 47120  1  0  0  0
 47121  1  0  0  0
 48 56  1  0  0  0
 48 65  1  0  0  0
 48122  1  0  0  0
 49 50  1  0  0  0
 49 53  1  0  0  0
 49 64  1  0  0  0
 49123  1  0  0  0
 50 51  1  0  0  0
 50124  1  0  0  0
 50125  1  0  0  0
 51 52  1  0  0  0
 51126  1  0  0  0
 51127  1  0  0  0
 52128  1  0  0  0
 52129  1  0  0  0
 53 54  1  0  0  0
 54 55  2  0  0  0
 54130  1  0  0  0
 55 57  1  0  0  0
 55131  1  0  0  0
 56 69  2  0  0  0
 57 58  2  0  0  0
 57132  1  0  0  0
 58133  1  0  0  0
 59 60  1  0  0  0
 59 61  1  0  0  0
 59 62  1  0  0  0
 60134  1  0  0  0
 60135  1  0  0  0
 60136  1  0  0  0
 61137  1  0  0  0
 61138  1  0  0  0
 61139  1  0  0  0
 62140  1  0  0  0
 62141  1  0  0  0
 62142  1  0  0  0
 63 65  1  0  0  0
 63143  1  0  0  0
 63144  1  0  0  0
 63145  1  0  0  0
 64146  1  0  0  0
 65147  1  0  0  0
 68 86  1  0  0  0
 71 73  2  0  0  0
 71 74  1  0  0  0
 71148  1  0  0  0
 72 75  2  0  0  0
 72 76  1  0  0  0
 72149  1  0  0  0
 73 75  1  0  0  0
 73 77  1  0  0  0
 74 76  2  0  0  0
 74 83  1  0  0  0
 75 78  1  0  0  0
 76 84  1  0  0  0
 77 88  1  0  0  0
 77150  1  0  0  0
 77151  1  0  0  0
 78 88  1  0  0  0
 78152  1  0  0  0
 78153  1  0  0  0
 79 81  1  0  0  0
 79 83  1  0  0  0
 79154  1  0  0  0
 79155  1  0  0  0
 80 82  1  0  0  0
 80 83  1  0  0  0
 80156  1  0  0  0
 80157  1  0  0  0
 81 87  1  0  0  0
 81158  1  0  0  0
 81159  1  0  0  0
 82 87  1  0  0  0
 82160  1  0  0  0
 82161  1  0  0  0
 83162  1  0  0  0
 84163  1  0  0  0
 84164  1  0  0  0
 84165  1  0  0  0
 85 86  1  0  0  0
 85166  1  0  0  0
 85167  1  0  0  0
 85 88  1  0  0  0
 86168  1  0  0  0
 86169  1  0  0  0
 88170  1  0  0  0
M  CHG  1  88   1
M  ISO  4   1 100  68 101  86 101  87 100
M  END
> <chiral flag>
0

> <version>
0

> <s_m_source_file>
/data/baiqing/PycharmProjects/Reinvent-master-3.2/result/LINK_invent/BTK/process_docking_weight1_custom_sum_contain_oxygen_bond_distance_aromatic_linkinvent_7_9_3/rearranged_h_0166.sdf

> <i_m_source_file_index>
63

> <r_mmod_Potential_Energy-OPLS-2005>
298.081420898438

> <r_mmod_Stretch_Energy-OPLS-2005>
42.098030090332

> <r_mmod_Bend_Energy-OPLS-2005>
197.182418823242

> <r_mmod_Torsional_Energy-OPLS-2005>
388.632263183594

> <r_mmod_Improper_Torsional_Energy-OPLS-2005>
26.3746395111084

> <r_mmod_Van_der_Waal_Energy-OPLS-2005>
227.910888671875

> <r_mmod_Electrostatic_Energy-OPLS-2005>
-216.005325317383

> <r_mmod_Solvation_Energy-OPLS-2005>
-410.900604248047

> <b_mmod_Minimization_Converged-OPLS-2005>
0

> <r_mmod_RMS_Derivative-OPLS-2005>
6.53406572341919

$$$$
63
                    3D
 Structure written by MMmdl.
181190  0  0  1  0            999 V2000
  -30.7382  -14.7117   20.4983 C   0  0  0  0  0  0
  -30.3930  -12.4579   19.4742 C   0  0  0  0  0  0
  -29.4838  -12.5091   18.2319 C   0  0  0  0  0  0
  -28.0178  -12.3228   18.6534 C   0  0  0  0  0  0
  -27.6271  -13.2367   19.8427 C   0  0  2  0  0  0
  -28.6775  -13.2187   20.9811 C   0  0  0  0  0  0
  -25.2427  -13.8223   20.5728 C   0  0  0  0  0  0
  -24.1742  -13.0443   20.9254 C   0  0  0  0  0  0
  -24.6355  -11.6933   20.8778 C   0  0  0  0  0  0
  -23.9061  -10.4304   21.0420 C   0  0  0  0  0  0
  -24.3617   -9.4226   21.9198 C   0  0  0  0  0  0
  -23.6289   -8.2259   22.0773 C   0  0  0  0  0  0
  -22.4276   -8.0285   21.3553 C   0  0  0  0  0  0
  -21.9906   -9.0260   20.4656 C   0  0  0  0  0  0
  -22.7236  -10.2137   20.3071 C   0  0  0  0  0  0
  -21.6860   -6.0733   22.5279 C   0  0  0  0  0  0
  -21.4020   -6.5647   23.8206 C   0  0  0  0  0  0
  -21.3663   -5.6806   24.9169 C   0  0  0  0  0  0
  -21.6042   -4.3065   24.7223 C   0  0  0  0  0  0
  -21.8828   -3.8149   23.4345 C   0  0  0  0  0  0
  -21.9199   -4.6960   22.3400 C   0  0  0  0  0  0
  -22.7775  -13.5208   21.1903 C   0  0  0  0  0  0
  -22.1674   -4.2148   21.0975 F   0  0  0  0  0  0
  -21.5621   -3.4542   25.7735 F   0  0  0  0  0  0
  -29.9767  -13.5601   20.3870 N   0  0  0  0  0  0
  -26.2853  -12.9441   20.3304 N   0  0  0  0  0  0
  -25.9280  -11.6580   20.5785 N   0  0  0  0  0  0
  -22.0421  -12.8176   22.0457 N   0  0  0  0  0  0
  -25.4047  -15.1943   20.4132 N   0  0  0  0  0  0
  -31.9154  -14.6316   20.1389 O   0  0  0  0  0  0
  -21.6647   -6.8872   21.4243 O   0  0  0  0  0  0
  -22.3450  -14.5496   20.6726 O   0  0  0  0  0  0
  -24.6333  -31.8579   23.2042 C   0  0  0  0  0  0
  -25.9169  -32.4761   23.8373 C   0  0  1  0  0  0
  -27.2112  -27.2626   20.1229 C   0  0  0  0  0  0
  -25.5971  -33.8564   24.2289 N   0  0  0  0  0  0
  -23.4278  -30.4863   21.5493 C   0  0  2  0  0  0
  -24.8730  -28.9456   20.1108 C   0  0  0  0  0  0
  -22.7509  -29.4625   22.4932 C   0  0  0  0  0  0
  -18.0295  -28.1391   22.8489 C   0  0  0  0  0  0
  -24.1498  -36.7263   23.2638 C   0  0  0  0  0  0
  -25.9791  -30.7699   21.3882 C   0  0  0  0  0  0
  -26.0497  -29.3968   20.7231 C   0  0  0  0  0  0
  -27.2219  -28.5689   20.7221 C   0  0  0  0  0  0
  -26.0045  -26.8997   19.4680 C   0  0  0  0  0  0
  -24.8560  -27.7026   19.4740 C   0  0  0  0  0  0
  -23.6444  -29.8306   20.1628 C   0  0  0  0  0  0
  -25.4124  -36.3070   24.0335 C   0  0  1  0  0  0
  -20.5902  -28.3704   23.1265 C   0  0  2  0  0  0
  -20.6776  -26.9423   22.5406 C   0  0  0  0  0  0
  -19.5751  -26.6382   21.5213 C   0  0  0  0  0  0
  -18.1933  -26.7931   22.1630 C   0  0  0  0  0  0
  -19.1554  -28.8866   23.2868 C   0  0  0  0  0  0
  -18.9474  -30.1466   23.8876 C   0  0  0  0  0  0
  -17.6475  -30.6584   24.0571 C   0  0  0  0  0  0
  -25.9070  -34.9437   23.5105 C   0  0  0  0  0  0
  -16.5359  -29.9090   23.6338 C   0  0  0  0  0  0
  -16.7279  -28.6504   23.0367 C   0  0  0  0  0  0
  -26.4531  -31.6571   25.0752 C   0  0  0  0  0  0
  -25.3741  -31.3697   26.1454 C   0  0  0  0  0  0
  -27.0403  -30.2994   24.6247 C   0  0  0  0  0  0
  -27.6082  -32.4315   25.7522 C   0  0  0  0  0  0
  -27.5598  -37.1782   24.8463 C   0  0  0  0  0  0
  -21.4216  -29.3047   22.3647 N   0  0  0  0  0  0
  -26.4290  -37.3781   23.9427 N   0  0  0  0  0  0
  -24.6993  -31.0552   22.1024 N   0  0  0  0  0  0
  -23.4213  -28.8159   23.3023 O   0  0  0  0  0  0
  -28.2795  -26.3255   20.2020 O   0  0  0  0  0  0
  -26.5637  -34.8910   22.4674 O   0  0  0  0  0  0
  -23.5486  -32.1408   23.7343 O   0  0  0  0  0  0
  -29.4259  -20.6938   20.7846 C   0  0  0  0  0  0
  -29.3315  -21.2418   19.4594 C   0  0  0  0  0  0
  -29.3134  -21.6811   21.8488 C   0  0  0  0  0  0
  -29.0520  -22.6357   19.2114 C   0  0  0  0  0  0
  -28.9343  -23.0626   21.5778 C   0  0  0  0  0  0
  -28.7369  -23.5604   20.2552 C   0  0  0  0  0  0
  -28.5912  -18.0436   20.7279 C   0  0  0  0  0  0
  -31.0152  -18.4829   20.5749 C   0  0  0  0  0  0
  -28.8948  -16.5201   21.1118 C   0  0  0  0  0  0
  -31.2603  -17.0649   21.2022 C   0  0  0  0  0  0
  -29.6909  -19.1160   21.0653 C   0  0  0  0  0  0
  -29.5352  -20.3453   18.2366 C   0  0  0  0  0  0
  -29.0649  -23.1513   17.7702 C   0  0  0  0  0  0
  -28.7176  -24.0587   22.7225 C   0  0  0  0  0  0
  -31.1476  -20.9191   23.4717 C   0  0  0  0  0  0
  -27.4228  -21.1799   24.5832 C   0  0  0  0  0  0
  -29.2018  -19.4990   25.1330 C   0  0  0  0  0  0
  -27.9040  -24.8943   19.9334 C   0  0  0  0  0  0
  -29.6540  -21.3016   23.3182 C   0  0  2  0  0  0
  -28.6039  -20.3757   24.0160 C   0  0  0  0  0  0
  -30.2690  -15.9884   20.8642 N   0  0  0  0  0  0
  -31.4362  -12.5167   19.1606 H   0  0  0  0  0  0
  -30.2985  -11.4931   19.9735 H   0  0  0  0  0  0
  -29.7658  -11.7332   17.5186 H   0  0  0  0  0  0
  -29.6056  -13.4644   17.7192 H   0  0  0  0  0  0
  -27.8880  -11.2770   18.9339 H   0  0  0  0  0  0
  -27.3509  -12.4958   17.8063 H   0  0  0  0  0  0
  -27.5991  -14.2366   19.4144 H   0  0  0  0  0  0
  -28.7166  -12.2356   21.4514 H   0  0  0  0  0  0
  -28.4099  -13.9161   21.7751 H   0  0  0  0  0  0
  -25.2765   -9.5701   22.4760 H   0  0  0  0  0  0
  -24.0009   -7.4647   22.7487 H   0  0  0  0  0  0
  -21.0851   -8.8768   19.8937 H   0  0  0  0  0  0
  -22.3700  -10.9671   19.6180 H   0  0  0  0  0  0
  -21.2026   -7.6154   23.9706 H   0  0  0  0  0  0
  -21.1472   -6.0535   25.9074 H   0  0  0  0  0  0
  -22.0597   -2.7610   23.2845 H   0  0  0  0  0  0
  -22.4056  -11.9852   22.4854 H   0  0  0  0  0  0
  -21.1026  -13.1161   22.2631 H   0  0  0  0  0  0
  -24.6279  -15.8380   20.5234 H   0  0  0  0  0  0
  -26.2458  -15.6442   20.0763 H   0  0  0  0  0  0
  -26.7244  -32.5408   23.1125 H   0  0  0  0  0  0
  -25.0131  -33.9696   25.0445 H   0  0  0  0  0  0
  -22.7232  -31.3091   21.4089 H   0  0  0  0  0  0
  -23.3796  -35.9556   23.3245 H   0  0  0  0  0  0
  -24.3586  -36.8952   22.2065 H   0  0  0  0  0  0
  -23.7206  -37.6426   23.6696 H   0  0  0  0  0  0
  -26.1292  -31.5356   20.6259 H   0  0  0  0  0  0
  -26.8524  -30.8074   22.0269 H   0  0  0  0  0  0
  -28.1151  -28.9074   21.2284 H   0  0  0  0  0  0
  -25.8789  -25.9612   18.9545 H   0  0  0  0  0  0
  -23.9579  -27.3460   18.9876 H   0  0  0  0  0  0
  -23.7673  -30.6109   19.4108 H   0  0  0  0  0  0
  -22.7629  -29.2647   19.8565 H   0  0  0  0  0  0
  -25.1295  -36.1919   25.0826 H   0  0  0  0  0  0
  -21.0007  -28.3298   24.1385 H   0  0  0  0  0  0
  -20.5681  -26.2324   23.3617 H   0  0  0  0  0  0
  -21.6639  -26.7439   22.1201 H   0  0  0  0  0  0
  -19.6903  -25.6293   21.1245 H   0  0  0  0  0  0
  -19.6673  -27.3182   20.6737 H   0  0  0  0  0  0
  -17.4203  -26.6710   21.4024 H   0  0  0  0  0  0
  -18.0313  -26.0053   22.9009 H   0  0  0  0  0  0
  -19.7947  -30.7295   24.2232 H   0  0  0  0  0  0
  -17.5024  -31.6256   24.5190 H   0  0  0  0  0  0
  -15.5358  -30.2996   23.7636 H   0  0  0  0  0  0
  -15.8683  -28.0799   22.7111 H   0  0  0  0  0  0
  -24.5948  -30.7018   25.7765 H   0  0  0  0  0  0
  -24.8887  -32.2846   26.4854 H   0  0  0  0  0  0
  -25.8059  -30.8894   27.0243 H   0  0  0  0  0  0
  -26.3005  -29.6720   24.1262 H   0  0  0  0  0  0
  -27.4084  -29.7280   25.4778 H   0  0  0  0  0  0
  -27.8884  -30.4272   23.9516 H   0  0  0  0  0  0
  -27.2696  -33.3633   26.2061 H   0  0  0  0  0  0
  -28.3904  -32.6845   25.0350 H   0  0  0  0  0  0
  -28.0731  -31.8457   26.5463 H   0  0  0  0  0  0
  -28.2567  -38.0135   24.7601 H   0  0  0  0  0  0
  -28.1149  -36.2664   24.6181 H   0  0  0  0  0  0
  -27.2309  -37.1304   25.8863 H   0  0  0  0  0  0
  -20.9412  -29.8792   21.6860 H   0  0  0  0  0  0
  -26.0168  -38.2846   24.1470 H   0  0  0  0  0  0
  -27.6650  -18.3378   21.2237 H   0  0  0  0  0  0
  -28.3458  -18.0591   19.6709 H   0  0  0  0  0  0
  -31.0582  -18.4066   19.4908 H   0  0  0  0  0  0
  -31.8432  -19.1362   20.8538 H   0  0  0  0  0  0
  -28.1720  -15.9128   20.5823 H   0  0  0  0  0  0
  -28.6822  -16.3738   22.1716 H   0  0  0  0  0  0
  -31.2702  -17.1586   22.2895 H   0  0  0  0  0  0
  -32.2855  -16.7888   20.9539 H   0  0  0  0  0  0
  -29.7745  -19.0146   22.1357 H   0  0  0  0  0  0
  -29.4119  -19.2886   18.4200 H   0  0  0  0  0  0
  -30.5368  -20.4845   17.8283 H   0  0  0  0  0  0
  -28.8101  -20.5716   17.4550 H   0  0  0  0  0  0
  -29.7918  -22.6366   17.1429 H   0  0  0  0  0  0
  -29.3612  -24.1995   17.7264 H   0  0  0  0  0  0
  -28.0803  -23.0467   17.3134 H   0  0  0  0  0  0
  -29.6425  -24.2253   23.2754 H   0  0  0  0  0  0
  -27.9528  -23.7082   23.4128 H   0  0  0  0  0  0
  -28.3998  -25.0446   22.3957 H   0  0  0  0  0  0
  -31.7782  -21.6846   23.0187 H   0  0  0  0  0  0
  -31.4256  -19.9710   23.0201 H   0  0  0  0  0  0
  -31.4413  -20.8684   24.5200 H   0  0  0  0  0  0
  -26.6718  -20.5246   25.0249 H   0  0  0  0  0  0
  -26.9228  -21.7502   23.8011 H   0  0  0  0  0  0
  -27.7474  -21.8754   25.3592 H   0  0  0  0  0  0
  -28.4377  -18.8814   25.6063 H   0  0  0  0  0  0
  -29.6546  -20.1106   25.9153 H   0  0  0  0  0  0
  -29.9645  -18.8207   24.7490 H   0  0  0  0  0  0
  -26.9766  -24.7083   20.4773 H   0  0  0  0  0  0
  -27.6216  -24.8523   18.8860 H   0  0  0  0  0  0
  -29.6433  -22.1897   23.9400 H   0  0  0  0  0  0
  -28.1673  -19.6953   23.2880 H   0  0  0  0  0  0
  1 25  1  0  0  0
  1 30  2  0  0  0
  1 91  1  0  0  0
  2  3  1  0  0  0
  2 25  1  0  0  0
  2 92  1  0  0  0
  2 93  1  0  0  0
  3  4  1  0  0  0
  3 94  1  0  0  0
  3 95  1  0  0  0
  4  5  1  0  0  0
  4 96  1  0  0  0
  4 97  1  0  0  0
  5  6  1  0  0  0
  5 26  1  0  0  0
  5 98  1  0  0  0
  6 25  1  0  0  0
  6 99  1  0  0  0
  6100  1  0  0  0
  7  8  2  0  0  0
  7 26  1  0  0  0
  7 29  1  0  0  0
  8  9  1  0  0  0
  8 22  1  0  0  0
  9 10  1  0  0  0
  9 27  2  0  0  0
 10 11  2  0  0  0
 10 15  1  0  0  0
 11 12  1  0  0  0
 11101  1  0  0  0
 12 13  2  0  0  0
 12102  1  0  0  0
 13 14  1  0  0  0
 13 31  1  0  0  0
 14 15  2  0  0  0
 14103  1  0  0  0
 15104  1  0  0  0
 16 17  2  0  0  0
 16 21  1  0  0  0
 16 31  1  0  0  0
 17 18  1  0  0  0
 17105  1  0  0  0
 18 19  2  0  0  0
 18106  1  0  0  0
 19 20  1  0  0  0
 19 24  1  0  0  0
 20 21  2  0  0  0
 20107  1  0  0  0
 21 23  1  0  0  0
 22 28  1  0  0  0
 22 32  2  0  0  0
 26 27  1  0  0  0
 28108  1  0  0  0
 28109  1  0  0  0
 29110  1  0  0  0
 29111  1  0  0  0
 33 34  1  0  0  0
 33 66  1  0  0  0
 33 70  2  0  0  0
 34 36  1  0  0  0
 34 59  1  0  0  0
 34112  1  0  0  0
 35 44  2  0  0  0
 35 45  1  0  0  0
 35 68  1  0  0  0
 36 56  1  0  0  0
 36113  1  0  0  0
 37 39  1  0  0  0
 37 47  1  0  0  0
 37 66  1  0  0  0
 37114  1  0  0  0
 38 43  2  0  0  0
 38 46  1  0  0  0
 38 47  1  0  0  0
 39 64  1  0  0  0
 39 67  2  0  0  0
 40 52  1  0  0  0
 40 53  2  0  0  0
 40 58  1  0  0  0
 41115  1  0  0  0
 41116  1  0  0  0
 41117  1  0  0  0
 41 48  1  0  0  0
 42 43  1  0  0  0
 42 66  1  0  0  0
 42118  1  0  0  0
 42119  1  0  0  0
 43 44  1  0  0  0
 44120  1  0  0  0
 45 46  2  0  0  0
 45121  1  0  0  0
 46122  1  0  0  0
 47123  1  0  0  0
 47124  1  0  0  0
 48 56  1  0  0  0
 48 65  1  0  0  0
 48125  1  0  0  0
 49 50  1  0  0  0
 49 53  1  0  0  0
 49 64  1  0  0  0
 49126  1  0  0  0
 50 51  1  0  0  0
 50127  1  0  0  0
 50128  1  0  0  0
 51 52  1  0  0  0
 51129  1  0  0  0
 51130  1  0  0  0
 52131  1  0  0  0
 52132  1  0  0  0
 53 54  1  0  0  0
 54 55  2  0  0  0
 54133  1  0  0  0
 55 57  1  0  0  0
 55134  1  0  0  0
 56 69  2  0  0  0
 57 58  2  0  0  0
 57135  1  0  0  0
 58136  1  0  0  0
 59 60  1  0  0  0
 59 61  1  0  0  0
 59 62  1  0  0  0
 60137  1  0  0  0
 60138  1  0  0  0
 60139  1  0  0  0
 61140  1  0  0  0
 61141  1  0  0  0
 61142  1  0  0  0
 62143  1  0  0  0
 62144  1  0  0  0
 62145  1  0  0  0
 63 65  1  0  0  0
 63146  1  0  0  0
 63147  1  0  0  0
 63148  1  0  0  0
 64149  1  0  0  0
 65150  1  0  0  0
 68 88  1  0  0  0
 71 72  2  0  0  0
 71 73  1  0  0  0
 71 81  1  0  0  0
 72 74  1  0  0  0
 72 82  1  0  0  0
 73 75  2  0  0  0
 73 89  1  0  0  0
 74 76  2  0  0  0
 74 83  1  0  0  0
 75 76  1  0  0  0
 75 84  1  0  0  0
 76 88  1  0  0  0
 77 79  1  0  0  0
 77 81  1  0  0  0
 77151  1  0  0  0
 77152  1  0  0  0
 78 80  1  0  0  0
 78 81  1  0  0  0
 78153  1  0  0  0
 78154  1  0  0  0
 79 91  1  0  0  0
 79155  1  0  0  0
 79156  1  0  0  0
 80 91  1  0  0  0
 80157  1  0  0  0
 80158  1  0  0  0
 81159  1  0  0  0
 82160  1  0  0  0
 82161  1  0  0  0
 82162  1  0  0  0
 83163  1  0  0  0
 83164  1  0  0  0
 83165  1  0  0  0
 84166  1  0  0  0
 84167  1  0  0  0
 84168  1  0  0  0
 85169  1  0  0  0
 85170  1  0  0  0
 85171  1  0  0  0
 85 89  1  0  0  0
 86172  1  0  0  0
 86173  1  0  0  0
 86174  1  0  0  0
 86 90  1  0  0  0
 87 90  1  0  0  0
 87175  1  0  0  0
 87176  1  0  0  0
 87177  1  0  0  0
 88178  1  0  0  0
 88179  1  0  0  0
 89 90  1  0  0  0
 89180  1  0  0  0
 90181  1  0  0  0
M  ISO  4   1 100  68 101  88 101  91 100
M  END
> <chiral flag>
0

> <version>
0

> <s_m_source_file>
/data/baiqing/PycharmProjects/Reinvent-master-3.2/result/LINK_invent/BTK/process_docking_weight1_custom_sum_contain_oxygen_bond_distance_aromatic_linkinvent_7_9_3/rearranged_h_0166.sdf

> <i_m_source_file_index>
64

> <r_mmod_Potential_Energy-OPLS-2005>
520.932189941406

> <r_mmod_Stretch_Energy-OPLS-2005>
145.695236206055

> <r_mmod_Bend_Energy-OPLS-2005>
243.994903564453

> <r_mmod_Torsional_Energy-OPLS-2005>
338.984985351562

> <r_mmod_Improper_Torsional_Energy-OPLS-2005>
4.95470237731934

> <r_mmod_Van_der_Waal_Energy-OPLS-2005>
199.37336730957

> <r_mmod_Electrostatic_Energy-OPLS-2005>
-311.712310791016

> <r_mmod_Solvation_Energy-OPLS-2005>
-189.264083862305

> <b_mmod_Minimization_Converged-OPLS-2005>
0

> <r_mmod_RMS_Derivative-OPLS-2005>
2.26925563812256

$$$$
64
                    3D
 Structure written by MMmdl.
188198  0  0  1  0            999 V2000
  -30.6678  -14.5963   20.5416 C   0  0  0  0  0  0
  -30.4234  -12.3827   19.4350 C   0  0  0  0  0  0
  -29.4981  -12.5004   18.2071 C   0  0  0  0  0  0
  -28.0189  -12.3523   18.6187 C   0  0  0  0  0  0
  -27.6459  -13.2205   19.8515 C   0  0  2  0  0  0
  -28.6902  -13.0804   20.9774 C   0  0  0  0  0  0
  -25.2541  -13.8184   20.5675 C   0  0  0  0  0  0
  -24.1815  -13.0445   20.9192 C   0  0  0  0  0  0
  -24.6381  -11.6917   20.8733 C   0  0  0  0  0  0
  -23.9057  -10.4297   21.0407 C   0  0  0  0  0  0
  -24.3614   -9.4219   21.9190 C   0  0  0  0  0  0
  -23.6297   -8.2251   22.0755 C   0  0  0  0  0  0
  -22.4279   -8.0278   21.3543 C   0  0  0  0  0  0
  -21.9917   -9.0246   20.4636 C   0  0  0  0  0  0
  -22.7240  -10.2132   20.3049 C   0  0  0  0  0  0
  -21.6854   -6.0738   22.5283 C   0  0  0  0  0  0
  -21.4011   -6.5637   23.8212 C   0  0  0  0  0  0
  -21.3660   -5.6793   24.9172 C   0  0  0  0  0  0
  -21.6044   -4.3058   24.7226 C   0  0  0  0  0  0
  -21.8821   -3.8149   23.4345 C   0  0  0  0  0  0
  -21.9192   -4.6964   22.3403 C   0  0  0  0  0  0
  -22.7839  -13.5238   21.1855 C   0  0  0  0  0  0
  -22.1663   -4.2151   21.0984 F   0  0  0  0  0  0
  -21.5627   -3.4540   25.7739 F   0  0  0  0  0  0
  -29.9997  -13.4122   20.4016 N   0  0  0  0  0  0
  -26.2946  -12.9370   20.3257 N   0  0  0  0  0  0
  -25.9304  -11.6518   20.5719 N   0  0  0  0  0  0
  -22.0467  -12.8211   22.0385 N   0  0  0  0  0  0
  -25.4271  -15.1908   20.4087 N   0  0  0  0  0  0
  -31.8405  -14.7216   20.1811 O   0  0  0  0  0  0
  -21.6636   -6.8883   21.4244 O   0  0  0  0  0  0
  -22.3533  -14.5555   20.6723 O   0  0  0  0  0  0
  -24.6271  -31.8606   23.2021 C   0  0  0  0  0  0
  -25.9122  -32.4777   23.8347 C   0  0  1  0  0  0
  -27.2131  -27.3255   20.0948 C   0  0  0  0  0  0
  -25.5946  -33.8571   24.2301 N   0  0  0  0  0  0
  -23.4161  -30.4886   21.5442 C   0  0  2  0  0  0
  -24.8569  -28.9428   20.1114 C   0  0  0  0  0  0
  -22.7453  -29.4647   22.4911 C   0  0  0  0  0  0
  -18.0284  -28.1371   22.8481 C   0  0  0  0  0  0
  -24.1478  -36.7286   23.2640 C   0  0  0  0  0  0
  -25.9564  -30.7939   21.3663 C   0  0  0  0  0  0
  -26.0270  -29.4210   20.7104 C   0  0  0  0  0  0
  -27.2073  -28.6231   20.6925 C   0  0  0  0  0  0
  -26.0082  -26.8877   19.4973 C   0  0  0  0  0  0
  -24.8470  -27.6795   19.5031 C   0  0  0  0  0  0
  -23.6294  -29.8253   20.1589 C   0  0  0  0  0  0
  -25.4103  -36.3070   24.0326 C   0  0  1  0  0  0
  -20.5886  -28.3688   23.1265 C   0  0  2  0  0  0
  -20.6780  -26.9408   22.5399 C   0  0  0  0  0  0
  -19.5755  -26.6373   21.5195 C   0  0  0  0  0  0
  -18.1926  -26.7914   22.1605 C   0  0  0  0  0  0
  -19.1543  -28.8840   23.2872 C   0  0  0  0  0  0
  -18.9462  -30.1425   23.8910 C   0  0  0  0  0  0
  -17.6470  -30.6584   24.0557 C   0  0  0  0  0  0
  -25.9044  -34.9435   23.5110 C   0  0  0  0  0  0
  -16.5358  -29.9091   23.6318 C   0  0  0  0  0  0
  -16.7272  -28.6499   23.0359 C   0  0  0  0  0  0
  -26.4514  -31.6568   25.0687 C   0  0  0  0  0  0
  -25.3760  -31.3657   26.1427 C   0  0  0  0  0  0
  -27.0391  -30.3024   24.6092 C   0  0  0  0  0  0
  -27.6068  -32.4307   25.7482 C   0  0  0  0  0  0
  -27.5563  -37.1796   24.8464 C   0  0  0  0  0  0
  -21.4171  -29.3071   22.3666 N   0  0  0  0  0  0
  -26.4280  -37.3765   23.9405 N   0  0  0  0  0  0
  -24.6862  -31.0632   22.0955 N   0  0  0  0  0  0
  -23.4193  -28.8165   23.2958 O   0  0  0  0  0  0
  -28.3648  -26.5284   20.1228 O   0  0  0  0  0  0
  -26.5592  -34.8892   22.4661 O   0  0  0  0  0  0
  -23.5452  -32.1414   23.7354 O   0  0  0  0  0  0
  -34.5955  -21.3747   22.7938 C   0  0  0  0  0  0
  -34.4593  -23.1651   24.9534 C   0  0  0  0  0  0
  -33.6279  -21.1727   23.8031 C   0  0  0  0  0  0
  -33.5600  -22.0812   24.8897 C   0  0  0  0  0  0
  -35.4232  -23.3621   23.9447 C   0  0  0  0  0  0
  -35.4871  -22.4625   22.8584 C   0  0  0  0  0  0
  -30.4633  -19.0450   20.3264 C   0  0  0  0  0  0
  -28.8966  -18.9582   21.7075 C   0  0  0  0  0  0
  -32.6514  -18.9025   22.6381 C   0  0  0  0  0  0
  -31.2428  -20.3037   23.1076 C   0  0  0  0  0  0
  -32.6253  -20.0306   23.6794 C   0  0  2  0  0  0
  -29.2168  -19.9743   20.5569 C   0  0  1  0  0  0
  -30.3187  -18.3005   21.6986 C   0  0  1  0  0  0
  -32.5263  -21.9275   25.9944 C   0  0  0  0  0  0
  -36.3761  -24.5398   24.0371 C   0  0  0  0  0  0
  -29.9719  -16.3030   23.3093 C   0  0  0  0  0  0
  -27.1890  -24.0387   21.5824 C   0  0  0  0  0  0
  -29.3480  -21.5464   20.8342 C   0  0  0  0  0  0
  -28.3989  -25.1451   19.5978 C   0  0  0  0  0  0
  -30.5067  -16.7142   21.9146 C   0  0  1  0  0  0
  -28.4085  -23.9485   20.6457 C   0  0  2  0  0  0
  -29.9575  -15.6748   20.9938 N   0  0  0  0  0  0
  -31.1879  -18.8748   22.7981 N   0  3  1  0  0  0
  -28.5070  -22.5401   20.0610 N   0  3  0  0  0  0
  -36.6422  -22.6807   21.5918 Cl  0  0  0  0  0  0
  -31.4671  -12.4963   19.1362 H   0  0  0  0  0  0
  -30.3457  -11.3907   19.8840 H   0  0  0  0  0  0
  -29.7575  -11.7422   17.4670 H   0  0  0  0  0  0
  -29.6493  -13.4663   17.7225 H   0  0  0  0  0  0
  -27.8426  -11.2990   18.8403 H   0  0  0  0  0  0
  -27.3687  -12.5956   17.7764 H   0  0  0  0  0  0
  -27.6625  -14.2561   19.5105 H   0  0  0  0  0  0
  -28.6988  -12.0615   21.3664 H   0  0  0  0  0  0
  -28.4402  -13.7212   21.8243 H   0  0  0  0  0  0
  -25.2753   -9.5695   22.4766 H   0  0  0  0  0  0
  -23.9998   -7.4642   22.7484 H   0  0  0  0  0  0
  -21.0849   -8.8765   19.8936 H   0  0  0  0  0  0
  -22.3705  -10.9666   19.6146 H   0  0  0  0  0  0
  -21.2002   -7.6140   23.9716 H   0  0  0  0  0  0
  -21.1480   -6.0521   25.9080 H   0  0  0  0  0  0
  -22.0601   -2.7611   23.2846 H   0  0  0  0  0  0
  -22.4057  -11.9841   22.4735 H   0  0  0  0  0  0
  -21.1076  -13.1231   22.2566 H   0  0  0  0  0  0
  -24.6605  -15.8478   20.5086 H   0  0  0  0  0  0
  -26.2704  -15.6226   20.0522 H   0  0  0  0  0  0
  -26.7168  -32.5469   23.1073 H   0  0  0  0  0  0
  -25.0123  -33.9702   25.0477 H   0  0  0  0  0  0
  -22.7098  -31.3084   21.4007 H   0  0  0  0  0  0
  -23.3728  -35.9636   23.3315 H   0  0  0  0  0  0
  -24.3567  -36.8915   22.2053 H   0  0  0  0  0  0
  -23.7243  -37.6492   23.6677 H   0  0  0  0  0  0
  -26.0726  -31.5524   20.5910 H   0  0  0  0  0  0
  -26.8426  -30.8512   21.9867 H   0  0  0  0  0  0
  -28.1098  -28.9895   21.1615 H   0  0  0  0  0  0
  -25.9058  -25.9222   19.0300 H   0  0  0  0  0  0
  -23.9436  -27.3033   19.0416 H   0  0  0  0  0  0
  -23.7539  -30.6026   19.4038 H   0  0  0  0  0  0
  -22.7502  -29.2579   19.8518 H   0  0  0  0  0  0
  -25.1274  -36.1916   25.0821 H   0  0  0  0  0  0
  -20.9969  -28.3268   24.1388 H   0  0  0  0  0  0
  -20.5649  -26.2296   23.3599 H   0  0  0  0  0  0
  -21.6649  -26.7433   22.1202 H   0  0  0  0  0  0
  -19.6912  -25.6277   21.1235 H   0  0  0  0  0  0
  -19.6698  -27.3170   20.6711 H   0  0  0  0  0  0
  -17.4199  -26.6659   21.4001 H   0  0  0  0  0  0
  -18.0333  -26.0037   22.8989 H   0  0  0  0  0  0
  -19.7943  -30.7214   24.2312 H   0  0  0  0  0  0
  -17.5045  -31.6273   24.5140 H   0  0  0  0  0  0
  -15.5366  -30.3015   23.7631 H   0  0  0  0  0  0
  -15.8663  -28.0821   22.7100 H   0  0  0  0  0  0
  -24.5980  -30.6944   25.7766 H   0  0  0  0  0  0
  -24.8880  -32.2790   26.4849 H   0  0  0  0  0  0
  -25.8108  -30.8871   27.0211 H   0  0  0  0  0  0
  -26.2983  -29.6734   24.1152 H   0  0  0  0  0  0
  -27.4193  -29.7295   25.4563 H   0  0  0  0  0  0
  -27.8778  -30.4358   23.9251 H   0  0  0  0  0  0
  -27.2710  -33.3656   26.1988 H   0  0  0  0  0  0
  -28.3940  -32.6786   25.0344 H   0  0  0  0  0  0
  -28.0663  -31.8457   26.5471 H   0  0  0  0  0  0
  -28.2560  -38.0107   24.7535 H   0  0  0  0  0  0
  -28.1077  -36.2634   24.6288 H   0  0  0  0  0  0
  -27.2274  -37.1453   25.8865 H   0  0  0  0  0  0
  -20.9320  -29.8857   21.6949 H   0  0  0  0  0  0
  -26.0146  -38.2831   24.1441 H   0  0  0  0  0  0
  -34.6611  -20.7090   21.9463 H   0  0  0  0  0  0
  -34.4049  -23.8582   25.7821 H   0  0  0  0  0  0
  -31.3934  -19.5865   20.1612 H   0  0  0  0  0  0
  -30.3006  -18.3611   19.4902 H   0  0  0  0  0  0
  -28.1281  -18.2437   21.4078 H   0  0  0  0  0  0
  -28.6033  -19.4172   22.6533 H   0  0  0  0  0  0
  -33.1663  -18.0007   22.9692 H   0  0  0  0  0  0
  -32.9794  -19.2064   21.6441 H   0  0  0  0  0  0
  -31.3510  -20.9593   22.2534 H   0  0  0  0  0  0
  -30.5009  -20.6563   23.8233 H   0  0  0  0  0  0
  -32.5513  -19.5704   24.6699 H   0  0  0  0  0  0
  -28.5168  -19.8029   19.7374 H   0  0  0  0  0  0
  -32.5863  -22.7456   26.7125 H   0  0  0  0  0  0
  -32.6790  -20.9989   26.5450 H   0  0  0  0  0  0
  -31.5146  -21.9293   25.5895 H   0  0  0  0  0  0
  -36.2490  -25.0850   24.9728 H   0  0  0  0  0  0
  -36.2031  -25.2349   23.2156 H   0  0  0  0  0  0
  -37.4107  -24.2003   23.9875 H   0  0  0  0  0  0
  -30.4883  -16.7916   24.1350 H   0  0  0  0  0  0
  -30.0887  -15.2319   23.4868 H   0  0  0  0  0  0
  -28.9088  -16.5263   23.4078 H   0  0  0  0  0  0
  -27.1743  -24.9962   22.1043 H   0  0  0  0  0  0
  -27.2069  -23.2580   22.3428 H   0  0  0  0  0  0
  -26.2492  -23.9484   21.0355 H   0  0  0  0  0  0
  -30.3705  -21.8676   20.6332 H   0  0  0  0  0  0
  -29.1642  -21.7327   21.8911 H   0  0  0  0  0  0
  -27.6644  -24.9600   18.8202 H   0  0  0  0  0  0
  -29.3426  -25.0888   19.0539 H   0  0  0  0  0  0
  -31.5810  -16.5208   21.9373 H   0  0  0  0  0  0
  -29.3024  -24.1008   21.2510 H   0  0  0  0  0  0
  -28.9633  -15.5191   21.0627 H   0  0  0  0  0  0
  -30.9751  -18.3806   23.6539 H   0  0  0  0  0  0
  -27.5740  -22.1730   19.9535 H   0  0  0  0  0  0
  -28.8995  -22.5986   19.1334 H   0  0  0  0  0  0
  1 25  1  0  0  0
  1 30  2  0  0  0
  1 92  1  0  0  0
  2  3  1  0  0  0
  2 25  1  0  0  0
  2 96  1  0  0  0
  2 97  1  0  0  0
  3  4  1  0  0  0
  3 98  1  0  0  0
  3 99  1  0  0  0
  4  5  1  0  0  0
  4100  1  0  0  0
  4101  1  0  0  0
  5  6  1  0  0  0
  5 26  1  0  0  0
  5102  1  0  0  0
  6 25  1  0  0  0
  6103  1  0  0  0
  6104  1  0  0  0
  7  8  2  0  0  0
  7 26  1  0  0  0
  7 29  1  0  0  0
  8  9  1  0  0  0
  8 22  1  0  0  0
  9 10  1  0  0  0
  9 27  2  0  0  0
 10 11  2  0  0  0
 10 15  1  0  0  0
 11 12  1  0  0  0
 11105  1  0  0  0
 12 13  2  0  0  0
 12106  1  0  0  0
 13 14  1  0  0  0
 13 31  1  0  0  0
 14 15  2  0  0  0
 14107  1  0  0  0
 15108  1  0  0  0
 16 17  2  0  0  0
 16 21  1  0  0  0
 16 31  1  0  0  0
 17 18  1  0  0  0
 17109  1  0  0  0
 18 19  2  0  0  0
 18110  1  0  0  0
 19 20  1  0  0  0
 19 24  1  0  0  0
 20 21  2  0  0  0
 20111  1  0  0  0
 21 23  1  0  0  0
 22 28  1  0  0  0
 22 32  2  0  0  0
 26 27  1  0  0  0
 28112  1  0  0  0
 28113  1  0  0  0
 29114  1  0  0  0
 29115  1  0  0  0
 33 34  1  0  0  0
 33 66  1  0  0  0
 33 70  2  0  0  0
 34 36  1  0  0  0
 34 59  1  0  0  0
 34116  1  0  0  0
 35 44  2  0  0  0
 35 45  1  0  0  0
 35 68  1  0  0  0
 36 56  1  0  0  0
 36117  1  0  0  0
 37 39  1  0  0  0
 37 47  1  0  0  0
 37 66  1  0  0  0
 37118  1  0  0  0
 38 43  2  0  0  0
 38 46  1  0  0  0
 38 47  1  0  0  0
 39 64  1  0  0  0
 39 67  2  0  0  0
 40 52  1  0  0  0
 40 53  2  0  0  0
 40 58  1  0  0  0
 41119  1  0  0  0
 41120  1  0  0  0
 41121  1  0  0  0
 41 48  1  0  0  0
 42 43  1  0  0  0
 42 66  1  0  0  0
 42122  1  0  0  0
 42123  1  0  0  0
 43 44  1  0  0  0
 44124  1  0  0  0
 45 46  2  0  0  0
 45125  1  0  0  0
 46126  1  0  0  0
 47127  1  0  0  0
 47128  1  0  0  0
 48 56  1  0  0  0
 48 65  1  0  0  0
 48129  1  0  0  0
 49 50  1  0  0  0
 49 53  1  0  0  0
 49 64  1  0  0  0
 49130  1  0  0  0
 50 51  1  0  0  0
 50131  1  0  0  0
 50132  1  0  0  0
 51 52  1  0  0  0
 51133  1  0  0  0
 51134  1  0  0  0
 52135  1  0  0  0
 52136  1  0  0  0
 53 54  1  0  0  0
 54 55  2  0  0  0
 54137  1  0  0  0
 55 57  1  0  0  0
 55138  1  0  0  0
 56 69  2  0  0  0
 57 58  2  0  0  0
 57139  1  0  0  0
 58140  1  0  0  0
 59 60  1  0  0  0
 59 61  1  0  0  0
 59 62  1  0  0  0
 60141  1  0  0  0
 60142  1  0  0  0
 60143  1  0  0  0
 61144  1  0  0  0
 61145  1  0  0  0
 61146  1  0  0  0
 62147  1  0  0  0
 62148  1  0  0  0
 62149  1  0  0  0
 63 65  1  0  0  0
 63150  1  0  0  0
 63151  1  0  0  0
 63152  1  0  0  0
 64153  1  0  0  0
 65154  1  0  0  0
 68 89  1  0  0  0
 71 73  2  0  0  0
 71 76  1  0  0  0
 71155  1  0  0  0
 72 74  2  0  0  0
 72 75  1  0  0  0
 72156  1  0  0  0
 73 74  1  0  0  0
 73 81  1  0  0  0
 74 84  1  0  0  0
 75 76  2  0  0  0
 75 85  1  0  0  0
 76 95  1  0  0  0
 77 82  1  0  0  0
 77157  1  0  0  0
 77158  1  0  0  0
 77 83  1  0  0  0
 78 82  1  0  0  0
 78 83  1  0  0  0
 78159  1  0  0  0
 78160  1  0  0  0
 79 81  1  0  0  0
 79161  1  0  0  0
 79162  1  0  0  0
 79 93  1  0  0  0
 80 81  1  0  0  0
 80 93  1  0  0  0
 80163  1  0  0  0
 80164  1  0  0  0
 81165  1  0  0  0
 82 88  1  0  0  0
 82166  1  0  0  0
 83 90  1  0  0  0
 83 93  1  0  0  0
 84167  1  0  0  0
 84168  1  0  0  0
 84169  1  0  0  0
 85170  1  0  0  0
 85171  1  0  0  0
 85172  1  0  0  0
 86173  1  0  0  0
 86174  1  0  0  0
 86175  1  0  0  0
 86 90  1  0  0  0
 87176  1  0  0  0
 87177  1  0  0  0
 87178  1  0  0  0
 87 91  1  0  0  0
 88 94  1  0  0  0
 88179  1  0  0  0
 88180  1  0  0  0
 89 91  1  0  0  0
 89181  1  0  0  0
 89182  1  0  0  0
 90 92  1  0  0  0
 90183  1  0  0  0
 91 94  1  0  0  0
 91184  1  0  0  0
 92185  1  0  0  0
 93186  1  0  0  0
 94187  1  0  0  0
 94188  1  0  0  0
M  CHG  2  93   1  94   1
M  ISO  4   1 100  68 101  89 101  92 100
M  END
> <chiral flag>
0

> <version>
0

> <s_m_source_file>
/data/baiqing/PycharmProjects/Reinvent-master-3.2/result/LINK_invent/BTK/process_docking_weight1_custom_sum_contain_oxygen_bond_distance_aromatic_linkinvent_7_9_3/rearranged_h_0166.sdf

> <i_m_source_file_index>
65

> <r_mmod_Potential_Energy-OPLS-2005>
-24.5528869628906

> <r_mmod_Stretch_Energy-OPLS-2005>
90.2433090209961

> <r_mmod_Bend_Energy-OPLS-2005>
220.286804199219

> <r_mmod_Torsional_Energy-OPLS-2005>
330.2099609375

> <r_mmod_Improper_Torsional_Energy-OPLS-2005>
4.48113298416138

> <r_mmod_Van_der_Waal_Energy-OPLS-2005>
153.15168762207

> <r_mmod_Electrostatic_Energy-OPLS-2005>
72.6794815063477

> <r_mmod_Solvation_Energy-OPLS-2005>
-935.435119628906

> <b_mmod_Minimization_Converged-OPLS-2005>
0

> <r_mmod_RMS_Derivative-OPLS-2005>
2.32238817214966

$$$$
65
                    3D
 Structure written by MMmdl.
180190  0  0  1  0            999 V2000
  -30.1821  -14.8648   20.2406 C   0  0  0  0  0  0
  -30.4555  -12.5134   19.4157 C   0  0  0  0  0  0
  -29.5075  -12.2853   18.2138 C   0  0  0  0  0  0
  -28.0580  -12.0490   18.7124 C   0  0  0  0  0  0
  -27.6170  -13.0891   19.7789 C   0  0  2  0  0  0
  -28.6489  -13.0575   20.9081 C   0  0  0  0  0  0
  -25.2692  -13.7634   20.5563 C   0  0  0  0  0  0
  -24.1817  -13.0160   20.9087 C   0  0  0  0  0  0
  -24.6156  -11.6616   20.8745 C   0  0  0  0  0  0
  -23.8868  -10.4087   21.0461 C   0  0  0  0  0  0
  -24.3480   -9.4063   21.9255 C   0  0  0  0  0  0
  -23.6165   -8.2130   22.0798 C   0  0  0  0  0  0
  -22.4186   -8.0175   21.3513 C   0  0  0  0  0  0
  -21.9792   -9.0157   20.4644 C   0  0  0  0  0  0
  -22.7094  -10.2009   20.3069 C   0  0  0  0  0  0
  -21.6821   -6.0670   22.5279 C   0  0  0  0  0  0
  -21.3982   -6.5585   23.8211 C   0  0  0  0  0  0
  -21.3660   -5.6754   24.9188 C   0  0  0  0  0  0
  -21.6056   -4.3019   24.7244 C   0  0  0  0  0  0
  -21.8816   -3.8088   23.4370 C   0  0  0  0  0  0
  -21.9170   -4.6898   22.3415 C   0  0  0  0  0  0
  -22.7937  -13.5170   21.1816 C   0  0  0  0  0  0
  -22.1645   -4.2070   21.1004 F   0  0  0  0  0  0
  -21.5647   -3.4525   25.7779 F   0  0  0  0  0  0
  -29.8651  -13.5424   20.3014 N   0  0  0  0  0  0
  -26.2805  -12.8615   20.2851 N   0  0  0  0  0  0
  -25.8975  -11.5990   20.5643 N   0  0  0  0  0  0
  -22.0563  -12.8245   22.0415 N   0  0  0  0  0  0
  -25.4442  -15.1293   20.3901 N   0  0  0  0  0  0
  -31.3664  -15.1306   19.9483 O   0  0  0  0  0  0
  -21.6547   -6.8777   21.4226 O   0  0  0  0  0  0
  -22.3790  -14.5593   20.6763 O   0  0  0  0  0  0
  -24.6420  -31.8885   23.2434 C   0  0  0  0  0  0
  -25.9414  -32.4835   23.8408 C   0  0  1  0  0  0
  -27.2187  -27.3846   19.9882 C   0  0  0  0  0  0
  -25.6195  -33.8522   24.2258 N   0  0  0  0  0  0
  -23.4583  -30.5172   21.6378 C   0  0  2  0  0  0
  -24.8324  -28.9469   20.2060 C   0  0  0  0  0  0
  -22.7657  -29.5090   22.5708 C   0  0  0  0  0  0
  -18.0488  -28.0791   22.9483 C   0  0  0  0  0  0
  -24.1527  -36.7358   23.2628 C   0  0  0  0  0  0
  -25.9572  -30.7720   21.4065 C   0  0  0  0  0  0
  -26.0265  -29.4180   20.7591 C   0  0  0  0  0  0
  -27.2374  -28.6764   20.6140 C   0  0  0  0  0  0
  -25.9712  -26.9271   19.5073 C   0  0  0  0  0  0
  -24.8069  -27.6978   19.5968 C   0  0  0  0  0  0
  -23.6086  -29.8556   20.2638 C   0  0  0  0  0  0
  -25.4170  -36.3085   24.0271 C   0  0  1  0  0  0
  -20.5813  -28.4611   23.1973 C   0  0  2  0  0  0
  -20.7933  -27.0334   22.6861 C   0  0  0  0  0  0
  -19.7381  -26.6195   21.6763 C   0  0  0  0  0  0
  -18.3176  -26.7822   22.2364 C   0  0  0  0  0  0
  -19.1328  -28.9169   23.3049 C   0  0  0  0  0  0
  -18.8631  -30.2378   23.7538 C   0  0  0  0  0  0
  -17.5304  -30.6759   24.0140 C   0  0  0  0  0  0
  -25.9087  -34.9519   23.5097 C   0  0  0  0  0  0
  -16.4596  -29.7902   23.7528 C   0  0  0  0  0  0
  -16.7233  -28.5320   23.1751 C   0  0  0  0  0  0
  -26.4515  -31.6539   25.0773 C   0  0  0  0  0  0
  -25.3612  -31.3913   26.1327 C   0  0  0  0  0  0
  -26.9840  -30.2760   24.6270 C   0  0  0  0  0  0
  -27.6090  -32.4016   25.7560 C   0  0  0  0  0  0
  -27.5573  -37.1862   24.8478 C   0  0  0  0  0  0
  -21.4610  -29.3965   22.4798 N   0  0  0  0  0  0
  -26.4312  -37.3841   23.9391 N   0  0  0  0  0  0
  -24.6991  -31.0692   22.1607 N   0  0  0  0  0  0
  -23.4790  -28.8261   23.3131 O   0  0  0  0  0  0
  -28.3420  -26.5814   19.8705 O   0  0  0  0  0  0
  -26.5647  -34.8905   22.4686 O   0  0  0  0  0  0
  -23.5447  -32.1803   23.7785 O   0  0  0  0  0  0
  -27.7384  -19.4907   22.5023 C   0  0  0  0  0  0
  -27.2986  -20.6089   21.8868 C   0  0  0  0  0  0
  -27.8305  -18.2796   21.7803 C   0  0  0  0  0  0
  -27.5517  -18.2031   20.3800 C   0  0  0  0  0  0
  -26.7027  -20.5462   20.6397 C   0  0  0  0  0  0
  -26.7238  -19.3326   19.8823 C   0  0  0  0  0  0
  -28.1889  -17.0510   22.5565 C   0  0  0  0  0  0
  -28.2242  -16.8179   19.7556 C   0  0  0  0  0  0
  -26.4486  -21.6195   16.3502 C   0  0  0  0  0  0
  -24.6061  -23.0196   17.2061 C   0  0  0  0  0  0
  -27.4277  -22.3370   17.2756 C   0  0  0  0  0  0
  -25.7395  -24.1164   17.0266 C   0  0  0  0  0  0
  -25.1278  -21.4807   17.0816 C   0  0  2  0  0  0
  -29.4061  -16.3243   21.9669 C   0  0  1  0  0  0
  -25.8176  -21.7983   20.4811 C   0  0  0  0  0  0
  -29.9155  -15.3198   23.0441 C   0  0  0  0  0  0
  -25.4033  -19.2765   18.9240 C   0  0  0  0  0  0
  -28.0165  -24.6365   18.1187 C   0  0  0  0  0  0
  -28.1328  -25.1524   19.6167 C   0  0  0  0  0  0
  -29.1825  -15.8254   20.5954 N   0  0  0  0  0  0
  -26.9181  -23.6473   17.8111 N   0  3  2  0  0  0
  -24.7847  -20.3160   17.9992 O   0  0  0  0  0  0
  -31.4246  -12.8112   18.9908 H   0  0  0  0  0  0
  -30.6050  -11.5705   19.9511 H   0  0  0  0  0  0
  -29.8400  -11.3702   17.6944 H   0  0  0  0  0  0
  -29.5343  -13.0796   17.4703 H   0  0  0  0  0  0
  -28.0773  -11.0611   19.2060 H   0  0  0  0  0  0
  -27.3309  -11.9221   17.8957 H   0  0  0  0  0  0
  -27.5919  -14.0287   19.2524 H   0  0  0  0  0  0
  -28.8189  -12.0535   21.2947 H   0  0  0  0  0  0
  -28.3332  -13.6469   21.7505 H   0  0  0  0  0  0
  -25.2633   -9.5579   22.4808 H   0  0  0  0  0  0
  -23.9860   -7.4545   22.7537 H   0  0  0  0  0  0
  -21.0741   -8.8643   19.8964 H   0  0  0  0  0  0
  -22.3589  -10.9544   19.6165 H   0  0  0  0  0  0
  -21.1963   -7.6093   23.9680 H   0  0  0  0  0  0
  -21.1509   -6.0508   25.9088 H   0  0  0  0  0  0
  -22.0601   -2.7544   23.2908 H   0  0  0  0  0  0
  -22.4177  -11.9819   22.4626 H   0  0  0  0  0  0
  -21.1258  -13.1418   22.2687 H   0  0  0  0  0  0
  -24.6905  -15.8069   20.4948 H   0  0  0  0  0  0
  -26.3005  -15.5210   20.0307 H   0  0  0  0  0  0
  -26.7864  -32.5568   23.1356 H   0  0  0  0  0  0
  -25.0257  -33.9763   25.0253 H   0  0  0  0  0  0
  -22.8093  -31.3475   21.4034 H   0  0  0  0  0  0
  -23.3760  -35.9715   23.3325 H   0  0  0  0  0  0
  -24.3599  -36.8946   22.2029 H   0  0  0  0  0  0
  -23.7262  -37.6577   23.6600 H   0  0  0  0  0  0
  -26.0014  -31.4825   20.6103 H   0  0  0  0  0  0
  -26.8660  -30.8359   21.9595 H   0  0  0  0  0  0
  -28.1886  -29.0932   20.9691 H   0  0  0  0  0  0
  -25.8586  -25.9300   19.1126 H   0  0  0  0  0  0
  -23.8876  -27.3589   19.1411 H   0  0  0  0  0  0
  -23.7455  -30.6416   19.5249 H   0  0  0  0  0  0
  -22.7237  -29.2606   20.0016 H   0  0  0  0  0  0
  -25.1313  -36.1899   25.0725 H   0  0  0  0  0  0
  -20.8748  -28.5824   24.2594 H   0  0  0  0  0  0
  -20.6860  -26.2902   23.4633 H   0  0  0  0  0  0
  -21.8158  -26.8826   22.3077 H   0  0  0  0  0  0
  -19.9172  -25.5973   21.4311 H   0  0  0  0  0  0
  -19.9247  -27.1967   20.7678 H   0  0  0  0  0  0
  -17.6506  -26.7945   21.3577 H   0  0  0  0  0  0
  -18.1358  -25.8700   22.8489 H   0  0  0  0  0  0
  -19.6701  -30.9377   23.9021 H   0  0  0  0  0  0
  -17.3289  -31.6676   24.4054 H   0  0  0  0  0  0
  -15.3986  -30.0023   24.0274 H   0  0  0  0  0  0
  -15.9285  -27.8440   22.9455 H   0  0  0  0  0  0
  -24.5767  -30.7298   25.7681 H   0  0  0  0  0  0
  -24.8643  -32.3058   26.4439 H   0  0  0  0  0  0
  -25.7563  -30.9237   27.0351 H   0  0  0  0  0  0
  -26.1890  -29.6637   24.1852 H   0  0  0  0  0  0
  -27.4072  -29.6967   25.4523 H   0  0  0  0  0  0
  -27.7995  -30.3628   23.9124 H   0  0  0  0  0  0
  -27.2838  -33.3213   26.2415 H   0  0  0  0  0  0
  -28.3809  -32.6849   25.0403 H   0  0  0  0  0  0
  -28.1004  -31.8035   26.5242 H   0  0  0  0  0  0
  -28.2660  -38.0132   24.7522 H   0  0  0  0  0  0
  -28.1017  -36.2637   24.6280 H   0  0  0  0  0  0
  -27.2336  -37.1517   25.8923 H   0  0  0  0  0  0
  -20.9736  -30.2443   22.1470 H   0  0  0  0  0  0
  -26.0210  -38.2930   24.1297 H   0  0  0  0  0  0
  -28.0290  -19.6155   23.5215 H   0  0  0  0  0  0
  -27.2262  -21.5217   22.4736 H   0  0  0  0  0  0
  -27.4002  -16.3115   22.5371 H   0  0  0  0  0  0
  -28.2920  -17.2854   23.6280 H   0  0  0  0  0  0
  -28.7700  -17.1658   18.8981 H   0  0  0  0  0  0
  -27.4391  -16.2088   19.2839 H   0  0  0  0  0  0
  -26.8094  -20.7115   15.8961 H   0  0  0  0  0  0
  -26.2195  -22.2635   15.4799 H   0  0  0  0  0  0
  -23.9161  -23.2192   16.3765 H   0  0  0  0  0  0
  -23.9485  -23.2437   18.0470 H   0  0  0  0  0  0
  -28.3267  -22.4512   16.6773 H   0  0  0  0  0  0
  -27.6139  -21.6882   18.1292 H   0  0  0  0  0  0
  -25.3865  -25.1280   17.2308 H   0  0  0  0  0  0
  -25.9845  -24.2237   15.9687 H   0  0  0  0  0  0
  -24.4351  -21.1364   16.3112 H   0  0  0  0  0  0
  -30.1899  -17.0602   21.7701 H   0  0  0  0  0  0
  -26.3796  -22.7139   20.6580 H   0  0  0  0  0  0
  -25.0608  -21.7038   21.2535 H   0  0  0  0  0  0
  -25.3272  -21.9697   19.5349 H   0  0  0  0  0  0
  -29.0222  -14.8530   23.4920 H   0  0  0  0  0  0
  -30.5106  -15.8496   23.8047 H   0  0  0  0  0  0
  -30.5477  -14.5189   22.6680 H   0  0  0  0  0  0
  -24.6764  -19.4698   19.7337 H   0  0  0  0  0  0
  -25.0192  -18.2590   18.7846 H   0  0  0  0  0  0
  -28.9567  -24.1069   17.9580 H   0  0  0  0  0  0
  -28.1165  -25.4127   17.3546 H   0  0  0  0  0  0
  -29.0222  -24.7008   20.0378 H   0  0  0  0  0  0
  -27.3061  -24.7719   20.2257 H   0  0  0  0  0  0
  -26.5255  -23.4631   18.7199 H   0  0  0  0  0  0
  1 25  1  0  0  0
  1 30  2  0  0  0
  1 90  1  0  0  0
  2  3  1  0  0  0
  2 25  1  0  0  0
  2 93  1  0  0  0
  2 94  1  0  0  0
  3  4  1  0  0  0
  3 95  1  0  0  0
  3 96  1  0  0  0
  4  5  1  0  0  0
  4 97  1  0  0  0
  4 98  1  0  0  0
  5  6  1  0  0  0
  5 26  1  0  0  0
  5 99  1  0  0  0
  6 25  1  0  0  0
  6100  1  0  0  0
  6101  1  0  0  0
  7  8  2  0  0  0
  7 26  1  0  0  0
  7 29  1  0  0  0
  8  9  1  0  0  0
  8 22  1  0  0  0
  9 10  1  0  0  0
  9 27  2  0  0  0
 10 11  2  0  0  0
 10 15  1  0  0  0
 11 12  1  0  0  0
 11102  1  0  0  0
 12 13  2  0  0  0
 12103  1  0  0  0
 13 14  1  0  0  0
 13 31  1  0  0  0
 14 15  2  0  0  0
 14104  1  0  0  0
 15105  1  0  0  0
 16 17  2  0  0  0
 16 21  1  0  0  0
 16 31  1  0  0  0
 17 18  1  0  0  0
 17106  1  0  0  0
 18 19  2  0  0  0
 18107  1  0  0  0
 19 20  1  0  0  0
 19 24  1  0  0  0
 20 21  2  0  0  0
 20108  1  0  0  0
 21 23  1  0  0  0
 22 28  1  0  0  0
 22 32  2  0  0  0
 26 27  1  0  0  0
 28109  1  0  0  0
 28110  1  0  0  0
 29111  1  0  0  0
 29112  1  0  0  0
 33 34  1  0  0  0
 33 66  1  0  0  0
 33 70  2  0  0  0
 34 36  1  0  0  0
 34 59  1  0  0  0
 34113  1  0  0  0
 35 44  2  0  0  0
 35 45  1  0  0  0
 35 68  1  0  0  0
 36 56  1  0  0  0
 36114  1  0  0  0
 37 39  1  0  0  0
 37 47  1  0  0  0
 37 66  1  0  0  0
 37115  1  0  0  0
 38 43  2  0  0  0
 38 46  1  0  0  0
 38 47  1  0  0  0
 39 64  1  0  0  0
 39 67  2  0  0  0
 40 52  1  0  0  0
 40 53  2  0  0  0
 40 58  1  0  0  0
 41116  1  0  0  0
 41117  1  0  0  0
 41118  1  0  0  0
 41 48  1  0  0  0
 42 43  1  0  0  0
 42 66  1  0  0  0
 42119  1  0  0  0
 42120  1  0  0  0
 43 44  1  0  0  0
 44121  1  0  0  0
 45 46  2  0  0  0
 45122  1  0  0  0
 46123  1  0  0  0
 47124  1  0  0  0
 47125  1  0  0  0
 48 56  1  0  0  0
 48 65  1  0  0  0
 48126  1  0  0  0
 49 50  1  0  0  0
 49 53  1  0  0  0
 49 64  1  0  0  0
 49127  1  0  0  0
 50 51  1  0  0  0
 50128  1  0  0  0
 50129  1  0  0  0
 51 52  1  0  0  0
 51130  1  0  0  0
 51131  1  0  0  0
 52132  1  0  0  0
 52133  1  0  0  0
 53 54  1  0  0  0
 54 55  2  0  0  0
 54134  1  0  0  0
 55 57  1  0  0  0
 55135  1  0  0  0
 56 69  2  0  0  0
 57 58  2  0  0  0
 57136  1  0  0  0
 58137  1  0  0  0
 59 60  1  0  0  0
 59 61  1  0  0  0
 59 62  1  0  0  0
 60138  1  0  0  0
 60139  1  0  0  0
 60140  1  0  0  0
 61141  1  0  0  0
 61142  1  0  0  0
 61143  1  0  0  0
 62144  1  0  0  0
 62145  1  0  0  0
 62146  1  0  0  0
 63 65  1  0  0  0
 63147  1  0  0  0
 63148  1  0  0  0
 63149  1  0  0  0
 64150  1  0  0  0
 65151  1  0  0  0
 68 89  1  0  0  0
 71 72  2  0  0  0
 71 73  1  0  0  0
 71152  1  0  0  0
 72 75  1  0  0  0
 72153  1  0  0  0
 73 74  2  0  0  0
 73 77  1  0  0  0
 74 76  1  0  0  0
 74 78  1  0  0  0
 75 76  2  0  0  0
 75 85  1  0  0  0
 76 87  1  0  0  0
 77 84  1  0  0  0
 77154  1  0  0  0
 77155  1  0  0  0
 78 90  1  0  0  0
 78156  1  0  0  0
 78157  1  0  0  0
 79 81  1  0  0  0
 79 83  1  0  0  0
 79158  1  0  0  0
 79159  1  0  0  0
 80 82  1  0  0  0
 80 83  1  0  0  0
 80160  1  0  0  0
 80161  1  0  0  0
 81 91  1  0  0  0
 81162  1  0  0  0
 81163  1  0  0  0
 82 91  1  0  0  0
 82164  1  0  0  0
 82165  1  0  0  0
 83 92  1  0  0  0
 83166  1  0  0  0
 84 86  1  0  0  0
 84 90  1  0  0  0
 84167  1  0  0  0
 85168  1  0  0  0
 85169  1  0  0  0
 85170  1  0  0  0
 86171  1  0  0  0
 86172  1  0  0  0
 86173  1  0  0  0
 87 92  1  0  0  0
 87174  1  0  0  0
 87175  1  0  0  0
 88 89  1  0  0  0
 88176  1  0  0  0
 88177  1  0  0  0
 88 91  1  0  0  0
 89178  1  0  0  0
 89179  1  0  0  0
 91180  1  0  0  0
M  CHG  1  91   1
M  ISO  4   1 100  68 101  89 101  90 100
M  END
> <chiral flag>
0

> <version>
0

> <s_m_source_file>
/data/baiqing/PycharmProjects/Reinvent-master-3.2/result/LINK_invent/BTK/process_docking_weight1_custom_sum_contain_oxygen_bond_distance_aromatic_linkinvent_7_9_3/rearranged_h_0166.sdf

> <i_m_source_file_index>
66

> <r_mmod_Potential_Energy-OPLS-2005>
1178.52893066406

> <r_mmod_Stretch_Energy-OPLS-2005>
242.54670715332

> <r_mmod_Bend_Energy-OPLS-2005>
558.479797363281

> <r_mmod_Torsional_Energy-OPLS-2005>
497.112579345703

> <r_mmod_Improper_Torsional_Energy-OPLS-2005>
14.883810043335

> <r_mmod_Van_der_Waal_Energy-OPLS-2005>
213.777969360352

> <r_mmod_Electrostatic_Energy-OPLS-2005>
-168.902923583984

> <r_mmod_Solvation_Energy-OPLS-2005>
-403.948760986328

> <b_mmod_Minimization_Converged-OPLS-2005>
0

> <r_mmod_RMS_Derivative-OPLS-2005>
64.6677093505859

$$$$
66
                    3D
 Structure written by MMmdl.
166176  0  0  1  0            999 V2000
  -30.6479  -14.6969   20.4261 C   0  0  0  0  0  0
  -30.4275  -12.4177   19.4508 C   0  0  0  0  0  0
  -29.5023  -12.5006   18.2178 C   0  0  0  0  0  0
  -28.0283  -12.3421   18.6413 C   0  0  0  0  0  0
  -27.6479  -13.2360   19.8532 C   0  0  2  0  0  0
  -28.7038  -13.1599   20.9791 C   0  0  0  0  0  0
  -25.2562  -13.8208   20.5741 C   0  0  0  0  0  0
  -24.1837  -13.0438   20.9211 C   0  0  0  0  0  0
  -24.6448  -11.6918   20.8760 C   0  0  0  0  0  0
  -23.9118  -10.4291   21.0418 C   0  0  0  0  0  0
  -24.3648   -9.4198   21.9200 C   0  0  0  0  0  0
  -23.6307   -8.2240   22.0761 C   0  0  0  0  0  0
  -22.4291   -8.0290   21.3548 C   0  0  0  0  0  0
  -21.9945   -9.0271   20.4653 C   0  0  0  0  0  0
  -22.7293  -10.2143   20.3065 C   0  0  0  0  0  0
  -21.6854   -6.0748   22.5276 C   0  0  0  0  0  0
  -21.4017   -6.5652   23.8212 C   0  0  0  0  0  0
  -21.3654   -5.6802   24.9174 C   0  0  0  0  0  0
  -21.6042   -4.3062   24.7228 C   0  0  0  0  0  0
  -21.8817   -3.8161   23.4347 C   0  0  0  0  0  0
  -21.9195   -4.6975   22.3405 C   0  0  0  0  0  0
  -22.7858  -13.5206   21.1866 C   0  0  0  0  0  0
  -22.1662   -4.2162   21.0981 F   0  0  0  0  0  0
  -21.5627   -3.4549   25.7740 F   0  0  0  0  0  0
  -30.0047  -13.4842   20.3808 N   0  0  0  0  0  0
  -26.3002  -12.9435   20.3354 N   0  0  0  0  0  0
  -25.9387  -11.6570   20.5794 N   0  0  0  0  0  0
  -22.0517  -12.8170   22.0416 N   0  0  0  0  0  0
  -25.4251  -15.1927   20.4182 N   0  0  0  0  0  0
  -31.8463  -14.7785   20.1491 O   0  0  0  0  0  0
  -21.6644   -6.8895   21.4241 O   0  0  0  0  0  0
  -22.3528  -14.5520   20.6735 O   0  0  0  0  0  0
  -24.6322  -31.8562   23.1982 C   0  0  0  0  0  0
  -25.9136  -32.4748   23.8350 C   0  0  1  0  0  0
  -27.2186  -27.2951   20.0725 C   0  0  0  0  0  0
  -25.5937  -33.8553   24.2268 N   0  0  0  0  0  0
  -23.4250  -30.4848   21.5431 C   0  0  2  0  0  0
  -24.8617  -28.9334   20.1023 C   0  0  0  0  0  0
  -22.7493  -29.4664   22.4919 C   0  0  0  0  0  0
  -18.0292  -28.1388   22.8441 C   0  0  0  0  0  0
  -24.1492  -36.7280   23.2646 C   0  0  0  0  0  0
  -25.9704  -30.7718   21.3754 C   0  0  0  0  0  0
  -26.0362  -29.4012   20.7067 C   0  0  0  0  0  0
  -27.2123  -28.5892   20.6871 C   0  0  0  0  0  0
  -26.0165  -26.8887   19.4461 C   0  0  0  0  0  0
  -24.8555  -27.6811   19.4712 C   0  0  0  0  0  0
  -23.6349  -29.8206   20.1586 C   0  0  0  0  0  0
  -25.4107  -36.3063   24.0350 C   0  0  1  0  0  0
  -20.5902  -28.3696   23.1232 C   0  0  2  0  0  0
  -20.6770  -26.9411   22.5393 C   0  0  0  0  0  0
  -19.5757  -26.6378   21.5184 C   0  0  0  0  0  0
  -18.1924  -26.7923   22.1595 C   0  0  0  0  0  0
  -19.1552  -28.8860   23.2821 C   0  0  0  0  0  0
  -18.9480  -30.1446   23.8859 C   0  0  0  0  0  0
  -17.6488  -30.6566   24.0569 C   0  0  0  0  0  0
  -25.9059  -34.9433   23.5109 C   0  0  0  0  0  0
  -16.5370  -29.9065   23.6348 C   0  0  0  0  0  0
  -16.7292  -28.6510   23.0336 C   0  0  0  0  0  0
  -26.4476  -31.6573   25.0750 C   0  0  0  0  0  0
  -25.3688  -31.3742   26.1475 C   0  0  0  0  0  0
  -27.0327  -30.3000   24.6229 C   0  0  0  0  0  0
  -27.6019  -32.4328   25.7502 C   0  0  0  0  0  0
  -27.5576  -37.1784   24.8466 C   0  0  0  0  0  0
  -21.4217  -29.3040   22.3630 N   0  0  0  0  0  0
  -26.4281  -37.3765   23.9415 N   0  0  0  0  0  0
  -24.6959  -31.0556   22.0946 N   0  0  0  0  0  0
  -23.4202  -28.8229   23.3029 O   0  0  0  0  0  0
  -28.3505  -26.4556   20.1035 O   0  0  0  0  0  0
  -26.5615  -34.8906   22.4679 O   0  0  0  0  0  0
  -23.5474  -32.1394   23.7295 O   0  0  0  0  0  0
  -30.7965  -20.4298   21.0895 C   0  0  0  0  0  0
  -29.5119  -22.3939   20.2470 C   0  0  0  0  0  0
  -30.5875  -21.8325   21.0093 C   0  0  0  0  0  0
  -29.9716  -19.5220   20.3970 C   0  0  0  0  0  0
  -28.7455  -21.3916   19.5451 C   0  0  0  0  0  0
  -29.5602  -24.7234   18.9315 C   0  0  0  0  0  0
  -29.6997  -16.8986   21.4071 C   0  0  0  0  0  0
  -29.9799  -16.9235   19.3455 C   0  0  0  0  0  0
  -29.3603  -23.9837   20.2355 C   0  0  1  0  0  0
  -30.2670  -17.9626   20.4434 C   0  0  0  0  0  0
  -28.2932  -25.0160   19.7070 C   0  0  2  0  0  0
  -31.6054  -22.7183   21.7156 C   0  0  0  0  0  0
  -26.2381  -21.5404   19.0541 C   0  0  0  0  0  0
  -27.8760  -21.0493   17.1609 C   0  0  0  0  0  0
  -27.6608  -21.7533   18.5201 C   0  0  0  0  0  0
  -28.9384  -20.0308   19.6733 N   0  0  0  0  0  0
  -29.8618  -15.8337   20.3700 N   0  0  0  0  0  0
  -31.4724  -12.5141   19.1503 H   0  0  0  0  0  0
  -30.3418  -11.4412   19.9305 H   0  0  0  0  0  0
  -29.7649  -11.7262   17.4958 H   0  0  0  0  0  0
  -29.6418  -13.4557   17.7081 H   0  0  0  0  0  0
  -27.8725  -11.2916   18.8935 H   0  0  0  0  0  0
  -27.3679  -12.5525   17.7987 H   0  0  0  0  0  0
  -27.6450  -14.2624   19.4843 H   0  0  0  0  0  0
  -28.7306  -12.1643   21.4232 H   0  0  0  0  0  0
  -28.4649  -13.8570   21.7848 H   0  0  0  0  0  0
  -25.2789   -9.5658   22.4781 H   0  0  0  0  0  0
  -24.0009   -7.4630   22.7481 H   0  0  0  0  0  0
  -21.0878   -8.8813   19.8954 H   0  0  0  0  0  0
  -22.3773  -10.9690   19.6173 H   0  0  0  0  0  0
  -21.2009   -7.6159   23.9716 H   0  0  0  0  0  0
  -21.1475   -6.0536   25.9072 H   0  0  0  0  0  0
  -22.0601   -2.7626   23.2848 H   0  0  0  0  0  0
  -22.4151  -11.9801   22.4739 H   0  0  0  0  0  0
  -21.1141  -13.1181   22.2675 H   0  0  0  0  0  0
  -24.6633  -15.8509   20.5408 H   0  0  0  0  0  0
  -26.2901  -15.6348   20.1322 H   0  0  0  0  0  0
  -26.7224  -32.5406   23.1105 H   0  0  0  0  0  0
  -25.0093  -33.9676   25.0422 H   0  0  0  0  0  0
  -22.7238  -31.3089   21.4002 H   0  0  0  0  0  0
  -23.3759  -35.9608   23.3284 H   0  0  0  0  0  0
  -24.3603  -36.8928   22.2069 H   0  0  0  0  0  0
  -23.7235  -37.6474   23.6681 H   0  0  0  0  0  0
  -26.1116  -31.5361   20.6111 H   0  0  0  0  0  0
  -26.8474  -30.8151   22.0106 H   0  0  0  0  0  0
  -28.1113  -28.9434   21.1727 H   0  0  0  0  0  0
  -25.9325  -25.9562   18.9122 H   0  0  0  0  0  0
  -23.9556  -27.3152   18.9940 H   0  0  0  0  0  0
  -23.7460  -30.5960   19.3992 H   0  0  0  0  0  0
  -22.7502  -29.2518   19.8699 H   0  0  0  0  0  0
  -25.1274  -36.1909   25.0846 H   0  0  0  0  0  0
  -20.9988  -28.3273   24.1355 H   0  0  0  0  0  0
  -20.5630  -26.2330   23.3609 H   0  0  0  0  0  0
  -21.6644  -26.7396   22.1208 H   0  0  0  0  0  0
  -19.6921  -25.6285   21.1214 H   0  0  0  0  0  0
  -19.6701  -27.3182   20.6694 H   0  0  0  0  0  0
  -17.4207  -26.6681   21.3975 H   0  0  0  0  0  0
  -18.0288  -26.0076   22.9001 H   0  0  0  0  0  0
  -19.7987  -30.7240   24.2219 H   0  0  0  0  0  0
  -17.5067  -31.6255   24.5163 H   0  0  0  0  0  0
  -15.5378  -30.2959   23.7693 H   0  0  0  0  0  0
  -15.8695  -28.0825   22.7029 H   0  0  0  0  0  0
  -24.5908  -30.7014   25.7850 H   0  0  0  0  0  0
  -24.8801  -32.2907   26.4803 H   0  0  0  0  0  0
  -25.8011  -30.9037   27.0322 H   0  0  0  0  0  0
  -26.2925  -29.6746   24.1238 H   0  0  0  0  0  0
  -27.4014  -29.7267   25.4744 H   0  0  0  0  0  0
  -27.8786  -30.4299   23.9480 H   0  0  0  0  0  0
  -27.2643  -33.3708   26.1927 H   0  0  0  0  0  0
  -28.3871  -32.6761   25.0331 H   0  0  0  0  0  0
  -28.0616  -31.8546   26.5528 H   0  0  0  0  0  0
  -28.2554  -38.0106   24.7507 H   0  0  0  0  0  0
  -28.1095  -36.2633   24.6270 H   0  0  0  0  0  0
  -27.2297  -37.1406   25.8868 H   0  0  0  0  0  0
  -20.9400  -29.8812   21.6875 H   0  0  0  0  0  0
  -26.0163  -38.2842   24.1420 H   0  0  0  0  0  0
  -31.6182  -20.0399   21.6777 H   0  0  0  0  0  0
  -29.4662  -24.1697   17.9995 H   0  0  0  0  0  0
  -30.3329  -25.4892   18.9142 H   0  0  0  0  0  0
  -28.6600  -17.0963   21.6647 H   0  0  0  0  0  0
  -30.3063  -16.7804   22.3068 H   0  0  0  0  0  0
  -30.7951  -16.8221   18.6260 H   0  0  0  0  0  0
  -29.0425  -17.1308   18.8278 H   0  0  0  0  0  0
  -29.8202  -24.3911   21.1301 H   0  0  0  0  0  0
  -31.3519  -17.9364   20.5744 H   0  0  0  0  0  0
  -27.3371  -24.6096   19.4024 H   0  0  0  0  0  0
  -32.5047  -22.1592   21.9749 H   0  0  0  0  0  0
  -31.2038  -23.1421   22.6364 H   0  0  0  0  0  0
  -31.9239  -23.5334   21.0660 H   0  0  0  0  0  0
  -26.0820  -22.1028   19.9754 H   0  0  0  0  0  0
  -26.0488  -20.4879   19.2612 H   0  0  0  0  0  0
  -25.4927  -21.8804   18.3319 H   0  0  0  0  0  0
  -28.8702  -21.2569   16.7606 H   0  0  0  0  0  0
  -27.1502  -21.3869   16.4206 H   0  0  0  0  0  0
  -27.7755  -19.9658   17.2412 H   0  0  0  0  0  0
  -27.7451  -22.8068   18.2903 H   0  0  0  0  0  0
  1 25  1  0  0  0
  1 30  2  0  0  0
  1 87  1  0  0  0
  2  3  1  0  0  0
  2 25  1  0  0  0
  2 88  1  0  0  0
  2 89  1  0  0  0
  3  4  1  0  0  0
  3 90  1  0  0  0
  3 91  1  0  0  0
  4  5  1  0  0  0
  4 92  1  0  0  0
  4 93  1  0  0  0
  5  6  1  0  0  0
  5 26  1  0  0  0
  5 94  1  0  0  0
  6 25  1  0  0  0
  6 95  1  0  0  0
  6 96  1  0  0  0
  7  8  2  0  0  0
  7 26  1  0  0  0
  7 29  1  0  0  0
  8  9  1  0  0  0
  8 22  1  0  0  0
  9 10  1  0  0  0
  9 27  2  0  0  0
 10 11  2  0  0  0
 10 15  1  0  0  0
 11 12  1  0  0  0
 11 97  1  0  0  0
 12 13  2  0  0  0
 12 98  1  0  0  0
 13 14  1  0  0  0
 13 31  1  0  0  0
 14 15  2  0  0  0
 14 99  1  0  0  0
 15100  1  0  0  0
 16 17  2  0  0  0
 16 21  1  0  0  0
 16 31  1  0  0  0
 17 18  1  0  0  0
 17101  1  0  0  0
 18 19  2  0  0  0
 18102  1  0  0  0
 19 20  1  0  0  0
 19 24  1  0  0  0
 20 21  2  0  0  0
 20103  1  0  0  0
 21 23  1  0  0  0
 22 28  1  0  0  0
 22 32  2  0  0  0
 26 27  1  0  0  0
 28104  1  0  0  0
 28105  1  0  0  0
 29106  1  0  0  0
 29107  1  0  0  0
 33 34  1  0  0  0
 33 66  1  0  0  0
 33 70  2  0  0  0
 34 36  1  0  0  0
 34 59  1  0  0  0
 34108  1  0  0  0
 35 44  2  0  0  0
 35 45  1  0  0  0
 35 68  1  0  0  0
 36 56  1  0  0  0
 36109  1  0  0  0
 37 39  1  0  0  0
 37 47  1  0  0  0
 37 66  1  0  0  0
 37110  1  0  0  0
 38 43  2  0  0  0
 38 46  1  0  0  0
 38 47  1  0  0  0
 39 64  1  0  0  0
 39 67  2  0  0  0
 40 52  1  0  0  0
 40 53  2  0  0  0
 40 58  1  0  0  0
 41111  1  0  0  0
 41112  1  0  0  0
 41113  1  0  0  0
 41 48  1  0  0  0
 42 43  1  0  0  0
 42 66  1  0  0  0
 42114  1  0  0  0
 42115  1  0  0  0
 43 44  1  0  0  0
 44116  1  0  0  0
 45 46  2  0  0  0
 45117  1  0  0  0
 46118  1  0  0  0
 47119  1  0  0  0
 47120  1  0  0  0
 48 56  1  0  0  0
 48 65  1  0  0  0
 48121  1  0  0  0
 49 50  1  0  0  0
 49 53  1  0  0  0
 49 64  1  0  0  0
 49122  1  0  0  0
 50 51  1  0  0  0
 50123  1  0  0  0
 50124  1  0  0  0
 51 52  1  0  0  0
 51125  1  0  0  0
 51126  1  0  0  0
 52127  1  0  0  0
 52128  1  0  0  0
 53 54  1  0  0  0
 54 55  2  0  0  0
 54129  1  0  0  0
 55 57  1  0  0  0
 55130  1  0  0  0
 56 69  2  0  0  0
 57 58  2  0  0  0
 57131  1  0  0  0
 58132  1  0  0  0
 59 60  1  0  0  0
 59 61  1  0  0  0
 59 62  1  0  0  0
 60133  1  0  0  0
 60134  1  0  0  0
 60135  1  0  0  0
 61136  1  0  0  0
 61137  1  0  0  0
 61138  1  0  0  0
 62139  1  0  0  0
 62140  1  0  0  0
 62141  1  0  0  0
 63 65  1  0  0  0
 63142  1  0  0  0
 63143  1  0  0  0
 63144  1  0  0  0
 64145  1  0  0  0
 65146  1  0  0  0
 68 81  1  0  0  0
 71 73  2  0  0  0
 71 74  1  0  0  0
 71147  1  0  0  0
 72 73  1  0  0  0
 72 75  2  0  0  0
 72 79  1  0  0  0
 73 82  1  0  0  0
 74 86  2  0  0  0
 74 80  1  0  0  0
 75 85  1  0  0  0
 75 86  1  0  0  0
 76 79  1  0  0  0
 76 81  1  0  0  0
 76148  1  0  0  0
 76149  1  0  0  0
 77 80  1  0  0  0
 77 87  1  0  0  0
 77150  1  0  0  0
 77151  1  0  0  0
 78 80  1  0  0  0
 78 87  1  0  0  0
 78152  1  0  0  0
 78153  1  0  0  0
 79 81  1  0  0  0
 79154  1  0  0  0
 80155  1  0  0  0
 81156  1  0  0  0
 82157  1  0  0  0
 82158  1  0  0  0
 82159  1  0  0  0
 83160  1  0  0  0
 83161  1  0  0  0
 83162  1  0  0  0
 83 85  1  0  0  0
 84 85  1  0  0  0
 84163  1  0  0  0
 84164  1  0  0  0
 84165  1  0  0  0
 85166  1  0  0  0
M  ISO  4   1 100  68 101  81 101  87 100
M  END
> <chiral flag>
0

> <version>
0

> <s_m_source_file>
/data/baiqing/PycharmProjects/Reinvent-master-3.2/result/LINK_invent/BTK/process_docking_weight1_custom_sum_contain_oxygen_bond_distance_aromatic_linkinvent_7_9_3/rearranged_h_0166.sdf

> <i_m_source_file_index>
67

> <r_mmod_Potential_Energy-OPLS-2005>
104.081787109375

> <r_mmod_Stretch_Energy-OPLS-2005>
99.9319305419922

> <r_mmod_Bend_Energy-OPLS-2005>
192.326736450195

> <r_mmod_Torsional_Energy-OPLS-2005>
285.679229736328

> <r_mmod_Improper_Torsional_Energy-OPLS-2005>
17.9914779663086

> <r_mmod_Van_der_Waal_Energy-OPLS-2005>
144.207504272461

> <r_mmod_Electrostatic_Energy-OPLS-2005>
-500.361846923828

> <r_mmod_Solvation_Energy-OPLS-2005>
-202.132064819336

> <b_mmod_Minimization_Converged-OPLS-2005>
0

> <r_mmod_RMS_Derivative-OPLS-2005>
3.56209564208984

$$$$
67
                    3D
 Structure written by MMmdl.
168177  0  0  1  0            999 V2000
  -30.6659  -14.6156   20.4661 C   0  0  0  0  0  0
  -30.4191  -12.3652   19.4613 C   0  0  0  0  0  0
  -29.5077  -12.4923   18.2220 C   0  0  0  0  0  0
  -28.0285  -12.3388   18.6302 C   0  0  0  0  0  0
  -27.6484  -13.2195   19.8537 C   0  0  2  0  0  0
  -28.6934  -13.1049   20.9866 C   0  0  0  0  0  0
  -25.2575  -13.8200   20.5645 C   0  0  0  0  0  0
  -24.1839  -13.0450   20.9164 C   0  0  0  0  0  0
  -24.6399  -11.6928   20.8722 C   0  0  0  0  0  0
  -23.9059  -10.4317   21.0390 C   0  0  0  0  0  0
  -24.3612   -9.4231   21.9167 C   0  0  0  0  0  0
  -23.6277   -8.2269   22.0758 C   0  0  0  0  0  0
  -22.4252   -8.0306   21.3557 C   0  0  0  0  0  0
  -21.9892   -9.0276   20.4654 C   0  0  0  0  0  0
  -22.7225  -10.2157   20.3051 C   0  0  0  0  0  0
  -21.6860   -6.0736   22.5279 C   0  0  0  0  0  0
  -21.4015   -6.5647   23.8211 C   0  0  0  0  0  0
  -21.3653   -5.6803   24.9173 C   0  0  0  0  0  0
  -21.6039   -4.3064   24.7224 C   0  0  0  0  0  0
  -21.8820   -3.8145   23.4352 C   0  0  0  0  0  0
  -21.9189   -4.6957   22.3400 C   0  0  0  0  0  0
  -22.7867  -13.5263   21.1834 C   0  0  0  0  0  0
  -22.1653   -4.2144   21.0967 F   0  0  0  0  0  0
  -21.5626   -3.4544   25.7732 F   0  0  0  0  0  0
  -30.0020  -13.4207   20.4032 N   0  0  0  0  0  0
  -26.2979  -12.9360   20.3255 N   0  0  0  0  0  0
  -25.9332  -11.6519   20.5720 N   0  0  0  0  0  0
  -22.0514  -12.8245   22.0397 N   0  0  0  0  0  0
  -25.4307  -15.1909   20.4062 N   0  0  0  0  0  0
  -31.8660  -14.6758   20.1811 O   0  0  0  0  0  0
  -21.6645   -6.8881   21.4247 O   0  0  0  0  0  0
  -22.3550  -14.5562   20.6687 O   0  0  0  0  0  0
  -24.6239  -31.8595   23.2016 C   0  0  0  0  0  0
  -25.9089  -32.4755   23.8353 C   0  0  1  0  0  0
  -27.2396  -27.3343   20.0999 C   0  0  0  0  0  0
  -25.5892  -33.8565   24.2263 N   0  0  0  0  0  0
  -23.4154  -30.4838   21.5430 C   0  0  2  0  0  0
  -24.8662  -28.9357   20.1107 C   0  0  0  0  0  0
  -22.7465  -29.4628   22.4920 C   0  0  0  0  0  0
  -18.0271  -28.1337   22.8547 C   0  0  0  0  0  0
  -24.1505  -36.7293   23.2645 C   0  0  0  0  0  0
  -25.9574  -30.7908   21.3735 C   0  0  0  0  0  0
  -26.0314  -29.4196   20.7160 C   0  0  0  0  0  0
  -27.2162  -28.6286   20.7026 C   0  0  0  0  0  0
  -26.0428  -26.8869   19.4912 C   0  0  0  0  0  0
  -24.8734  -27.6750   19.4916 C   0  0  0  0  0  0
  -23.6302  -29.8130   20.1595 C   0  0  0  0  0  0
  -25.4125  -36.3074   24.0327 C   0  0  1  0  0  0
  -20.5889  -28.3708   23.1263 C   0  0  2  0  0  0
  -20.6807  -26.9437   22.5347 C   0  0  0  0  0  0
  -19.5724  -26.6359   21.5226 C   0  0  0  0  0  0
  -18.1954  -26.7833   22.1789 C   0  0  0  0  0  0
  -19.1526  -28.8855   23.2866 C   0  0  0  0  0  0
  -18.9455  -30.1492   23.8812 C   0  0  0  0  0  0
  -17.6450  -30.6623   24.0472 C   0  0  0  0  0  0
  -25.9061  -34.9434   23.5104 C   0  0  0  0  0  0
  -16.5335  -29.9076   23.6327 C   0  0  0  0  0  0
  -16.7257  -28.6454   23.0422 C   0  0  0  0  0  0
  -26.4497  -31.6550   25.0703 C   0  0  0  0  0  0
  -25.3737  -31.3691   26.1425 C   0  0  0  0  0  0
  -27.0349  -30.2969   24.6155 C   0  0  0  0  0  0
  -27.6080  -32.4275   25.7455 C   0  0  0  0  0  0
  -27.5579  -37.1795   24.8463 C   0  0  0  0  0  0
  -21.4177  -29.3076   22.3683 N   0  0  0  0  0  0
  -26.4300  -37.3759   23.9397 N   0  0  0  0  0  0
  -24.6836  -31.0647   22.0940 N   0  0  0  0  0  0
  -23.4202  -28.8136   23.2972 O   0  0  0  0  0  0
  -28.4068  -26.5563   20.1477 O   0  0  0  0  0  0
  -26.5664  -34.8890   22.4692 O   0  0  0  0  0  0
  -23.5415  -32.1374   23.7364 O   0  0  0  0  0  0
  -29.8630  -20.2650   20.2946 C   0  0  0  0  0  0
  -28.9152  -18.0236   21.2478 C   0  0  0  0  0  0
  -30.7228  -18.0320   19.6195 C   0  0  0  0  0  0
  -29.3780  -16.5243   21.5032 C   0  0  0  0  0  0
  -30.1193  -16.6644   19.1971 C   0  0  0  0  0  0
  -29.5249  -22.3108   21.8260 C   0  0  0  0  0  0
  -28.3116  -22.4870   19.7883 C   0  0  1  0  0  0
  -28.8104  -21.3667   20.8108 C   0  0  2  0  0  0
  -28.3816  -23.9007   20.5149 C   0  0  2  0  0  0
  -28.9882  -22.4711   18.3959 C   0  0  0  0  0  0
  -27.5325  -20.7354   21.4195 C   0  0  0  0  0  0
  -27.2073  -24.1619   21.4800 C   0  0  0  0  0  0
  -28.5127  -25.1932   19.5819 C   0  0  0  0  0  0
  -29.7651  -18.8764   20.3701 N   0  0  0  0  0  0
  -29.9070  -15.7597   20.3447 N   0  0  0  0  0  0
  -30.8835  -20.7284   19.7710 O   0  0  0  0  0  0
  -29.5456  -23.6563   21.2987 O   0  0  0  0  0  0
  -31.4690  -12.4481   19.1765 H   0  0  0  0  0  0
  -30.3111  -11.3804   19.9205 H   0  0  0  0  0  0
  -29.7741  -11.7417   17.4766 H   0  0  0  0  0  0
  -29.6694  -13.4612   17.7471 H   0  0  0  0  0  0
  -27.8653  -11.2869   18.8670 H   0  0  0  0  0  0
  -27.3734  -12.5623   17.7877 H   0  0  0  0  0  0
  -27.6599  -14.2498   19.5005 H   0  0  0  0  0  0
  -28.7025  -12.1011   21.4123 H   0  0  0  0  0  0
  -28.4483  -13.7747   21.8092 H   0  0  0  0  0  0
  -25.2771   -9.5697   22.4720 H   0  0  0  0  0  0
  -23.9978   -7.4687   22.7508 H   0  0  0  0  0  0
  -21.0813   -8.8803   19.8990 H   0  0  0  0  0  0
  -22.3683  -10.9675   19.6154 H   0  0  0  0  0  0
  -21.2022   -7.6161   23.9698 H   0  0  0  0  0  0
  -21.1456   -6.0539   25.9069 H   0  0  0  0  0  0
  -22.0592   -2.7610   23.2851 H   0  0  0  0  0  0
  -22.4124  -11.9879   22.4725 H   0  0  0  0  0  0
  -21.1149  -13.1296   22.2627 H   0  0  0  0  0  0
  -24.6762  -15.8530   20.5447 H   0  0  0  0  0  0
  -26.2902  -15.6291   20.0992 H   0  0  0  0  0  0
  -26.7146  -32.5440   23.1105 H   0  0  0  0  0  0
  -24.9997  -33.9739   25.0372 H   0  0  0  0  0  0
  -22.7053  -31.2998   21.4010 H   0  0  0  0  0  0
  -23.3753  -35.9640   23.3324 H   0  0  0  0  0  0
  -24.3603  -36.8904   22.2056 H   0  0  0  0  0  0
  -23.7263  -37.6499   23.6668 H   0  0  0  0  0  0
  -26.0924  -31.5546   20.6054 H   0  0  0  0  0  0
  -26.8363  -30.8371   22.0052 H   0  0  0  0  0  0
  -28.1182  -28.9978   21.1717 H   0  0  0  0  0  0
  -25.9732  -25.9185   19.0224 H   0  0  0  0  0  0
  -23.9757  -27.3034   19.0163 H   0  0  0  0  0  0
  -23.7334  -30.5852   19.3970 H   0  0  0  0  0  0
  -22.7533  -29.2329   19.8674 H   0  0  0  0  0  0
  -25.1301  -36.1945   25.0817 H   0  0  0  0  0  0
  -20.9996  -28.3310   24.1381 H   0  0  0  0  0  0
  -20.5830  -26.2283   23.3527 H   0  0  0  0  0  0
  -21.6658  -26.7541   22.1073 H   0  0  0  0  0  0
  -19.6906  -25.6269   21.1237 H   0  0  0  0  0  0
  -19.6520  -27.3172   20.6748 H   0  0  0  0  0  0
  -17.4131  -26.6378   21.4329 H   0  0  0  0  0  0
  -18.0568  -26.0057   22.9302 H   0  0  0  0  0  0
  -19.7939  -30.7346   24.2095 H   0  0  0  0  0  0
  -17.5022  -31.6353   24.4984 H   0  0  0  0  0  0
  -15.5345  -30.3000   23.7644 H   0  0  0  0  0  0
  -15.8643  -28.0743   22.7230 H   0  0  0  0  0  0
  -24.5929  -30.7020   25.7739 H   0  0  0  0  0  0
  -24.8921  -32.2873   26.4814 H   0  0  0  0  0  0
  -25.8064  -30.8883   27.0210 H   0  0  0  0  0  0
  -26.2932  -29.6699   24.1187 H   0  0  0  0  0  0
  -27.4065  -29.7217   25.4652 H   0  0  0  0  0  0
  -27.8794  -30.4250   23.9372 H   0  0  0  0  0  0
  -27.2709  -33.3578   26.2043 H   0  0  0  0  0  0
  -28.3881  -32.6817   25.0262 H   0  0  0  0  0  0
  -28.0751  -31.8375   26.5358 H   0  0  0  0  0  0
  -28.2590  -38.0097   24.7490 H   0  0  0  0  0  0
  -28.1076  -36.2618   24.6316 H   0  0  0  0  0  0
  -27.2296  -37.1460   25.8867 H   0  0  0  0  0  0
  -20.9346  -29.8856   21.6949 H   0  0  0  0  0  0
  -26.0186  -38.2839   24.1378 H   0  0  0  0  0  0
  -27.9170  -17.9950   20.8101 H   0  0  0  0  0  0
  -28.8272  -18.4824   22.2292 H   0  0  0  0  0  0
  -31.0462  -18.5330   18.7065 H   0  0  0  0  0  0
  -31.6213  -17.8814   20.2216 H   0  0  0  0  0  0
  -28.5285  -15.9870   21.9190 H   0  0  0  0  0  0
  -30.1421  -16.5224   22.2844 H   0  0  0  0  0  0
  -30.7733  -16.2014   18.4539 H   0  0  0  0  0  0
  -29.1686  -16.8157   18.6828 H   0  0  0  0  0  0
  -30.5529  -22.0138   22.0346 H   0  0  0  0  0  0
  -29.0263  -22.3010   22.7955 H   0  0  0  0  0  0
  -27.2621  -22.3005   19.5541 H   0  0  0  0  0  0
  -30.0379  -22.7634   18.4376 H   0  0  0  0  0  0
  -28.4933  -23.1463   17.7018 H   0  0  0  0  0  0
  -28.9339  -21.4821   17.9383 H   0  0  0  0  0  0
  -26.7621  -21.4712   21.6288 H   0  0  0  0  0  0
  -27.0706  -20.0331   20.7258 H   0  0  0  0  0  0
  -27.7098  -20.2428   22.3705 H   0  0  0  0  0  0
  -27.1572  -23.4705   22.3161 H   0  0  0  0  0  0
  -26.2521  -24.1309   20.9580 H   0  0  0  0  0  0
  -27.3074  -25.1458   21.9355 H   0  0  0  0  0  0
  -27.8310  -25.0843   18.7425 H   0  0  0  0  0  0
  -29.4966  -25.1476   19.1125 H   0  0  0  0  0  0
  1 25  1  0  0  0
  1 30  2  0  0  0
  1 85  1  0  0  0
  2  3  1  0  0  0
  2 25  1  0  0  0
  2 88  1  0  0  0
  2 89  1  0  0  0
  3  4  1  0  0  0
  3 90  1  0  0  0
  3 91  1  0  0  0
  4  5  1  0  0  0
  4 92  1  0  0  0
  4 93  1  0  0  0
  5  6  1  0  0  0
  5 26  1  0  0  0
  5 94  1  0  0  0
  6 25  1  0  0  0
  6 95  1  0  0  0
  6 96  1  0  0  0
  7  8  2  0  0  0
  7 26  1  0  0  0
  7 29  1  0  0  0
  8  9  1  0  0  0
  8 22  1  0  0  0
  9 10  1  0  0  0
  9 27  2  0  0  0
 10 11  2  0  0  0
 10 15  1  0  0  0
 11 12  1  0  0  0
 11 97  1  0  0  0
 12 13  2  0  0  0
 12 98  1  0  0  0
 13 14  1  0  0  0
 13 31  1  0  0  0
 14 15  2  0  0  0
 14 99  1  0  0  0
 15100  1  0  0  0
 16 17  2  0  0  0
 16 21  1  0  0  0
 16 31  1  0  0  0
 17 18  1  0  0  0
 17101  1  0  0  0
 18 19  2  0  0  0
 18102  1  0  0  0
 19 20  1  0  0  0
 19 24  1  0  0  0
 20 21  2  0  0  0
 20103  1  0  0  0
 21 23  1  0  0  0
 22 28  1  0  0  0
 22 32  2  0  0  0
 26 27  1  0  0  0
 28104  1  0  0  0
 28105  1  0  0  0
 29106  1  0  0  0
 29107  1  0  0  0
 33 34  1  0  0  0
 33 66  1  0  0  0
 33 70  2  0  0  0
 34 36  1  0  0  0
 34 59  1  0  0  0
 34108  1  0  0  0
 35 44  2  0  0  0
 35 45  1  0  0  0
 35 68  1  0  0  0
 36 56  1  0  0  0
 36109  1  0  0  0
 37 39  1  0  0  0
 37 47  1  0  0  0
 37 66  1  0  0  0
 37110  1  0  0  0
 38 43  2  0  0  0
 38 46  1  0  0  0
 38 47  1  0  0  0
 39 64  1  0  0  0
 39 67  2  0  0  0
 40 52  1  0  0  0
 40 53  2  0  0  0
 40 58  1  0  0  0
 41111  1  0  0  0
 41112  1  0  0  0
 41113  1  0  0  0
 41 48  1  0  0  0
 42 43  1  0  0  0
 42 66  1  0  0  0
 42114  1  0  0  0
 42115  1  0  0  0
 43 44  1  0  0  0
 44116  1  0  0  0
 45 46  2  0  0  0
 45117  1  0  0  0
 46118  1  0  0  0
 47119  1  0  0  0
 47120  1  0  0  0
 48 56  1  0  0  0
 48 65  1  0  0  0
 48121  1  0  0  0
 49 50  1  0  0  0
 49 53  1  0  0  0
 49 64  1  0  0  0
 49122  1  0  0  0
 50 51  1  0  0  0
 50123  1  0  0  0
 50124  1  0  0  0
 51 52  1  0  0  0
 51125  1  0  0  0
 51126  1  0  0  0
 52127  1  0  0  0
 52128  1  0  0  0
 53 54  1  0  0  0
 54 55  2  0  0  0
 54129  1  0  0  0
 55 57  1  0  0  0
 55130  1  0  0  0
 56 69  2  0  0  0
 57 58  2  0  0  0
 57131  1  0  0  0
 58132  1  0  0  0
 59 60  1  0  0  0
 59 61  1  0  0  0
 59 62  1  0  0  0
 60133  1  0  0  0
 60134  1  0  0  0
 60135  1  0  0  0
 61136  1  0  0  0
 61137  1  0  0  0
 61138  1  0  0  0
 62139  1  0  0  0
 62140  1  0  0  0
 62141  1  0  0  0
 63 65  1  0  0  0
 63142  1  0  0  0
 63143  1  0  0  0
 63144  1  0  0  0
 64145  1  0  0  0
 65146  1  0  0  0
 68 83  1  0  0  0
 71 84  1  0  0  0
 71 86  2  0  0  0
 71 78  1  0  0  0
 72 74  1  0  0  0
 72 84  1  0  0  0
 72147  1  0  0  0
 72148  1  0  0  0
 73 75  1  0  0  0
 73 84  1  0  0  0
 73149  1  0  0  0
 73150  1  0  0  0
 74 85  1  0  0  0
 74151  1  0  0  0
 74152  1  0  0  0
 75 85  1  0  0  0
 75153  1  0  0  0
 75154  1  0  0  0
 76 78  1  0  0  0
 76 87  1  0  0  0
 76155  1  0  0  0
 76156  1  0  0  0
 77 78  1  0  0  0
 77 79  1  0  0  0
 77 80  1  0  0  0
 77157  1  0  0  0
 78 81  1  0  0  0
 79 82  1  0  0  0
 79 83  1  0  0  0
 79 87  1  0  0  0
 80158  1  0  0  0
 80159  1  0  0  0
 80160  1  0  0  0
 81161  1  0  0  0
 81162  1  0  0  0
 81163  1  0  0  0
 82164  1  0  0  0
 82165  1  0  0  0
 82166  1  0  0  0
 83167  1  0  0  0
 83168  1  0  0  0
M  ISO  4   1 100  68 101  83 101  85 100
M  END
> <chiral flag>
0

> <version>
0

> <s_m_source_file>
/data/baiqing/PycharmProjects/Reinvent-master-3.2/result/LINK_invent/BTK/process_docking_weight1_custom_sum_contain_oxygen_bond_distance_aromatic_linkinvent_7_9_3/rearranged_h_0166.sdf

> <i_m_source_file_index>
68

> <r_mmod_Potential_Energy-OPLS-2005>
481.496826171875

> <r_mmod_Stretch_Energy-OPLS-2005>
95.0915603637695

> <r_mmod_Bend_Energy-OPLS-2005>
205.20930480957

> <r_mmod_Torsional_Energy-OPLS-2005>
440.345336914062

> <r_mmod_Improper_Torsional_Energy-OPLS-2005>
18.1513404846191

> <r_mmod_Van_der_Waal_Energy-OPLS-2005>
161.348770141602

> <r_mmod_Electrostatic_Energy-OPLS-2005>
-255.952972412109

> <r_mmod_Solvation_Energy-OPLS-2005>
-225.672607421875

> <b_mmod_Minimization_Converged-OPLS-2005>
0

> <r_mmod_RMS_Derivative-OPLS-2005>
3.57831454277039

$$$$
68
                    3D
 Structure written by MMmdl.
175186  0  0  1  0            999 V2000
  -28.6168  -16.3573   21.0521 C   0  0  0  0  0  0
  -29.9677  -13.9436   19.8836 C   0  0  0  0  0  0
  -29.4969  -13.0383   18.6351 C   0  0  0  0  0  0
  -28.1696  -12.3294   18.9089 C   0  0  0  0  0  0
  -27.4124  -13.2679   19.8439 C   0  0  2  0  0  0
  -28.1382  -13.6608   21.1318 C   0  0  0  0  0  0
  -25.1266  -13.8024   20.5442 C   0  0  0  0  0  0
  -24.0898  -13.0217   20.9335 C   0  0  0  0  0  0
  -24.5635  -11.6721   20.8776 C   0  0  0  0  0  0
  -23.8622  -10.4103   21.0503 C   0  0  0  0  0  0
  -24.3359   -9.4076   21.9233 C   0  0  0  0  0  0
  -23.6136   -8.2066   22.0727 C   0  0  0  0  0  0
  -22.4134   -8.0093   21.3513 C   0  0  0  0  0  0
  -21.9684   -9.0022   20.4631 C   0  0  0  0  0  0
  -22.6892  -10.1935   20.3085 C   0  0  0  0  0  0
  -21.6785   -6.0628   22.5306 C   0  0  0  0  0  0
  -21.3951   -6.5569   23.8224 C   0  0  0  0  0  0
  -21.3664   -5.6746   24.9199 C   0  0  0  0  0  0
  -21.6046   -4.3010   24.7250 C   0  0  0  0  0  0
  -21.8841   -3.8085   23.4384 C   0  0  0  0  0  0
  -21.9150   -4.6871   22.3425 C   0  0  0  0  0  0
  -22.7069  -13.5044   21.2169 C   0  0  0  0  0  0
  -22.1646   -4.2078   21.0996 F   0  0  0  0  0  0
  -21.5648   -3.4508   25.7770 F   0  0  0  0  0  0
  -28.8559  -14.8361   20.6926 N   0  0  0  0  0  0
  -26.1228  -12.9043   20.2439 N   0  0  0  0  0  0
  -25.8352  -11.6243   20.5291 N   0  0  0  0  0  0
  -21.9839  -12.8007   22.0766 N   0  0  0  0  0  0
  -25.3129  -15.1808   20.3930 N   0  0  0  0  0  0
  -29.8878  -16.5546   20.8334 O   0  0  0  0  0  0
  -21.6523   -6.8713   21.4247 O   0  0  0  0  0  0
  -22.2814  -14.5427   20.7110 O   0  0  0  0  0  0
  -24.7487  -32.0195   23.2016 C   0  0  0  0  0  0
  -26.0224  -32.5402   23.8772 C   0  0  1  0  0  0
  -26.8011  -27.2763   20.1538 C   0  0  0  0  0  0
  -25.7009  -33.9077   24.2866 N   0  0  0  0  0  0
  -23.5830  -30.8031   21.4862 C   0  0  2  0  0  0
  -24.8734  -29.1940   19.9895 C   0  0  0  0  0  0
  -23.0373  -29.8366   22.4911 C   0  0  0  0  0  0
  -18.5018  -26.0461   22.6502 C   0  0  0  0  0  0
  -24.1540  -36.7390   23.2560 C   0  0  0  0  0  0
  -26.0933  -30.8484   21.4138 C   0  0  0  0  0  0
  -26.0249  -29.4865   20.7332 C   0  0  0  0  0  0
  -27.0280  -28.4932   20.8508 C   0  0  0  0  0  0
  -25.9072  -27.2065   19.1068 C   0  0  0  0  0  0
  -24.8362  -28.0865   19.1330 C   0  0  0  0  0  0
  -23.7444  -30.1774   20.0758 C   0  0  0  0  0  0
  -25.4164  -36.3356   24.0349 C   0  0  1  0  0  0
  -21.7716  -28.2523   22.2521 C   0  0  2  0  0  0
  -21.5596  -27.5699   20.4011 C   0  0  0  0  0  0
  -20.0793  -26.2171   19.8195 C   0  0  0  0  0  0
  -18.5865  -25.5896   20.9646 C   0  0  0  0  0  0
  -20.7075  -27.8798   23.5061 C   0  0  0  0  0  0
  -19.9684  -29.0528   24.5461 C   0  0  0  0  0  0
  -18.3589  -29.0883   24.9526 C   0  0  0  0  0  0
  -25.9295  -34.9789   23.5210 C   0  0  0  0  0  0
  -17.1069  -28.0932   24.5057 C   0  0  0  0  0  0
  -17.0820  -26.7284   23.4915 C   0  0  0  0  0  0
  -26.4811  -31.6700   25.1040 C   0  0  0  0  0  0
  -25.3687  -31.3855   26.1417 C   0  0  0  0  0  0
  -27.0444  -30.3061   24.6415 C   0  0  0  0  0  0
  -27.6372  -32.4066   25.8160 C   0  0  0  0  0  0
  -27.5639  -37.1979   24.8470 C   0  0  0  0  0  0
  -21.7912  -29.6115   22.2756 N   0  0  0  0  0  0
  -26.4306  -37.4076   23.9481 N   0  0  0  0  0  0
  -24.8353  -31.2849   22.0577 N   0  0  0  0  0  0
  -23.7224  -29.2876   23.3788 O   0  0  0  0  0  0
  -26.7822  -26.0685   20.7779 O   0  0  0  0  0  0
  -26.5442  -34.9137   22.4525 O   0  0  0  0  0  0
  -23.6583  -32.3113   23.7275 O   0  0  0  0  0  0
  -19.6062  -27.6374   21.5903 C   0  0  0  0  0  0
  -19.3448  -26.6074   24.5145 C   0  0  0  0  0  0
  -18.7294  -28.1713   22.7636 C   0  0  0  0  0  0
  -20.7912  -26.0575   22.1016 C   0  0  0  0  0  0
  -18.3543  -30.6576   21.8547 C   0  0  0  0  0  0
  -17.1069  -30.5585   22.6905 C   0  0  0  0  0  0
  -22.9100  -24.9652   20.0558 C   0  0  0  0  0  0
  -24.4742  -24.6017   20.0443 C   0  0  0  0  0  0
  -22.5231  -21.8169   22.8636 C   0  0  0  0  0  0
  -23.8640  -22.8456   23.2349 C   0  0  0  0  0  0
  -17.7792  -29.2914   22.1621 C   0  0  0  0  0  0
  -22.4265  -25.4339   21.5102 C   0  0  1  0  0  0
  -24.3362  -21.1018   22.4727 C   0  0  1  0  0  0
  -24.0031  -26.0370   21.8894 C   0  0  2  0  0  0
  -22.0616  -23.6043   23.5991 C   0  0  2  0  0  0
  -25.3231  -25.4422   21.0767 C   0  0  2  0  0  0
  -24.3609  -26.1736   23.3927 C   0  0  0  0  0  0
  -26.1248  -19.3261   22.1717 C   0  0  0  0  0  0
  -20.7122  -25.3491   23.5792 N   0  0  0  0  0  0
  -27.2135  -17.5059   21.4947 N   0  0  0  0  0  0
  -30.7094  -14.6469   19.4963 H   0  0  0  0  0  0
  -30.5418  -13.3391   20.5914 H   0  0  0  0  0  0
  -30.2742  -12.3357   18.3277 H   0  0  0  0  0  0
  -29.3408  -13.7073   17.7911 H   0  0  0  0  0  0
  -28.3458  -11.3728   19.4059 H   0  0  0  0  0  0
  -27.6262  -12.1379   17.9813 H   0  0  0  0  0  0
  -27.2496  -14.1458   19.2123 H   0  0  0  0  0  0
  -28.7142  -12.8497   21.5776 H   0  0  0  0  0  0
  -27.4507  -13.9787   21.9177 H   0  0  0  0  0  0
  -25.2501   -9.5595   22.4795 H   0  0  0  0  0  0
  -23.9898   -7.4385   22.7333 H   0  0  0  0  0  0
  -21.0674   -8.8443   19.8875 H   0  0  0  0  0  0
  -22.3339  -10.9461   19.6195 H   0  0  0  0  0  0
  -21.1943   -7.6081   23.9706 H   0  0  0  0  0  0
  -21.1490   -6.0481   25.9101 H   0  0  0  0  0  0
  -22.0623   -2.7546   23.2905 H   0  0  0  0  0  0
  -22.3479  -11.9659   22.5123 H   0  0  0  0  0  0
  -21.0491  -13.1055   22.3110 H   0  0  0  0  0  0
  -24.4823  -15.7648   20.4020 H   0  0  0  0  0  0
  -25.9453  -15.4505   19.6503 H   0  0  0  0  0  0
  -26.8489  -32.5904   23.1701 H   0  0  0  0  0  0
  -25.1501  -34.0180   25.1257 H   0  0  0  0  0  0
  -22.8913  -31.6444   21.3927 H   0  0  0  0  0  0
  -23.3903  -35.9620   23.3215 H   0  0  0  0  0  0
  -24.3678  -36.9004   22.1980 H   0  0  0  0  0  0
  -23.7139  -37.6537   23.6525 H   0  0  0  0  0  0
  -26.3656  -31.5885   20.6625 H   0  0  0  0  0  0
  -26.9418  -30.8028   22.0827 H   0  0  0  0  0  0
  -27.7897  -28.5648   21.6159 H   0  0  0  0  0  0
  -25.8234  -26.3255   18.4919 H   0  0  0  0  0  0
  -24.0147  -27.9552   18.4411 H   0  0  0  0  0  0
  -23.9969  -30.9934   19.3960 H   0  0  0  0  0  0
  -22.8190  -29.7901   19.6711 H   0  0  0  0  0  0
  -25.1274  -36.2230   25.0833 H   0  0  0  0  0  0
  -22.5033  -27.6374   22.7396 H   0  0  0  0  0  0
  -22.5211  -27.4815   19.9319 H   0  0  0  0  0  0
  -21.2544  -28.4339   19.8144 H   0  0  0  0  0  0
  -20.5131  -25.3299   19.3643 H   0  0  0  0  0  0
  -19.5936  -26.6600   18.9504 H   0  0  0  0  0  0
  -17.6550  -25.9396   20.5135 H   0  0  0  0  0  0
  -18.5318  -24.4995   20.9212 H   0  0  0  0  0  0
  -20.5777  -29.8882   24.8571 H   0  0  0  0  0  0
  -18.0788  -29.9134   25.5938 H   0  0  0  0  0  0
  -16.1360  -28.3984   24.8758 H   0  0  0  0  0  0
  -16.1107  -26.3410   23.2182 H   0  0  0  0  0  0
  -24.5839  -30.7477   25.7344 H   0  0  0  0  0  0
  -24.8954  -32.3034   26.4898 H   0  0  0  0  0  0
  -25.7612  -30.8719   27.0205 H   0  0  0  0  0  0
  -26.3057  -29.7147   24.1007 H   0  0  0  0  0  0
  -27.3617  -29.7022   25.4927 H   0  0  0  0  0  0
  -27.9219  -30.4256   24.0068 H   0  0  0  0  0  0
  -27.3110  -33.3358   26.2843 H   0  0  0  0  0  0
  -28.4372  -32.6580   25.1186 H   0  0  0  0  0  0
  -28.0763  -31.7952   26.6060 H   0  0  0  0  0  0
  -28.2577  -38.0369   24.7746 H   0  0  0  0  0  0
  -28.1245  -36.2944   24.6028 H   0  0  0  0  0  0
  -27.2404  -37.1291   25.8874 H   0  0  0  0  0  0
  -21.2885  -30.1201   21.5652 H   0  0  0  0  0  0
  -26.0186  -38.3116   24.1634 H   0  0  0  0  0  0
  -19.4461  -28.2404   20.6987 H   0  0  0  0  0  0
  -19.0111  -26.4404   25.5285 H   0  0  0  0  0  0
  -19.2540  -30.9704   22.3797 H   0  0  0  0  0  0
  -18.2686  -31.0078   20.8290 H   0  0  0  0  0  0
  -16.1743  -30.8389   22.1982 H   0  0  0  0  0  0
  -17.1858  -30.8863   23.7205 H   0  0  0  0  0  0
  -22.3333  -24.1040   19.7055 H   0  0  0  0  0  0
  -22.7793  -25.6667   19.2424 H   0  0  0  0  0  0
  -24.8692  -24.6305   19.0382 H   0  0  0  0  0  0
  -24.5772  -23.5444   20.2999 H   0  0  0  0  0  0
  -22.0280  -21.1114   23.5341 H   0  0  0  0  0  0
  -21.9669  -21.7358   21.9232 H   0  0  0  0  0  0
  -24.4139  -23.5393   22.6329 H   0  0  0  0  0  0
  -24.4005  -22.8870   24.1848 H   0  0  0  0  0  0
  -17.2382  -28.8093   21.3468 H   0  0  0  0  0  0
  -22.3642  -24.3826   21.6274 H   0  0  0  0  0  0
  -24.3663  -21.3881   21.4221 H   0  0  0  0  0  0
  -24.0100  -27.0527   21.5172 H   0  0  0  0  0  0
  -22.1366  -23.5640   24.6864 H   0  0  0  0  0  0
  -25.7545  -24.6894   21.7254 H   0  0  0  0  0  0
  -24.9378  -25.3357   23.7745 H   0  0  0  0  0  0
  -23.4956  -26.2816   24.0461 H   0  0  0  0  0  0
  -24.9851  -27.0590   23.5325 H   0  0  0  0  0  0
  -26.4077  -19.1920   23.2130 H   0  0  0  0  0  0
  -26.9050  -19.9697   21.7620 H   0  0  0  0  0  0
  -26.4491  -16.8366   21.4222 H   0  0  0  0  0  0
  1 25  1  0  0  0
  1 30  2  0  0  0
  1 90  1  0  0  0
  2  3  1  0  0  0
  2 25  1  0  0  0
  2 91  1  0  0  0
  2 92  1  0  0  0
  3  4  1  0  0  0
  3 93  1  0  0  0
  3 94  1  0  0  0
  4  5  1  0  0  0
  4 95  1  0  0  0
  4 96  1  0  0  0
  5  6  1  0  0  0
  5 26  1  0  0  0
  5 97  1  0  0  0
  6 25  1  0  0  0
  6 98  1  0  0  0
  6 99  1  0  0  0
  7  8  2  0  0  0
  7 26  1  0  0  0
  7 29  1  0  0  0
  8  9  1  0  0  0
  8 22  1  0  0  0
  9 10  1  0  0  0
  9 27  2  0  0  0
 10 11  2  0  0  0
 10 15  1  0  0  0
 11 12  1  0  0  0
 11100  1  0  0  0
 12 13  2  0  0  0
 12101  1  0  0  0
 13 14  1  0  0  0
 13 31  1  0  0  0
 14 15  2  0  0  0
 14102  1  0  0  0
 15103  1  0  0  0
 16 17  2  0  0  0
 16 21  1  0  0  0
 16 31  1  0  0  0
 17 18  1  0  0  0
 17104  1  0  0  0
 18 19  2  0  0  0
 18105  1  0  0  0
 19 20  1  0  0  0
 19 24  1  0  0  0
 20 21  2  0  0  0
 20106  1  0  0  0
 21 23  1  0  0  0
 22 28  1  0  0  0
 22 32  2  0  0  0
 26 27  1  0  0  0
 28107  1  0  0  0
 28108  1  0  0  0
 29109  1  0  0  0
 29110  1  0  0  0
 33 34  1  0  0  0
 33 66  1  0  0  0
 33 70  2  0  0  0
 34 36  1  0  0  0
 34 59  1  0  0  0
 34111  1  0  0  0
 35 44  2  0  0  0
 35 45  1  0  0  0
 35 68  1  0  0  0
 36 56  1  0  0  0
 36112  1  0  0  0
 37 39  1  0  0  0
 37 47  1  0  0  0
 37 66  1  0  0  0
 37113  1  0  0  0
 38 43  2  0  0  0
 38 46  1  0  0  0
 38 47  1  0  0  0
 39 64  1  0  0  0
 39 67  2  0  0  0
 40 52  1  0  0  0
 40 53  2  0  0  0
 40 58  1  0  0  0
 41114  1  0  0  0
 41115  1  0  0  0
 41116  1  0  0  0
 41 48  1  0  0  0
 42 43  1  0  0  0
 42 66  1  0  0  0
 42117  1  0  0  0
 42118  1  0  0  0
 43 44  1  0  0  0
 44119  1  0  0  0
 45 46  2  0  0  0
 45120  1  0  0  0
 46121  1  0  0  0
 47122  1  0  0  0
 47123  1  0  0  0
 48 56  1  0  0  0
 48 65  1  0  0  0
 48124  1  0  0  0
 49 50  1  0  0  0
 49 53  1  0  0  0
 49 64  1  0  0  0
 49125  1  0  0  0
 50 51  1  0  0  0
 50126  1  0  0  0
 50127  1  0  0  0
 51 52  1  0  0  0
 51128  1  0  0  0
 51129  1  0  0  0
 52130  1  0  0  0
 52131  1  0  0  0
 53 54  1  0  0  0
 54 55  2  0  0  0
 54132  1  0  0  0
 55 57  1  0  0  0
 55133  1  0  0  0
 56 69  2  0  0  0
 57 58  2  0  0  0
 57134  1  0  0  0
 58135  1  0  0  0
 59 60  1  0  0  0
 59 61  1  0  0  0
 59 62  1  0  0  0
 60136  1  0  0  0
 60137  1  0  0  0
 60138  1  0  0  0
 61139  1  0  0  0
 61140  1  0  0  0
 61141  1  0  0  0
 62142  1  0  0  0
 62143  1  0  0  0
 62144  1  0  0  0
 63 65  1  0  0  0
 63145  1  0  0  0
 63146  1  0  0  0
 63147  1  0  0  0
 64148  1  0  0  0
 65149  1  0  0  0
 68 86  1  0  0  0
 71 73  1  0  0  0
 71 74  2  0  0  0
 71150  1  0  0  0
 72 73  2  0  0  0
 72 89  1  0  0  0
 72151  1  0  0  0
 73 81  1  0  0  0
 74 89  1  0  0  0
 74 82  1  0  0  0
 75 76  1  0  0  0
 75 81  1  0  0  0
 75152  1  0  0  0
 75153  1  0  0  0
 76 81  1  0  0  0
 76154  1  0  0  0
 76155  1  0  0  0
 77 78  1  0  0  0
 77 82  1  0  0  0
 77156  1  0  0  0
 77157  1  0  0  0
 78 86  1  0  0  0
 78158  1  0  0  0
 78159  1  0  0  0
 79 83  1  0  0  0
 79 85  1  0  0  0
 79160  1  0  0  0
 79161  1  0  0  0
 80 83  1  0  0  0
 80 85  1  0  0  0
 80162  1  0  0  0
 80163  1  0  0  0
 81164  1  0  0  0
 82 84  1  0  0  0
 82165  1  0  0  0
 83 88  1  0  0  0
 83166  1  0  0  0
 84 86  1  0  0  0
 84 87  1  0  0  0
 84167  1  0  0  0
 85 89  1  0  0  0
 85168  1  0  0  0
 86169  1  0  0  0
 87170  1  0  0  0
 87171  1  0  0  0
 87172  1  0  0  0
 88 90  1  0  0  0
 88173  1  0  0  0
 88174  1  0  0  0
 90175  1  0  0  0
M  ISO  4   1 100  68 101  86 101  90 100
M  END
> <chiral flag>
0

> <version>
0

> <s_m_source_file>
/data/baiqing/PycharmProjects/Reinvent-master-3.2/result/LINK_invent/BTK/process_docking_weight1_custom_sum_contain_oxygen_bond_distance_aromatic_linkinvent_7_9_3/rearranged_h_0166.sdf

> <i_m_source_file_index>
69

> <r_mmod_Potential_Energy-OPLS-2005>
31165.38671875

> <r_mmod_Stretch_Energy-OPLS-2005>
16396.05859375

> <r_mmod_Bend_Energy-OPLS-2005>
2423.02783203125

> <r_mmod_Torsional_Energy-OPLS-2005>
629.821838378906

> <r_mmod_Improper_Torsional_Energy-OPLS-2005>
67.2057723999023

> <r_mmod_Van_der_Waal_Energy-OPLS-2005>
5330.23681640625

> <r_mmod_Electrostatic_Energy-OPLS-2005>
-367.910949707031

> <r_mmod_Solvation_Energy-OPLS-2005>
-206.197677612305

> <b_mmod_Minimization_Converged-OPLS-2005>
0

> <r_mmod_RMS_Derivative-OPLS-2005>
12.9781274795532

$$$$
69
                    3D
 Structure written by MMmdl.
167177  0  0  1  0            999 V2000
  -30.7137  -14.5467   20.5578 C   0  0  0  0  0  0
  -30.4173  -12.3511   19.4459 C   0  0  0  0  0  0
  -29.4961  -12.5063   18.2195 C   0  0  0  0  0  0
  -28.0208  -12.3553   18.6350 C   0  0  0  0  0  0
  -27.6557  -13.2211   19.8708 C   0  0  2  0  0  0
  -28.6995  -13.0659   21.0006 C   0  0  0  0  0  0
  -25.2563  -13.8190   20.5708 C   0  0  0  0  0  0
  -24.1824  -13.0447   20.9173 C   0  0  0  0  0  0
  -24.6400  -11.6918   20.8740 C   0  0  0  0  0  0
  -23.9072  -10.4301   21.0405 C   0  0  0  0  0  0
  -24.3619   -9.4212   21.9180 C   0  0  0  0  0  0
  -23.6292   -8.2249   22.0753 C   0  0  0  0  0  0
  -22.4272   -8.0284   21.3546 C   0  0  0  0  0  0
  -21.9913   -9.0260   20.4646 C   0  0  0  0  0  0
  -22.7245  -10.2137   20.3053 C   0  0  0  0  0  0
  -21.6853   -6.0736   22.5279 C   0  0  0  0  0  0
  -21.4015   -6.5641   23.8212 C   0  0  0  0  0  0
  -21.3661   -5.6794   24.9175 C   0  0  0  0  0  0
  -21.6040   -4.3054   24.7224 C   0  0  0  0  0  0
  -21.8819   -3.8146   23.4345 C   0  0  0  0  0  0
  -21.9196   -4.6964   22.3402 C   0  0  0  0  0  0
  -22.7845  -13.5236   21.1838 C   0  0  0  0  0  0
  -22.1662   -4.2149   21.0979 F   0  0  0  0  0  0
  -21.5631   -3.4538   25.7738 F   0  0  0  0  0  0
  -30.0246  -13.3701   20.4390 N   0  0  0  0  0  0
  -26.3009  -12.9386   20.3379 N   0  0  0  0  0  0
  -25.9337  -11.6528   20.5783 N   0  0  0  0  0  0
  -22.0485  -12.8236   22.0394 N   0  0  0  0  0  0
  -25.4278  -15.1907   20.4131 N   0  0  0  0  0  0
  -31.8177  -14.7010   20.0246 O   0  0  0  0  0  0
  -21.6637   -6.8875   21.4240 O   0  0  0  0  0  0
  -22.3536  -14.5544   20.6685 O   0  0  0  0  0  0
  -24.6206  -31.8628   23.2090 C   0  0  0  0  0  0
  -25.9078  -32.4786   23.8394 C   0  0  1  0  0  0
  -27.2174  -27.3816   20.1032 C   0  0  0  0  0  0
  -25.5907  -33.8588   24.2318 N   0  0  0  0  0  0
  -23.4129  -30.4892   21.5494 C   0  0  2  0  0  0
  -24.8632  -28.9621   20.0976 C   0  0  0  0  0  0
  -22.7453  -29.4635   22.4957 C   0  0  0  0  0  0
  -18.0291  -28.1375   22.8496 C   0  0  0  0  0  0
  -24.1489  -36.7311   23.2639 C   0  0  0  0  0  0
  -25.9491  -30.8101   21.3761 C   0  0  0  0  0  0
  -26.0256  -29.4454   20.7145 C   0  0  0  0  0  0
  -27.2086  -28.6584   20.7270 C   0  0  0  0  0  0
  -26.0578  -26.9555   19.4255 C   0  0  0  0  0  0
  -24.8763  -27.7181   19.4456 C   0  0  0  0  0  0
  -23.6256  -29.8304   20.1602 C   0  0  0  0  0  0
  -25.4108  -36.3091   24.0335 C   0  0  1  0  0  0
  -20.5894  -28.3680   23.1313 C   0  0  2  0  0  0
  -20.6813  -26.9424   22.5405 C   0  0  0  0  0  0
  -19.5779  -26.6389   21.5215 C   0  0  0  0  0  0
  -18.1956  -26.7919   22.1614 C   0  0  0  0  0  0
  -19.1541  -28.8839   23.2897 C   0  0  0  0  0  0
  -18.9476  -30.1446   23.8904 C   0  0  0  0  0  0
  -17.6481  -30.6609   24.0545 C   0  0  0  0  0  0
  -25.9044  -34.9452   23.5128 C   0  0  0  0  0  0
  -16.5368  -29.9102   23.6315 C   0  0  0  0  0  0
  -16.7277  -28.6510   23.0347 C   0  0  0  0  0  0
  -26.4487  -31.6570   25.0737 C   0  0  0  0  0  0
  -25.3738  -31.3694   26.1476 C   0  0  0  0  0  0
  -27.0327  -30.2998   24.6144 C   0  0  0  0  0  0
  -27.6045  -32.4303   25.7501 C   0  0  0  0  0  0
  -27.5575  -37.1806   24.8464 C   0  0  0  0  0  0
  -21.4159  -29.3092   22.3745 N   0  0  0  0  0  0
  -26.4292  -37.3779   23.9402 N   0  0  0  0  0  0
  -24.6789  -31.0687   22.1019 N   0  0  0  0  0  0
  -23.4209  -28.8109   23.2960 O   0  0  0  0  0  0
  -28.2473  -26.4577   20.2278 O   0  0  0  0  0  0
  -26.5608  -34.8906   22.4694 O   0  0  0  0  0  0
  -23.5379  -32.1398   23.7438 O   0  0  0  0  0  0
  -29.3017  -19.1951   23.5181 C   0  0  0  0  0  0
  -29.1150  -19.3892   20.7478 C   0  0  0  0  0  0
  -29.5663  -18.0610   22.7365 C   0  0  0  0  0  0
  -29.5003  -18.1372   21.3345 C   0  0  0  0  0  0
  -28.9036  -20.4201   22.9436 C   0  0  0  0  0  0
  -28.7741  -20.5506   21.5281 C   0  0  0  0  0  0
  -29.8903  -16.7494   23.4211 C   0  0  0  0  0  0
  -29.8149  -16.8612   20.4961 C   0  0  0  0  0  0
  -27.3487  -24.1664   22.7120 C   0  0  0  0  0  0
  -26.7422  -25.3133   21.9272 C   0  0  0  0  0  0
  -30.7382  -15.8280   22.5426 C   0  0  0  0  0  0
  -28.5897  -24.2048   21.7780 C   0  0  2  0  0  0
  -28.1636  -25.7143   21.4829 C   0  0  1  0  0  0
  -28.5614  -21.5229   23.9234 C   0  0  0  0  0  0
  -28.0420  -21.7749   20.8523 C   0  0  0  0  0  0
  -30.1306  -15.5846   21.2284 N   0  0  0  0  0  0
  -28.6368  -23.1616   20.6835 N   0  3  0  0  0  0
  -31.4634  -12.4344   19.1452 H   0  0  0  0  0  0
  -30.3162  -11.3538   19.8760 H   0  0  0  0  0  0
  -29.7478  -11.7618   17.4617 H   0  0  0  0  0  0
  -29.6532  -13.4811   17.7560 H   0  0  0  0  0  0
  -27.8497  -11.3014   18.8586 H   0  0  0  0  0  0
  -27.3653  -12.5969   17.7966 H   0  0  0  0  0  0
  -27.6828  -14.2600   19.5413 H   0  0  0  0  0  0
  -28.6913  -12.0497   21.3958 H   0  0  0  0  0  0
  -28.4542  -13.7161   21.8422 H   0  0  0  0  0  0
  -25.2760   -9.5689   22.4756 H   0  0  0  0  0  0
  -24.0000   -7.4643   22.7475 H   0  0  0  0  0  0
  -21.0843   -8.8774   19.8956 H   0  0  0  0  0  0
  -22.3696  -10.9672   19.6162 H   0  0  0  0  0  0
  -21.2001   -7.6146   23.9715 H   0  0  0  0  0  0
  -21.1484   -6.0522   25.9077 H   0  0  0  0  0  0
  -22.0597   -2.7610   23.2845 H   0  0  0  0  0  0
  -22.4101  -11.9905   22.4797 H   0  0  0  0  0  0
  -21.1097  -13.1261   22.2579 H   0  0  0  0  0  0
  -24.6655  -15.8486   20.5316 H   0  0  0  0  0  0
  -26.2931  -15.6338   20.1327 H   0  0  0  0  0  0
  -26.7146  -32.5475   23.1144 H   0  0  0  0  0  0
  -25.0028  -33.9744   25.0442 H   0  0  0  0  0  0
  -22.7041  -31.3082   21.4105 H   0  0  0  0  0  0
  -23.3733  -35.9667   23.3317 H   0  0  0  0  0  0
  -24.3580  -36.8916   22.2052 H   0  0  0  0  0  0
  -23.7266  -37.6528   23.6655 H   0  0  0  0  0  0
  -26.0756  -31.5778   20.6111 H   0  0  0  0  0  0
  -26.8319  -30.8570   22.0029 H   0  0  0  0  0  0
  -28.0901  -29.0058   21.2486 H   0  0  0  0  0  0
  -26.0465  -25.9887   18.9428 H   0  0  0  0  0  0
  -23.9866  -27.3425   18.9586 H   0  0  0  0  0  0
  -23.7383  -30.6115   19.4071 H   0  0  0  0  0  0
  -22.7491  -29.2545   19.8577 H   0  0  0  0  0  0
  -25.1284  -36.1953   25.0830 H   0  0  0  0  0  0
  -20.9999  -28.3248   24.1424 H   0  0  0  0  0  0
  -20.5753  -26.2278   23.3576 H   0  0  0  0  0  0
  -21.6694  -26.7529   22.1180 H   0  0  0  0  0  0
  -19.6981  -25.6302   21.1252 H   0  0  0  0  0  0
  -19.6722  -27.3203   20.6738 H   0  0  0  0  0  0
  -17.4228  -26.6695   21.4009 H   0  0  0  0  0  0
  -18.0373  -26.0032   22.8992 H   0  0  0  0  0  0
  -19.7960  -30.7242   24.2282 H   0  0  0  0  0  0
  -17.5056  -31.6308   24.5113 H   0  0  0  0  0  0
  -15.5371  -30.3011   23.7648 H   0  0  0  0  0  0
  -15.8665  -28.0847   22.7048 H   0  0  0  0  0  0
  -24.5906  -30.7040   25.7822 H   0  0  0  0  0  0
  -24.8937  -32.2860   26.4914 H   0  0  0  0  0  0
  -25.8079  -30.8871   27.0244 H   0  0  0  0  0  0
  -26.2898  -29.6747   24.1167 H   0  0  0  0  0  0
  -27.4055  -29.7234   25.4623 H   0  0  0  0  0  0
  -27.8757  -30.4307   23.9353 H   0  0  0  0  0  0
  -27.2645  -33.3589   26.2098 H   0  0  0  0  0  0
  -28.3841  -32.6878   25.0320 H   0  0  0  0  0  0
  -28.0728  -31.8418   26.5397 H   0  0  0  0  0  0
  -28.2596  -38.0093   24.7486 H   0  0  0  0  0  0
  -28.1063  -36.2622   24.6325 H   0  0  0  0  0  0
  -27.2289  -37.1501   25.8865 H   0  0  0  0  0  0
  -20.9288  -29.8961   21.7118 H   0  0  0  0  0  0
  -26.0173  -38.2861   24.1385 H   0  0  0  0  0  0
  -29.3600  -19.1013   24.5943 H   0  0  0  0  0  0
  -29.0127  -19.4314   19.6712 H   0  0  0  0  0  0
  -28.9545  -16.2555   23.6849 H   0  0  0  0  0  0
  -30.4152  -16.9431   24.3581 H   0  0  0  0  0  0
  -30.6438  -17.1089   19.8300 H   0  0  0  0  0  0
  -28.9590  -16.6681   19.8473 H   0  0  0  0  0  0
  -26.6965  -23.2984   22.7050 H   0  0  0  0  0  0
  -27.5866  -24.4609   23.7364 H   0  0  0  0  0  0
  -26.2215  -26.0532   22.5381 H   0  0  0  0  0  0
  -26.1050  -24.9419   21.1241 H   0  0  0  0  0  0
  -30.9004  -14.8877   23.0762 H   0  0  0  0  0  0
  -31.7253  -16.2737   22.3990 H   0  0  0  0  0  0
  -29.5194  -24.1690   22.3461 H   0  0  0  0  0  0
  -28.5985  -26.3531   22.2556 H   0  0  0  0  0  0
  -28.8280  -21.2458   24.9436 H   0  0  0  0  0  0
  -27.4897  -21.7122   23.9296 H   0  0  0  0  0  0
  -29.1218  -22.4272   23.7076 H   0  0  0  0  0  0
  -27.0308  -21.8286   21.2471 H   0  0  0  0  0  0
  -27.8700  -21.4592   19.8224 H   0  0  0  0  0  0
  -29.5878  -23.0630   20.3703 H   0  0  0  0  0  0
  -28.1431  -23.5605   19.9011 H   0  0  0  0  0  0
  1 25  1  0  0  0
  1 30  2  0  0  0
  1 86  1  0  0  0
  2  3  1  0  0  0
  2 25  1  0  0  0
  2 88  1  0  0  0
  2 89  1  0  0  0
  3  4  1  0  0  0
  3 90  1  0  0  0
  3 91  1  0  0  0
  4  5  1  0  0  0
  4 92  1  0  0  0
  4 93  1  0  0  0
  5  6  1  0  0  0
  5 26  1  0  0  0
  5 94  1  0  0  0
  6 25  1  0  0  0
  6 95  1  0  0  0
  6 96  1  0  0  0
  7  8  2  0  0  0
  7 26  1  0  0  0
  7 29  1  0  0  0
  8  9  1  0  0  0
  8 22  1  0  0  0
  9 10  1  0  0  0
  9 27  2  0  0  0
 10 11  2  0  0  0
 10 15  1  0  0  0
 11 12  1  0  0  0
 11 97  1  0  0  0
 12 13  2  0  0  0
 12 98  1  0  0  0
 13 14  1  0  0  0
 13 31  1  0  0  0
 14 15  2  0  0  0
 14 99  1  0  0  0
 15100  1  0  0  0
 16 17  2  0  0  0
 16 21  1  0  0  0
 16 31  1  0  0  0
 17 18  1  0  0  0
 17101  1  0  0  0
 18 19  2  0  0  0
 18102  1  0  0  0
 19 20  1  0  0  0
 19 24  1  0  0  0
 20 21  2  0  0  0
 20103  1  0  0  0
 21 23  1  0  0  0
 22 28  1  0  0  0
 22 32  2  0  0  0
 26 27  1  0  0  0
 28104  1  0  0  0
 28105  1  0  0  0
 29106  1  0  0  0
 29107  1  0  0  0
 33 34  1  0  0  0
 33 66  1  0  0  0
 33 70  2  0  0  0
 34 36  1  0  0  0
 34 59  1  0  0  0
 34108  1  0  0  0
 35 44  2  0  0  0
 35 45  1  0  0  0
 35 68  1  0  0  0
 36 56  1  0  0  0
 36109  1  0  0  0
 37 39  1  0  0  0
 37 47  1  0  0  0
 37 66  1  0  0  0
 37110  1  0  0  0
 38 43  2  0  0  0
 38 46  1  0  0  0
 38 47  1  0  0  0
 39 64  1  0  0  0
 39 67  2  0  0  0
 40 52  1  0  0  0
 40 53  2  0  0  0
 40 58  1  0  0  0
 41111  1  0  0  0
 41112  1  0  0  0
 41113  1  0  0  0
 41 48  1  0  0  0
 42 43  1  0  0  0
 42 66  1  0  0  0
 42114  1  0  0  0
 42115  1  0  0  0
 43 44  1  0  0  0
 44116  1  0  0  0
 45 46  2  0  0  0
 45117  1  0  0  0
 46118  1  0  0  0
 47119  1  0  0  0
 47120  1  0  0  0
 48 56  1  0  0  0
 48 65  1  0  0  0
 48121  1  0  0  0
 49 50  1  0  0  0
 49 53  1  0  0  0
 49 64  1  0  0  0
 49122  1  0  0  0
 50 51  1  0  0  0
 50123  1  0  0  0
 50124  1  0  0  0
 51 52  1  0  0  0
 51125  1  0  0  0
 51126  1  0  0  0
 52127  1  0  0  0
 52128  1  0  0  0
 53 54  1  0  0  0
 54 55  2  0  0  0
 54129  1  0  0  0
 55 57  1  0  0  0
 55130  1  0  0  0
 56 69  2  0  0  0
 57 58  2  0  0  0
 57131  1  0  0  0
 58132  1  0  0  0
 59 60  1  0  0  0
 59 61  1  0  0  0
 59 62  1  0  0  0
 60133  1  0  0  0
 60134  1  0  0  0
 60135  1  0  0  0
 61136  1  0  0  0
 61137  1  0  0  0
 61138  1  0  0  0
 62139  1  0  0  0
 62140  1  0  0  0
 62141  1  0  0  0
 63 65  1  0  0  0
 63142  1  0  0  0
 63143  1  0  0  0
 63144  1  0  0  0
 64145  1  0  0  0
 65146  1  0  0  0
 68 83  1  0  0  0
 71 73  2  0  0  0
 71 75  1  0  0  0
 71147  1  0  0  0
 72 74  2  0  0  0
 72 76  1  0  0  0
 72148  1  0  0  0
 73 74  1  0  0  0
 73 77  1  0  0  0
 74 78  1  0  0  0
 75 76  2  0  0  0
 75 84  1  0  0  0
 76 85  1  0  0  0
 77 81  1  0  0  0
 77149  1  0  0  0
 77150  1  0  0  0
 78 86  1  0  0  0
 78151  1  0  0  0
 78152  1  0  0  0
 79 80  1  0  0  0
 79 82  1  0  0  0
 79153  1  0  0  0
 79154  1  0  0  0
 80 83  1  0  0  0
 80155  1  0  0  0
 80156  1  0  0  0
 81 86  1  0  0  0
 81157  1  0  0  0
 81158  1  0  0  0
 82 83  1  0  0  0
 82 87  1  0  0  0
 82159  1  0  0  0
 83160  1  0  0  0
 84161  1  0  0  0
 84162  1  0  0  0
 84163  1  0  0  0
 85 87  1  0  0  0
 85164  1  0  0  0
 85165  1  0  0  0
 87166  1  0  0  0
 87167  1  0  0  0
M  CHG  1  87   1
M  ISO  4   1 100  68 101  83 101  86 100
M  END
> <chiral flag>
0

> <version>
0

> <s_m_source_file>
/data/baiqing/PycharmProjects/Reinvent-master-3.2/result/LINK_invent/BTK/process_docking_weight1_custom_sum_contain_oxygen_bond_distance_aromatic_linkinvent_7_9_3/rearranged_h_0166.sdf

> <i_m_source_file_index>
70

> <r_mmod_Potential_Energy-OPLS-2005>
76.3800735473633

> <r_mmod_Stretch_Energy-OPLS-2005>
72.5128784179688

> <r_mmod_Bend_Energy-OPLS-2005>
195.540374755859

> <r_mmod_Torsional_Energy-OPLS-2005>
367.666625976562

> <r_mmod_Improper_Torsional_Energy-OPLS-2005>
8.16360855102539

> <r_mmod_Van_der_Waal_Energy-OPLS-2005>
158.265258789062

> <r_mmod_Electrostatic_Energy-OPLS-2005>
-315.177490234375

> <r_mmod_Solvation_Energy-OPLS-2005>
-447.524993896484

> <b_mmod_Minimization_Converged-OPLS-2005>
0

> <r_mmod_RMS_Derivative-OPLS-2005>
1.91199600696564

$$$$
70
                    3D
 Structure written by MMmdl.
174185  0  0  1  0            999 V2000
  -30.7540  -14.5563   20.5039 C   0  0  0  0  0  0
  -30.3995  -12.3514   19.4368 C   0  0  0  0  0  0
  -29.4875  -12.4773   18.2019 C   0  0  0  0  0  0
  -28.0107  -12.3362   18.6194 C   0  0  0  0  0  0
  -27.6451  -13.2155   19.8477 C   0  0  2  0  0  0
  -28.6978  -13.0851   20.9706 C   0  0  0  0  0  0
  -25.2547  -13.8174   20.5691 C   0  0  0  0  0  0
  -24.1823  -13.0454   20.9200 C   0  0  0  0  0  0
  -24.6374  -11.6916   20.8723 C   0  0  0  0  0  0
  -23.9053  -10.4305   21.0392 C   0  0  0  0  0  0
  -24.3620   -9.4221   21.9177 C   0  0  0  0  0  0
  -23.6303   -8.2256   22.0741 C   0  0  0  0  0  0
  -22.4282   -8.0286   21.3539 C   0  0  0  0  0  0
  -21.9919   -9.0263   20.4641 C   0  0  0  0  0  0
  -22.7231  -10.2147   20.3037 C   0  0  0  0  0  0
  -21.6855   -6.0721   22.5265 C   0  0  0  0  0  0
  -21.4008   -6.5616   23.8204 C   0  0  0  0  0  0
  -21.3672   -5.6778   24.9173 C   0  0  0  0  0  0
  -21.6054   -4.3042   24.7208 C   0  0  0  0  0  0
  -21.8823   -3.8129   23.4329 C   0  0  0  0  0  0
  -21.9196   -4.6948   22.3384 C   0  0  0  0  0  0
  -22.7842  -13.5237   21.1854 C   0  0  0  0  0  0
  -22.1665   -4.2130   21.0962 F   0  0  0  0  0  0
  -21.5647   -3.4522   25.7723 F   0  0  0  0  0  0
  -29.9946  -13.4209   20.3754 N   0  0  0  0  0  0
  -26.2957  -12.9356   20.3283 N   0  0  0  0  0  0
  -25.9296  -11.6513   20.5739 N   0  0  0  0  0  0
  -22.0472  -12.8265   22.0412 N   0  0  0  0  0  0
  -25.4296  -15.1903   20.4090 N   0  0  0  0  0  0
  -31.9579  -14.4809   20.2374 O   0  0  0  0  0  0
  -21.6660   -6.8873   21.4231 O   0  0  0  0  0  0
  -22.3539  -14.5542   20.6673 O   0  0  0  0  0  0
  -24.6220  -31.8620   23.2099 C   0  0  0  0  0  0
  -25.9092  -32.4802   23.8380 C   0  0  1  0  0  0
  -27.2261  -27.3941   20.1057 C   0  0  0  0  0  0
  -25.5928  -33.8610   24.2315 N   0  0  0  0  0  0
  -23.4118  -30.4894   21.5501 C   0  0  2  0  0  0
  -24.8596  -28.9554   20.1044 C   0  0  0  0  0  0
  -22.7438  -29.4647   22.4960 C   0  0  0  0  0  0
  -18.0274  -28.1385   22.8480 C   0  0  0  0  0  0
  -24.1464  -36.7300   23.2632 C   0  0  0  0  0  0
  -25.9480  -30.8164   21.3701 C   0  0  0  0  0  0
  -26.0223  -29.4543   20.7043 C   0  0  0  0  0  0
  -27.2128  -28.6851   20.6988 C   0  0  0  0  0  0
  -26.0535  -26.9249   19.4826 C   0  0  0  0  0  0
  -24.8717  -27.6924   19.4866 C   0  0  0  0  0  0
  -23.6228  -29.8273   20.1624 C   0  0  0  0  0  0
  -25.4102  -36.3113   24.0321 C   0  0  1  0  0  0
  -20.5876  -28.3682   23.1314 C   0  0  2  0  0  0
  -20.6768  -26.9416   22.5432 C   0  0  0  0  0  0
  -19.5740  -26.6383   21.5228 C   0  0  0  0  0  0
  -18.1915  -26.7931   22.1622 C   0  0  0  0  0  0
  -19.1523  -28.8850   23.2896 C   0  0  0  0  0  0
  -18.9453  -30.1451   23.8918 C   0  0  0  0  0  0
  -17.6464  -30.6593   24.0578 C   0  0  0  0  0  0
  -25.9046  -34.9473   23.5121 C   0  0  0  0  0  0
  -16.5360  -29.9107   23.6326 C   0  0  0  0  0  0
  -16.7272  -28.6524   23.0340 C   0  0  0  0  0  0
  -26.4481  -31.6580   25.0727 C   0  0  0  0  0  0
  -25.3693  -31.3689   26.1442 C   0  0  0  0  0  0
  -27.0368  -30.3032   24.6159 C   0  0  0  0  0  0
  -27.6032  -32.4289   25.7543 C   0  0  0  0  0  0
  -27.5576  -37.1805   24.8457 C   0  0  0  0  0  0
  -21.4153  -29.3036   22.3702 N   0  0  0  0  0  0
  -26.4291  -37.3797   23.9393 N   0  0  0  0  0  0
  -24.6791  -31.0693   22.1015 N   0  0  0  0  0  0
  -23.4183  -28.8169   23.3007 O   0  0  0  0  0  0
  -28.2894  -26.5154   20.2385 O   0  0  0  0  0  0
  -26.5611  -34.8930   22.4679 O   0  0  0  0  0  0
  -23.5404  -32.1395   23.7477 O   0  0  0  0  0  0
  -28.3498  -22.4429   20.7517 C   0  0  0  0  0  0
  -29.0768  -23.1626   21.7255 C   0  0  0  0  0  0
  -30.0760  -22.4423   22.4497 C   0  0  0  0  0  0
  -29.5351  -20.3155   21.2541 C   0  0  0  0  0  0
  -28.5632  -21.0534   20.5111 C   0  0  0  0  0  0
  -30.3500  -21.0695   22.1560 C   0  0  0  0  0  0
  -31.0452  -22.5343   24.9406 C   0  0  0  0  0  0
  -30.1772  -23.7444   24.7767 C   0  0  0  0  0  0
  -28.5818  -17.7827   21.1781 C   0  0  0  0  0  0
  -30.5764  -18.3486   19.8915 C   0  0  0  0  0  0
  -29.7307  -25.7159   21.9814 C   0  0  0  0  0  0
  -29.0311  -16.2845   21.3260 C   0  0  0  0  0  0
  -31.1056  -16.9055   20.0206 C   0  0  0  0  0  0
  -28.7295  -24.5983   22.1744 C   0  0  1  0  0  0
  -30.8523  -23.1405   23.5555 C   0  0  0  0  0  0
  -29.7690  -18.7628   21.1168 C   0  0  0  0  0  0
  -28.3000  -25.9736   21.5825 C   0  0  2  0  0  0
  -27.7244  -20.4026   19.4229 C   0  0  0  0  0  0
  -31.5619  -20.4087   22.8213 C   0  0  0  0  0  0
  -30.1840  -15.8230   20.4981 N   0  0  0  0  0  0
  -31.4451  -12.4094   19.1328 H   0  0  0  0  0  0
  -30.2881  -11.3678   19.8969 H   0  0  0  0  0  0
  -29.7448  -11.7142   17.4655 H   0  0  0  0  0  0
  -29.6551  -13.4379   17.7125 H   0  0  0  0  0  0
  -27.8339  -11.2851   18.8496 H   0  0  0  0  0  0
  -27.3601  -12.5774   17.7766 H   0  0  0  0  0  0
  -27.6625  -14.2443   19.4888 H   0  0  0  0  0  0
  -28.7046  -12.0621   21.3509 H   0  0  0  0  0  0
  -28.4671  -13.7014   21.8382 H   0  0  0  0  0  0
  -25.2758   -9.5716   22.4749 H   0  0  0  0  0  0
  -24.0017   -7.4632   22.7443 H   0  0  0  0  0  0
  -21.0844   -8.8772   19.8936 H   0  0  0  0  0  0
  -22.3684  -10.9683   19.6139 H   0  0  0  0  0  0
  -21.1991   -7.6125   23.9703 H   0  0  0  0  0  0
  -21.1500   -6.0501   25.9079 H   0  0  0  0  0  0
  -22.0593   -2.7580   23.2830 H   0  0  0  0  0  0
  -22.4079  -11.9953   22.4865 H   0  0  0  0  0  0
  -21.1061  -13.1276   22.2513 H   0  0  0  0  0  0
  -24.6768  -15.8557   20.5382 H   0  0  0  0  0  0
  -26.2908  -15.6192   20.0955 H   0  0  0  0  0  0
  -26.7176  -32.5506   23.1138 H   0  0  0  0  0  0
  -25.0095  -33.9745   25.0482 H   0  0  0  0  0  0
  -22.7018  -31.3073   21.4126 H   0  0  0  0  0  0
  -23.3756  -35.9605   23.3316 H   0  0  0  0  0  0
  -24.3542  -36.8916   22.2038 H   0  0  0  0  0  0
  -23.7186  -37.6492   23.6655 H   0  0  0  0  0  0
  -26.0763  -31.5868   20.6105 H   0  0  0  0  0  0
  -26.8301  -30.8580   21.9973 H   0  0  0  0  0  0
  -28.1047  -29.0550   21.1854 H   0  0  0  0  0  0
  -26.0372  -25.9405   19.0398 H   0  0  0  0  0  0
  -23.9735  -27.2996   19.0310 H   0  0  0  0  0  0
  -23.7370  -30.6068   19.4082 H   0  0  0  0  0  0
  -22.7435  -29.2553   19.8652 H   0  0  0  0  0  0
  -25.1273  -36.1984   25.0816 H   0  0  0  0  0  0
  -20.9951  -28.3253   24.1437 H   0  0  0  0  0  0
  -20.5666  -26.2287   23.3609 H   0  0  0  0  0  0
  -21.6638  -26.7450   22.1232 H   0  0  0  0  0  0
  -19.6897  -25.6287   21.1255 H   0  0  0  0  0  0
  -19.6696  -27.3192   20.6756 H   0  0  0  0  0  0
  -17.4197  -26.6693   21.4022 H   0  0  0  0  0  0
  -18.0321  -26.0080   22.9019 H   0  0  0  0  0  0
  -19.7941  -30.7246   24.2302 H   0  0  0  0  0  0
  -17.5035  -31.6271   24.5162 H   0  0  0  0  0  0
  -15.5360  -30.3020   23.7641 H   0  0  0  0  0  0
  -15.8665  -28.0860   22.7030 H   0  0  0  0  0  0
  -24.5813  -30.7125   25.7738 H   0  0  0  0  0  0
  -24.8956  -32.2885   26.4910 H   0  0  0  0  0  0
  -25.7983  -30.8787   27.0182 H   0  0  0  0  0  0
  -26.2993  -29.6760   24.1143 H   0  0  0  0  0  0
  -27.4078  -29.7294   25.4665 H   0  0  0  0  0  0
  -27.8823  -30.4387   23.9404 H   0  0  0  0  0  0
  -27.2598  -33.3509   26.2259 H   0  0  0  0  0  0
  -28.3801  -32.6977   25.0382 H   0  0  0  0  0  0
  -28.0742  -31.8325   26.5359 H   0  0  0  0  0  0
  -28.2630  -38.0075   24.7546 H   0  0  0  0  0  0
  -28.1043  -36.2634   24.6248 H   0  0  0  0  0  0
  -27.2305  -37.1410   25.8860 H   0  0  0  0  0  0
  -20.9292  -29.8765   21.6946 H   0  0  0  0  0  0
  -26.0192  -38.2868   24.1451 H   0  0  0  0  0  0
  -27.5764  -22.9644   20.2034 H   0  0  0  0  0  0
  -30.5285  -21.6097   25.1931 H   0  0  0  0  0  0
  -31.9965  -22.6888   25.4461 H   0  0  0  0  0  0
  -30.5679  -24.6899   25.1459 H   0  0  0  0  0  0
  -29.1153  -23.5795   24.9450 H   0  0  0  0  0  0
  -27.9378  -18.0414   22.0218 H   0  0  0  0  0  0
  -27.9639  -17.8778   20.2843 H   0  0  0  0  0  0
  -29.9946  -18.4409   18.9767 H   0  0  0  0  0  0
  -31.4286  -19.0178   19.7746 H   0  0  0  0  0  0
  -30.4518  -25.5964   21.1750 H   0  0  0  0  0  0
  -30.1075  -26.2231   22.8676 H   0  0  0  0  0  0
  -28.1509  -15.6871   21.1184 H   0  0  0  0  0  0
  -29.2869  -16.0936   22.3700 H   0  0  0  0  0  0
  -31.9485  -16.9471   20.7129 H   0  0  0  0  0  0
  -31.5234  -16.6273   19.0515 H   0  0  0  0  0  0
  -28.2611  -24.4810   23.1469 H   0  0  0  0  0  0
  -31.7011  -23.6756   23.1302 H   0  0  0  0  0  0
  -30.3348  -18.4561   21.9932 H   0  0  0  0  0  0
  -27.7419  -26.5958   22.2834 H   0  0  0  0  0  0
  -27.3169  -21.1515   18.7442 H   0  0  0  0  0  0
  -26.8915  -19.8472   19.8530 H   0  0  0  0  0  0
  -28.3132  -19.7304   18.8011 H   0  0  0  0  0  0
  -32.3423  -21.1291   23.0617 H   0  0  0  0  0  0
  -32.0574  -19.6985   22.1606 H   0  0  0  0  0  0
  -31.2768  -19.8912   23.7397 H   0  0  0  0  0  0
  1 25  1  0  0  0
  1 30  2  0  0  0
  1 90  1  0  0  0
  2  3  1  0  0  0
  2 25  1  0  0  0
  2 91  1  0  0  0
  2 92  1  0  0  0
  3  4  1  0  0  0
  3 93  1  0  0  0
  3 94  1  0  0  0
  4  5  1  0  0  0
  4 95  1  0  0  0
  4 96  1  0  0  0
  5  6  1  0  0  0
  5 26  1  0  0  0
  5 97  1  0  0  0
  6 25  1  0  0  0
  6 98  1  0  0  0
  6 99  1  0  0  0
  7  8  2  0  0  0
  7 26  1  0  0  0
  7 29  1  0  0  0
  8  9  1  0  0  0
  8 22  1  0  0  0
  9 10  1  0  0  0
  9 27  2  0  0  0
 10 11  2  0  0  0
 10 15  1  0  0  0
 11 12  1  0  0  0
 11100  1  0  0  0
 12 13  2  0  0  0
 12101  1  0  0  0
 13 14  1  0  0  0
 13 31  1  0  0  0
 14 15  2  0  0  0
 14102  1  0  0  0
 15103  1  0  0  0
 16 17  2  0  0  0
 16 21  1  0  0  0
 16 31  1  0  0  0
 17 18  1  0  0  0
 17104  1  0  0  0
 18 19  2  0  0  0
 18105  1  0  0  0
 19 20  1  0  0  0
 19 24  1  0  0  0
 20 21  2  0  0  0
 20106  1  0  0  0
 21 23  1  0  0  0
 22 28  1  0  0  0
 22 32  2  0  0  0
 26 27  1  0  0  0
 28107  1  0  0  0
 28108  1  0  0  0
 29109  1  0  0  0
 29110  1  0  0  0
 33 34  1  0  0  0
 33 66  1  0  0  0
 33 70  2  0  0  0
 34 36  1  0  0  0
 34 59  1  0  0  0
 34111  1  0  0  0
 35 44  2  0  0  0
 35 45  1  0  0  0
 35 68  1  0  0  0
 36 56  1  0  0  0
 36112  1  0  0  0
 37 39  1  0  0  0
 37 47  1  0  0  0
 37 66  1  0  0  0
 37113  1  0  0  0
 38 43  2  0  0  0
 38 46  1  0  0  0
 38 47  1  0  0  0
 39 64  1  0  0  0
 39 67  2  0  0  0
 40 52  1  0  0  0
 40 53  2  0  0  0
 40 58  1  0  0  0
 41114  1  0  0  0
 41115  1  0  0  0
 41116  1  0  0  0
 41 48  1  0  0  0
 42 43  1  0  0  0
 42 66  1  0  0  0
 42117  1  0  0  0
 42118  1  0  0  0
 43 44  1  0  0  0
 44119  1  0  0  0
 45 46  2  0  0  0
 45120  1  0  0  0
 46121  1  0  0  0
 47122  1  0  0  0
 47123  1  0  0  0
 48 56  1  0  0  0
 48 65  1  0  0  0
 48124  1  0  0  0
 49 50  1  0  0  0
 49 53  1  0  0  0
 49 64  1  0  0  0
 49125  1  0  0  0
 50 51  1  0  0  0
 50126  1  0  0  0
 50127  1  0  0  0
 51 52  1  0  0  0
 51128  1  0  0  0
 51129  1  0  0  0
 52130  1  0  0  0
 52131  1  0  0  0
 53 54  1  0  0  0
 54 55  2  0  0  0
 54132  1  0  0  0
 55 57  1  0  0  0
 55133  1  0  0  0
 56 69  2  0  0  0
 57 58  2  0  0  0
 57134  1  0  0  0
 58135  1  0  0  0
 59 60  1  0  0  0
 59 61  1  0  0  0
 59 62  1  0  0  0
 60136  1  0  0  0
 60137  1  0  0  0
 60138  1  0  0  0
 61139  1  0  0  0
 61140  1  0  0  0
 61141  1  0  0  0
 62142  1  0  0  0
 62143  1  0  0  0
 62144  1  0  0  0
 63 65  1  0  0  0
 63145  1  0  0  0
 63146  1  0  0  0
 63147  1  0  0  0
 64148  1  0  0  0
 65149  1  0  0  0
 68 87  1  0  0  0
 71 72  2  0  0  0
 71 75  1  0  0  0
 71150  1  0  0  0
 72 73  1  0  0  0
 72 84  1  0  0  0
 73 76  2  0  0  0
 73 85  1  0  0  0
 74 75  2  0  0  0
 74 76  1  0  0  0
 74 86  1  0  0  0
 75 88  1  0  0  0
 76 89  1  0  0  0
 77 78  1  0  0  0
 77 85  1  0  0  0
 77151  1  0  0  0
 77152  1  0  0  0
 78 85  1  0  0  0
 78153  1  0  0  0
 78154  1  0  0  0
 79 82  1  0  0  0
 79 86  1  0  0  0
 79155  1  0  0  0
 79156  1  0  0  0
 80 83  1  0  0  0
 80 86  1  0  0  0
 80157  1  0  0  0
 80158  1  0  0  0
 81 84  1  0  0  0
 81 87  1  0  0  0
 81159  1  0  0  0
 81160  1  0  0  0
 82 90  1  0  0  0
 82161  1  0  0  0
 82162  1  0  0  0
 83 90  1  0  0  0
 83163  1  0  0  0
 83164  1  0  0  0
 84 87  1  0  0  0
 84165  1  0  0  0
 85166  1  0  0  0
 86167  1  0  0  0
 87168  1  0  0  0
 88169  1  0  0  0
 88170  1  0  0  0
 88171  1  0  0  0
 89172  1  0  0  0
 89173  1  0  0  0
 89174  1  0  0  0
M  ISO  4   1 100  68 101  87 101  90 100
M  END
> <chiral flag>
0

> <version>
0

> <s_m_source_file>
/data/baiqing/PycharmProjects/Reinvent-master-3.2/result/LINK_invent/BTK/process_docking_weight1_custom_sum_contain_oxygen_bond_distance_aromatic_linkinvent_7_9_3/rearranged_h_0166.sdf

> <i_m_source_file_index>
71

> <r_mmod_Potential_Energy-OPLS-2005>
410.972930908203

> <r_mmod_Stretch_Energy-OPLS-2005>
72.3942337036133

> <r_mmod_Bend_Energy-OPLS-2005>
227.843795776367

> <r_mmod_Torsional_Energy-OPLS-2005>
386.191253662109

> <r_mmod_Improper_Torsional_Energy-OPLS-2005>
14.8979425430298

> <r_mmod_Van_der_Waal_Energy-OPLS-2005>
178.531341552734

> <r_mmod_Electrostatic_Energy-OPLS-2005>
-317.8134765625

> <r_mmod_Solvation_Energy-OPLS-2005>
-197.631454467773

> <b_mmod_Minimization_Converged-OPLS-2005>
0

> <r_mmod_RMS_Derivative-OPLS-2005>
3.98492026329041

$$$$
71
                    3D
 Structure written by MMmdl.
164174  0  0  1  0            999 V2000
  -30.6376  -14.6135   20.5086 C   0  0  0  0  0  0
  -30.4326  -12.3798   19.4466 C   0  0  0  0  0  0
  -29.5031  -12.5013   18.2193 C   0  0  0  0  0  0
  -28.0261  -12.3423   18.6329 C   0  0  0  0  0  0
  -27.6510  -13.2144   19.8608 C   0  0  2  0  0  0
  -28.6953  -13.0699   20.9903 C   0  0  0  0  0  0
  -25.2552  -13.8165   20.5679 C   0  0  0  0  0  0
  -24.1822  -13.0435   20.9199 C   0  0  0  0  0  0
  -24.6387  -11.6905   20.8746 C   0  0  0  0  0  0
  -23.9057  -10.4290   21.0410 C   0  0  0  0  0  0
  -24.3611   -9.4206   21.9185 C   0  0  0  0  0  0
  -23.6289   -8.2240   22.0754 C   0  0  0  0  0  0
  -22.4271   -8.0278   21.3544 C   0  0  0  0  0  0
  -21.9904   -9.0251   20.4647 C   0  0  0  0  0  0
  -22.7230  -10.2132   20.3057 C   0  0  0  0  0  0
  -21.6852   -6.0733   22.5279 C   0  0  0  0  0  0
  -21.4013   -6.5638   23.8212 C   0  0  0  0  0  0
  -21.3659   -5.6791   24.9174 C   0  0  0  0  0  0
  -21.6044   -4.3053   24.7225 C   0  0  0  0  0  0
  -21.8820   -3.8144   23.4347 C   0  0  0  0  0  0
  -21.9192   -4.6961   22.3403 C   0  0  0  0  0  0
  -22.7847  -13.5232   21.1859 C   0  0  0  0  0  0
  -22.1661   -4.2147   21.0980 F   0  0  0  0  0  0
  -21.5629   -3.4537   25.7738 F   0  0  0  0  0  0
  -30.0102  -13.4014   20.4231 N   0  0  0  0  0  0
  -26.2973  -12.9342   20.3305 N   0  0  0  0  0  0
  -25.9312  -11.6501   20.5755 N   0  0  0  0  0  0
  -22.0484  -12.8227   22.0413 N   0  0  0  0  0  0
  -25.4261  -15.1886   20.4072 N   0  0  0  0  0  0
  -31.8035  -14.7695   20.1363 O   0  0  0  0  0  0
  -21.6637   -6.8875   21.4240 O   0  0  0  0  0  0
  -22.3539  -14.5541   20.6706 O   0  0  0  0  0  0
  -24.6226  -31.8609   23.2022 C   0  0  0  0  0  0
  -25.9083  -32.4784   23.8349 C   0  0  1  0  0  0
  -27.2304  -27.3482   20.1231 C   0  0  0  0  0  0
  -25.5909  -33.8585   24.2281 N   0  0  0  0  0  0
  -23.4152  -30.4818   21.5442 C   0  0  2  0  0  0
  -24.8628  -28.9322   20.1154 C   0  0  0  0  0  0
  -22.7454  -29.4626   22.4953 C   0  0  0  0  0  0
  -18.0281  -28.1381   22.8489 C   0  0  0  0  0  0
  -24.1488  -36.7298   23.2640 C   0  0  0  0  0  0
  -25.9512  -30.8021   21.3658 C   0  0  0  0  0  0
  -26.0283  -29.4292   20.7129 C   0  0  0  0  0  0
  -27.2176  -28.6496   20.7018 C   0  0  0  0  0  0
  -26.0463  -26.8851   19.5131 C   0  0  0  0  0  0
  -24.8715  -27.6644   19.5071 C   0  0  0  0  0  0
  -23.6287  -29.8094   20.1613 C   0  0  0  0  0  0
  -25.4112  -36.3088   24.0331 C   0  0  1  0  0  0
  -20.5878  -28.3680   23.1298 C   0  0  2  0  0  0
  -20.6770  -26.9407   22.5416 C   0  0  0  0  0  0
  -19.5749  -26.6384   21.5213 C   0  0  0  0  0  0
  -18.1927  -26.7926   22.1623 C   0  0  0  0  0  0
  -19.1532  -28.8847   23.2889 C   0  0  0  0  0  0
  -18.9457  -30.1450   23.8902 C   0  0  0  0  0  0
  -17.6458  -30.6586   24.0564 C   0  0  0  0  0  0
  -25.9045  -34.9457   23.5108 C   0  0  0  0  0  0
  -16.5349  -29.9086   23.6328 C   0  0  0  0  0  0
  -16.7269  -28.6503   23.0350 C   0  0  0  0  0  0
  -26.4483  -31.6588   25.0709 C   0  0  0  0  0  0
  -25.3730  -31.3716   26.1446 C   0  0  0  0  0  0
  -27.0322  -30.3019   24.6133 C   0  0  0  0  0  0
  -27.6049  -32.4318   25.7477 C   0  0  0  0  0  0
  -27.5580  -37.1803   24.8464 C   0  0  0  0  0  0
  -21.4171  -29.3036   22.3695 N   0  0  0  0  0  0
  -26.4293  -37.3780   23.9408 N   0  0  0  0  0  0
  -24.6817  -31.0645   22.0952 N   0  0  0  0  0  0
  -23.4189  -28.8175   23.3031 O   0  0  0  0  0  0
  -28.3718  -26.5490   20.1259 O   0  0  0  0  0  0
  -26.5617  -34.8922   22.4676 O   0  0  0  0  0  0
  -23.5398  -32.1391   23.7373 O   0  0  0  0  0  0
  -29.3116  -21.2751   19.0497 C   0  0  0  0  0  0
  -27.5312  -23.1247   19.0750 C   0  0  0  0  0  0
  -29.2067  -18.1347   21.4912 C   0  0  0  0  0  0
  -29.9752  -18.0203   19.6303 C   0  0  0  0  0  0
  -28.4305  -21.4735   20.9919 C   0  0  1  0  0  0
  -30.2270  -17.1436   20.8777 C   0  0  2  0  0  0
  -28.7725  -20.2478   20.0774 C   0  0  2  0  0  0
  -28.6690  -22.4469   19.8095 C   0  0  1  0  0  0
  -28.6566  -24.0112   19.5672 C   0  0  1  0  0  0
  -27.0576  -21.5880   21.6523 C   0  0  0  0  0  0
  -29.6887  -24.5396   18.5868 C   0  0  0  0  0  0
  -28.2597  -25.1485   20.5714 C   0  0  0  0  0  0
  -29.8549  -15.6850   20.8363 N   0  0  0  0  0  0
  -29.7274  -19.1632   20.5537 N   0  3  1  0  0  0
  -31.4746  -12.5008   19.1446 H   0  0  0  0  0  0
  -30.3625  -11.3841   19.8873 H   0  0  0  0  0  0
  -29.7646  -11.7505   17.4725 H   0  0  0  0  0  0
  -29.6479  -13.4713   17.7410 H   0  0  0  0  0  0
  -27.8615  -11.2894   18.8649 H   0  0  0  0  0  0
  -27.3711  -12.5725   17.7918 H   0  0  0  0  0  0
  -27.6695  -14.2492   19.5187 H   0  0  0  0  0  0
  -28.7020  -12.0506   21.3793 H   0  0  0  0  0  0
  -28.4462  -13.7107   21.8376 H   0  0  0  0  0  0
  -25.2757   -9.5683   22.4758 H   0  0  0  0  0  0
  -24.0000   -7.4631   22.7471 H   0  0  0  0  0  0
  -21.0836   -8.8768   19.8953 H   0  0  0  0  0  0
  -22.3688  -10.9670   19.6167 H   0  0  0  0  0  0
  -21.2004   -7.6146   23.9714 H   0  0  0  0  0  0
  -21.1482   -6.0521   25.9077 H   0  0  0  0  0  0
  -22.0599   -2.7606   23.2847 H   0  0  0  0  0  0
  -22.4092  -11.9884   22.4799 H   0  0  0  0  0  0
  -21.1102  -13.1256   22.2614 H   0  0  0  0  0  0
  -24.6516  -15.8368   20.5018 H   0  0  0  0  0  0
  -26.2599  -15.6219   20.0331 H   0  0  0  0  0  0
  -26.7153  -32.5467   23.1103 H   0  0  0  0  0  0
  -25.0055  -33.9732   25.0424 H   0  0  0  0  0  0
  -22.7077  -31.3007   21.3991 H   0  0  0  0  0  0
  -23.3749  -35.9632   23.3305 H   0  0  0  0  0  0
  -24.3580  -36.8914   22.2053 H   0  0  0  0  0  0
  -23.7243  -37.6503   23.6658 H   0  0  0  0  0  0
  -26.0740  -31.5648   20.5955 H   0  0  0  0  0  0
  -26.8349  -30.8556   21.9902 H   0  0  0  0  0  0
  -28.1178  -29.0304   21.1637 H   0  0  0  0  0  0
  -26.0296  -25.9125   19.0417 H   0  0  0  0  0  0
  -23.9772  -27.2775   19.0383 H   0  0  0  0  0  0
  -23.7446  -30.5823   19.4005 H   0  0  0  0  0  0
  -22.7501  -29.2344   19.8631 H   0  0  0  0  0  0
  -25.1293  -36.1943   25.0824 H   0  0  0  0  0  0
  -20.9969  -28.3251   24.1419 H   0  0  0  0  0  0
  -20.5670  -26.2288   23.3611 H   0  0  0  0  0  0
  -21.6640  -26.7440   22.1210 H   0  0  0  0  0  0
  -19.6912  -25.6296   21.1238 H   0  0  0  0  0  0
  -19.6690  -27.3199   20.6748 H   0  0  0  0  0  0
  -17.4199  -26.6677   21.4022 H   0  0  0  0  0  0
  -18.0327  -26.0066   22.9016 H   0  0  0  0  0  0
  -19.7933  -30.7264   24.2274 H   0  0  0  0  0  0
  -17.5014  -31.6266   24.5165 H   0  0  0  0  0  0
  -15.5350  -30.2990   23.7648 H   0  0  0  0  0  0
  -15.8669  -28.0825   22.7060 H   0  0  0  0  0  0
  -24.5905  -30.7062   25.7779 H   0  0  0  0  0  0
  -24.8920  -32.2880   26.4879 H   0  0  0  0  0  0
  -25.8067  -30.8892   27.0214 H   0  0  0  0  0  0
  -26.2882  -29.6773   24.1173 H   0  0  0  0  0  0
  -27.4056  -29.7268   25.4615 H   0  0  0  0  0  0
  -27.8733  -30.4321   23.9319 H   0  0  0  0  0  0
  -27.2662  -33.3614   26.2064 H   0  0  0  0  0  0
  -28.3854  -32.6883   25.0302 H   0  0  0  0  0  0
  -28.0722  -31.8437   26.5386 H   0  0  0  0  0  0
  -28.2599  -38.0099   24.7509 H   0  0  0  0  0  0
  -28.1074  -36.2630   24.6291 H   0  0  0  0  0  0
  -27.2299  -37.1453   25.8868 H   0  0  0  0  0  0
  -20.9344  -29.8753   21.6903 H   0  0  0  0  0  0
  -26.0177  -38.2856   24.1406 H   0  0  0  0  0  0
  -28.9420  -21.1033   18.0379 H   0  0  0  0  0  0
  -30.4015  -21.3221   19.0379 H   0  0  0  0  0  0
  -26.5694  -23.2244   19.5729 H   0  0  0  0  0  0
  -27.4572  -22.9843   17.9981 H   0  0  0  0  0  0
  -29.3787  -18.3792   22.5395 H   0  0  0  0  0  0
  -28.1603  -17.8783   21.3093 H   0  0  0  0  0  0
  -29.0953  -17.7331   19.0497 H   0  0  0  0  0  0
  -30.8452  -18.1621   18.9889 H   0  0  0  0  0  0
  -29.2204  -21.5937   21.7356 H   0  0  0  0  0  0
  -31.2298  -17.3044   21.2835 H   0  0  0  0  0  0
  -27.8541  -19.7967   19.6982 H   0  0  0  0  0  0
  -26.2498  -21.3528   20.9587 H   0  0  0  0  0  0
  -26.8830  -22.5917   22.0407 H   0  0  0  0  0  0
  -26.9682  -20.8977   22.4913 H   0  0  0  0  0  0
  -30.0035  -23.7615   17.8913 H   0  0  0  0  0  0
  -30.5692  -24.8979   19.1209 H   0  0  0  0  0  0
  -29.2750  -25.3630   18.0038 H   0  0  0  0  0  0
  -28.9307  -25.0569   21.4257 H   0  0  0  0  0  0
  -27.2688  -24.9451   20.9799 H   0  0  0  0  0  0
  -28.9085  -15.4508   21.0970 H   0  0  0  0  0  0
  -30.6005  -19.5369   20.8938 H   0  0  0  0  0  0
  1 25  1  0  0  0
  1 30  2  0  0  0
  1 83  1  0  0  0
  2  3  1  0  0  0
  2 25  1  0  0  0
  2 85  1  0  0  0
  2 86  1  0  0  0
  3  4  1  0  0  0
  3 87  1  0  0  0
  3 88  1  0  0  0
  4  5  1  0  0  0
  4 89  1  0  0  0
  4 90  1  0  0  0
  5  6  1  0  0  0
  5 26  1  0  0  0
  5 91  1  0  0  0
  6 25  1  0  0  0
  6 92  1  0  0  0
  6 93  1  0  0  0
  7  8  2  0  0  0
  7 26  1  0  0  0
  7 29  1  0  0  0
  8  9  1  0  0  0
  8 22  1  0  0  0
  9 10  1  0  0  0
  9 27  2  0  0  0
 10 11  2  0  0  0
 10 15  1  0  0  0
 11 12  1  0  0  0
 11 94  1  0  0  0
 12 13  2  0  0  0
 12 95  1  0  0  0
 13 14  1  0  0  0
 13 31  1  0  0  0
 14 15  2  0  0  0
 14 96  1  0  0  0
 15 97  1  0  0  0
 16 17  2  0  0  0
 16 21  1  0  0  0
 16 31  1  0  0  0
 17 18  1  0  0  0
 17 98  1  0  0  0
 18 19  2  0  0  0
 18 99  1  0  0  0
 19 20  1  0  0  0
 19 24  1  0  0  0
 20 21  2  0  0  0
 20100  1  0  0  0
 21 23  1  0  0  0
 22 28  1  0  0  0
 22 32  2  0  0  0
 26 27  1  0  0  0
 28101  1  0  0  0
 28102  1  0  0  0
 29103  1  0  0  0
 29104  1  0  0  0
 33 34  1  0  0  0
 33 66  1  0  0  0
 33 70  2  0  0  0
 34 36  1  0  0  0
 34 59  1  0  0  0
 34105  1  0  0  0
 35 44  2  0  0  0
 35 45  1  0  0  0
 35 68  1  0  0  0
 36 56  1  0  0  0
 36106  1  0  0  0
 37 39  1  0  0  0
 37 47  1  0  0  0
 37 66  1  0  0  0
 37107  1  0  0  0
 38 43  2  0  0  0
 38 46  1  0  0  0
 38 47  1  0  0  0
 39 64  1  0  0  0
 39 67  2  0  0  0
 40 52  1  0  0  0
 40 53  2  0  0  0
 40 58  1  0  0  0
 41108  1  0  0  0
 41109  1  0  0  0
 41110  1  0  0  0
 41 48  1  0  0  0
 42 43  1  0  0  0
 42 66  1  0  0  0
 42111  1  0  0  0
 42112  1  0  0  0
 43 44  1  0  0  0
 44113  1  0  0  0
 45 46  2  0  0  0
 45114  1  0  0  0
 46115  1  0  0  0
 47116  1  0  0  0
 47117  1  0  0  0
 48 56  1  0  0  0
 48 65  1  0  0  0
 48118  1  0  0  0
 49 50  1  0  0  0
 49 53  1  0  0  0
 49 64  1  0  0  0
 49119  1  0  0  0
 50 51  1  0  0  0
 50120  1  0  0  0
 50121  1  0  0  0
 51 52  1  0  0  0
 51122  1  0  0  0
 51123  1  0  0  0
 52124  1  0  0  0
 52125  1  0  0  0
 53 54  1  0  0  0
 54 55  2  0  0  0
 54126  1  0  0  0
 55 57  1  0  0  0
 55127  1  0  0  0
 56 69  2  0  0  0
 57 58  2  0  0  0
 57128  1  0  0  0
 58129  1  0  0  0
 59 60  1  0  0  0
 59 61  1  0  0  0
 59 62  1  0  0  0
 60130  1  0  0  0
 60131  1  0  0  0
 60132  1  0  0  0
 61133  1  0  0  0
 61134  1  0  0  0
 61135  1  0  0  0
 62136  1  0  0  0
 62137  1  0  0  0
 62138  1  0  0  0
 63 65  1  0  0  0
 63139  1  0  0  0
 63140  1  0  0  0
 63141  1  0  0  0
 64142  1  0  0  0
 65143  1  0  0  0
 68 82  1  0  0  0
 71144  1  0  0  0
 71145  1  0  0  0
 71 77  1  0  0  0
 71 78  1  0  0  0
 72 78  1  0  0  0
 72 79  1  0  0  0
 72146  1  0  0  0
 72147  1  0  0  0
 73 76  1  0  0  0
 73148  1  0  0  0
 73149  1  0  0  0
 73 84  1  0  0  0
 74 76  1  0  0  0
 74 84  1  0  0  0
 74150  1  0  0  0
 74151  1  0  0  0
 75 77  1  0  0  0
 75 78  1  0  0  0
 75 80  1  0  0  0
 75152  1  0  0  0
 76 83  1  0  0  0
 76153  1  0  0  0
 77 84  1  0  0  0
 77154  1  0  0  0
 78 79  1  0  0  0
 79 81  1  0  0  0
 79 82  1  0  0  0
 80155  1  0  0  0
 80156  1  0  0  0
 80157  1  0  0  0
 81158  1  0  0  0
 81159  1  0  0  0
 81160  1  0  0  0
 82161  1  0  0  0
 82162  1  0  0  0
 83163  1  0  0  0
 84164  1  0  0  0
M  CHG  1  84   1
M  ISO  4   1 100  68 101  82 101  83 100
M  END
> <chiral flag>
0

> <version>
0

> <s_m_source_file>
/data/baiqing/PycharmProjects/Reinvent-master-3.2/result/LINK_invent/BTK/process_docking_weight1_custom_sum_contain_oxygen_bond_distance_aromatic_linkinvent_7_9_3/rearranged_h_0166.sdf

> <i_m_source_file_index>
72

> <r_mmod_Potential_Energy-OPLS-2005>
322.494049072266

> <r_mmod_Stretch_Energy-OPLS-2005>
69.9469757080078

> <r_mmod_Bend_Energy-OPLS-2005>
470.653656005859

> <r_mmod_Torsional_Energy-OPLS-2005>
340.536529541016

> <r_mmod_Improper_Torsional_Energy-OPLS-2005>
4.4503288269043

> <r_mmod_Van_der_Waal_Energy-OPLS-2005>
116.996673583984

> <r_mmod_Electrostatic_Energy-OPLS-2005>
-254.682693481445

> <r_mmod_Solvation_Energy-OPLS-2005>
-462.968994140625

> <b_mmod_Minimization_Converged-OPLS-2005>
0

> <r_mmod_RMS_Derivative-OPLS-2005>
0.133494019508362

$$$$
72
                    3D
 Structure written by MMmdl.
170180  0  0  1  0            999 V2000
  -30.6050  -14.8023   20.4560 C   0  0  0  0  0  0
  -30.4326  -12.4967   19.4701 C   0  0  0  0  0  0
  -29.5084  -12.5178   18.2331 C   0  0  0  0  0  0
  -28.0377  -12.3292   18.6515 C   0  0  0  0  0  0
  -27.6368  -13.2391   19.8437 C   0  0  2  0  0  0
  -28.6843  -13.2017   20.9773 C   0  0  0  0  0  0
  -25.2491  -13.8212   20.5701 C   0  0  0  0  0  0
  -24.1797  -13.0444   20.9220 C   0  0  0  0  0  0
  -24.6402  -11.6925   20.8762 C   0  0  0  0  0  0
  -23.9085  -10.4297   21.0414 C   0  0  0  0  0  0
  -24.3636   -9.4209   21.9184 C   0  0  0  0  0  0
  -23.6306   -8.2246   22.0754 C   0  0  0  0  0  0
  -22.4287   -8.0289   21.3547 C   0  0  0  0  0  0
  -21.9929   -9.0263   20.4646 C   0  0  0  0  0  0
  -22.7262  -10.2136   20.3056 C   0  0  0  0  0  0
  -21.6853   -6.0746   22.5280 C   0  0  0  0  0  0
  -21.4012   -6.5646   23.8217 C   0  0  0  0  0  0
  -21.3659   -5.6795   24.9177 C   0  0  0  0  0  0
  -21.6043   -4.3060   24.7224 C   0  0  0  0  0  0
  -21.8819   -3.8153   23.4346 C   0  0  0  0  0  0
  -21.9194   -4.6972   22.3402 C   0  0  0  0  0  0
  -22.7817  -13.5218   21.1875 C   0  0  0  0  0  0
  -22.1661   -4.2161   21.0979 F   0  0  0  0  0  0
  -21.5631   -3.4539   25.7735 F   0  0  0  0  0  0
  -29.9750  -13.5733   20.3839 N   0  0  0  0  0  0
  -26.2922  -12.9428   20.3270 N   0  0  0  0  0  0
  -25.9332  -11.6565   20.5751 N   0  0  0  0  0  0
  -22.0464  -12.8202   22.0424 N   0  0  0  0  0  0
  -25.4162  -15.1935   20.4113 N   0  0  0  0  0  0
  -31.8021  -14.8608   20.1637 O   0  0  0  0  0  0
  -21.6646   -6.8889   21.4244 O   0  0  0  0  0  0
  -22.3497  -14.5520   20.6719 O   0  0  0  0  0  0
  -24.6351  -31.8511   23.1944 C   0  0  0  0  0  0
  -25.9159  -32.4733   23.8308 C   0  0  1  0  0  0
  -27.2176  -27.2234   20.1389 C   0  0  0  0  0  0
  -25.5940  -33.8537   24.2234 N   0  0  0  0  0  0
  -23.4335  -30.4731   21.5377 C   0  0  2  0  0  0
  -24.8822  -28.9133   20.1078 C   0  0  0  0  0  0
  -22.7517  -29.4591   22.4888 C   0  0  0  0  0  0
  -18.0298  -28.1386   22.8481 C   0  0  0  0  0  0
  -24.1490  -36.7271   23.2641 C   0  0  0  0  0  0
  -25.9823  -30.7531   21.3785 C   0  0  0  0  0  0
  -26.0555  -29.3725   20.7207 C   0  0  0  0  0  0
  -27.2272  -28.5420   20.7207 C   0  0  0  0  0  0
  -26.0242  -26.8455   19.4870 C   0  0  0  0  0  0
  -24.8746  -27.6605   19.4764 C   0  0  0  0  0  0
  -23.6541  -29.8042   20.1547 C   0  0  0  0  0  0
  -25.4117  -36.3053   24.0323 C   0  0  1  0  0  0
  -20.5905  -28.3703   23.1253 C   0  0  2  0  0  0
  -20.6784  -26.9416   22.5404 C   0  0  0  0  0  0
  -19.5765  -26.6380   21.5205 C   0  0  0  0  0  0
  -18.1942  -26.7931   22.1611 C   0  0  0  0  0  0
  -19.1553  -28.8861   23.2865 C   0  0  0  0  0  0
  -18.9476  -30.1460   23.8885 C   0  0  0  0  0  0
  -17.6476  -30.6590   24.0560 C   0  0  0  0  0  0
  -25.9059  -34.9427   23.5083 C   0  0  0  0  0  0
  -16.5362  -29.9086   23.6329 C   0  0  0  0  0  0
  -16.7282  -28.6503   23.0349 C   0  0  0  0  0  0
  -26.4510  -31.6569   25.0711 C   0  0  0  0  0  0
  -25.3718  -31.3731   26.1419 C   0  0  0  0  0  0
  -27.0371  -30.2985   24.6217 C   0  0  0  0  0  0
  -27.6058  -32.4315   25.7491 C   0  0  0  0  0  0
  -27.5577  -37.1791   24.8463 C   0  0  0  0  0  0
  -21.4219  -29.3047   22.3635 N   0  0  0  0  0  0
  -26.4286  -37.3759   23.9412 N   0  0  0  0  0  0
  -24.7030  -31.0446   22.0928 N   0  0  0  0  0  0
  -23.4202  -28.8136   23.3006 O   0  0  0  0  0  0
  -28.2903  -26.2911   20.2080 O   0  0  0  0  0  0
  -26.5638  -34.8913   22.4655 O   0  0  0  0  0  0
  -23.5492  -32.1346   23.7218 O   0  0  0  0  0  0
  -29.0246  -18.3431   18.8515 C   0  0  0  0  0  0
  -28.7615  -20.7156   18.2044 C   0  0  0  0  0  0
  -29.0706  -21.1753   19.5272 C   0  0  0  0  0  0
  -28.6320  -19.3240   17.9250 C   0  0  0  0  0  0
  -29.5341  -18.6780   20.1109 C   0  0  0  0  0  0
  -29.4845  -20.1154   20.4615 C   0  0  0  0  0  0
  -29.3929  -21.4642   15.7434 C   0  0  0  0  0  0
  -29.7664  -22.6046   16.6374 C   0  0  0  0  0  0
  -28.1296  -23.8642   19.0773 C   0  0  0  0  0  0
  -28.8933  -23.7296   21.0360 C   0  0  0  0  0  0
  -28.6281  -21.6797   17.0424 C   0  0  0  0  0  0
  -29.0755  -22.7970   19.7734 C   0  0  1  0  0  0
  -27.9799  -24.8024   20.3115 C   0  0  1  0  0  0
  -28.1033  -18.8156   16.5900 C   0  0  0  0  0  0
  -29.9138  -20.5624   21.8490 C   0  0  0  0  0  0
  -31.6927  -17.6854   21.0638 C   0  0  0  0  0  0
  -30.1714  -17.4583   20.9578 C   0  0  2  0  0  0
  -29.8441  -15.9589   20.6781 N   0  0  0  0  0  0
  -31.4711  -12.6282   19.1611 H   0  0  0  0  0  0
  -30.3914  -11.5271   19.9683 H   0  0  0  0  0  0
  -29.8016  -11.7394   17.5274 H   0  0  0  0  0  0
  -29.6211  -13.4669   17.7064 H   0  0  0  0  0  0
  -27.9076  -11.2820   18.9266 H   0  0  0  0  0  0
  -27.3761  -12.5031   17.8020 H   0  0  0  0  0  0
  -27.6197  -14.2552   19.4485 H   0  0  0  0  0  0
  -28.7384  -12.2091   21.4265 H   0  0  0  0  0  0
  -28.4114  -13.8878   21.7807 H   0  0  0  0  0  0
  -25.2782   -9.5682   22.4761 H   0  0  0  0  0  0
  -24.0017   -7.4635   22.7470 H   0  0  0  0  0  0
  -21.0864   -8.8782   19.8947 H   0  0  0  0  0  0
  -22.3728  -10.9677   19.6165 H   0  0  0  0  0  0
  -21.2000   -7.6154   23.9725 H   0  0  0  0  0  0
  -21.1480   -6.0524   25.9082 H   0  0  0  0  0  0
  -22.0599   -2.7616   23.2840 H   0  0  0  0  0  0
  -22.4088  -11.9864   22.4807 H   0  0  0  0  0  0
  -21.1073  -13.1203   22.2616 H   0  0  0  0  0  0
  -24.6443  -15.8428   20.5183 H   0  0  0  0  0  0
  -26.2558  -15.6354   20.0607 H   0  0  0  0  0  0
  -26.7222  -32.5366   23.1043 H   0  0  0  0  0  0
  -25.0083  -33.9669   25.0378 H   0  0  0  0  0  0
  -22.7326  -31.2971   21.3880 H   0  0  0  0  0  0
  -23.3759  -35.9597   23.3287 H   0  0  0  0  0  0
  -24.3586  -36.8909   22.2060 H   0  0  0  0  0  0
  -23.7239  -37.6462   23.6679 H   0  0  0  0  0  0
  -26.1241  -31.5108   20.6069 H   0  0  0  0  0  0
  -26.8590  -30.8047   22.0123 H   0  0  0  0  0  0
  -28.1229  -28.8868   21.2180 H   0  0  0  0  0  0
  -25.9572  -25.8861   18.9946 H   0  0  0  0  0  0
  -23.9785  -27.3058   18.9857 H   0  0  0  0  0  0
  -23.7819  -30.5789   19.3978 H   0  0  0  0  0  0
  -22.7714  -29.2394   19.8487 H   0  0  0  0  0  0
  -25.1304  -36.1887   25.0815 H   0  0  0  0  0  0
  -21.0000  -28.3284   24.1373 H   0  0  0  0  0  0
  -20.5667  -26.2318   23.3615 H   0  0  0  0  0  0
  -21.6653  -26.7431   22.1207 H   0  0  0  0  0  0
  -19.6927  -25.6288   21.1243 H   0  0  0  0  0  0
  -19.6704  -27.3184   20.6733 H   0  0  0  0  0  0
  -17.4213  -26.6675   21.4014 H   0  0  0  0  0  0
  -18.0346  -26.0075   22.9011 H   0  0  0  0  0  0
  -19.7954  -30.7275   24.2248 H   0  0  0  0  0  0
  -17.5033  -31.6270   24.5167 H   0  0  0  0  0  0
  -15.5365  -30.2987   23.7670 H   0  0  0  0  0  0
  -15.8678  -28.0822   22.7068 H   0  0  0  0  0  0
  -24.5915  -30.7054   25.7746 H   0  0  0  0  0  0
  -24.8882  -32.2902   26.4793 H   0  0  0  0  0  0
  -25.8022  -30.8947   27.0225 H   0  0  0  0  0  0
  -26.2967  -29.6716   24.1233 H   0  0  0  0  0  0
  -27.4047  -29.7263   25.4745 H   0  0  0  0  0  0
  -27.8842  -30.4264   23.9476 H   0  0  0  0  0  0
  -27.2671  -33.3638   26.2025 H   0  0  0  0  0  0
  -28.3896  -32.6831   25.0334 H   0  0  0  0  0  0
  -28.0691  -31.8458   26.5441 H   0  0  0  0  0  0
  -28.2581  -38.0101   24.7516 H   0  0  0  0  0  0
  -28.1088  -36.2632   24.6278 H   0  0  0  0  0  0
  -27.2300  -37.1419   25.8866 H   0  0  0  0  0  0
  -20.9405  -29.8776   21.6842 H   0  0  0  0  0  0
  -26.0155  -38.2827   24.1417 H   0  0  0  0  0  0
  -28.9875  -17.3032   18.5589 H   0  0  0  0  0  0
  -30.1168  -20.6547   15.6805 H   0  0  0  0  0  0
  -28.8963  -21.7194   14.8094 H   0  0  0  0  0  0
  -29.5257  -23.5980   16.2648 H   0  0  0  0  0  0
  -30.7110  -22.5219   17.1709 H   0  0  0  0  0  0
  -27.1626  -23.4470   18.7949 H   0  0  0  0  0  0
  -28.5833  -24.3747   18.2299 H   0  0  0  0  0  0
  -29.8350  -24.1326   21.4097 H   0  0  0  0  0  0
  -28.3499  -23.2382   21.8429 H   0  0  0  0  0  0
  -27.6056  -22.0397   16.9473 H   0  0  0  0  0  0
  -30.0826  -23.0419   19.4330 H   0  0  0  0  0  0
  -26.9800  -24.6870   20.7351 H   0  0  0  0  0  0
  -27.5921  -17.8600   16.7129 H   0  0  0  0  0  0
  -28.9183  -18.6604   15.8834 H   0  0  0  0  0  0
  -27.3817  -19.5039   16.1499 H   0  0  0  0  0  0
  -29.0933  -21.0780   22.3474 H   0  0  0  0  0  0
  -30.7588  -21.2482   21.7815 H   0  0  0  0  0  0
  -30.2041  -19.7385   22.4970 H   0  0  0  0  0  0
  -31.9321  -18.6814   21.4337 H   0  0  0  0  0  0
  -32.1739  -17.5843   20.0906 H   0  0  0  0  0  0
  -32.1606  -16.9785   21.7485 H   0  0  0  0  0  0
  -29.7705  -17.5968   21.9618 H   0  0  0  0  0  0
  -28.8653  -15.7500   20.8021 H   0  0  0  0  0  0
  1 25  1  0  0  0
  1 30  2  0  0  0
  1 88  1  0  0  0
  2  3  1  0  0  0
  2 25  1  0  0  0
  2 89  1  0  0  0
  2 90  1  0  0  0
  3  4  1  0  0  0
  3 91  1  0  0  0
  3 92  1  0  0  0
  4  5  1  0  0  0
  4 93  1  0  0  0
  4 94  1  0  0  0
  5  6  1  0  0  0
  5 26  1  0  0  0
  5 95  1  0  0  0
  6 25  1  0  0  0
  6 96  1  0  0  0
  6 97  1  0  0  0
  7  8  2  0  0  0
  7 26  1  0  0  0
  7 29  1  0  0  0
  8  9  1  0  0  0
  8 22  1  0  0  0
  9 10  1  0  0  0
  9 27  2  0  0  0
 10 11  2  0  0  0
 10 15  1  0  0  0
 11 12  1  0  0  0
 11 98  1  0  0  0
 12 13  2  0  0  0
 12 99  1  0  0  0
 13 14  1  0  0  0
 13 31  1  0  0  0
 14 15  2  0  0  0
 14100  1  0  0  0
 15101  1  0  0  0
 16 17  2  0  0  0
 16 21  1  0  0  0
 16 31  1  0  0  0
 17 18  1  0  0  0
 17102  1  0  0  0
 18 19  2  0  0  0
 18103  1  0  0  0
 19 20  1  0  0  0
 19 24  1  0  0  0
 20 21  2  0  0  0
 20104  1  0  0  0
 21 23  1  0  0  0
 22 28  1  0  0  0
 22 32  2  0  0  0
 26 27  1  0  0  0
 28105  1  0  0  0
 28106  1  0  0  0
 29107  1  0  0  0
 29108  1  0  0  0
 33 34  1  0  0  0
 33 66  1  0  0  0
 33 70  2  0  0  0
 34 36  1  0  0  0
 34 59  1  0  0  0
 34109  1  0  0  0
 35 44  2  0  0  0
 35 45  1  0  0  0
 35 68  1  0  0  0
 36 56  1  0  0  0
 36110  1  0  0  0
 37 39  1  0  0  0
 37 47  1  0  0  0
 37 66  1  0  0  0
 37111  1  0  0  0
 38 43  2  0  0  0
 38 46  1  0  0  0
 38 47  1  0  0  0
 39 64  1  0  0  0
 39 67  2  0  0  0
 40 52  1  0  0  0
 40 53  2  0  0  0
 40 58  1  0  0  0
 41112  1  0  0  0
 41113  1  0  0  0
 41114  1  0  0  0
 41 48  1  0  0  0
 42 43  1  0  0  0
 42 66  1  0  0  0
 42115  1  0  0  0
 42116  1  0  0  0
 43 44  1  0  0  0
 44117  1  0  0  0
 45 46  2  0  0  0
 45118  1  0  0  0
 46119  1  0  0  0
 47120  1  0  0  0
 47121  1  0  0  0
 48 56  1  0  0  0
 48 65  1  0  0  0
 48122  1  0  0  0
 49 50  1  0  0  0
 49 53  1  0  0  0
 49 64  1  0  0  0
 49123  1  0  0  0
 50 51  1  0  0  0
 50124  1  0  0  0
 50125  1  0  0  0
 51 52  1  0  0  0
 51126  1  0  0  0
 51127  1  0  0  0
 52128  1  0  0  0
 52129  1  0  0  0
 53 54  1  0  0  0
 54 55  2  0  0  0
 54130  1  0  0  0
 55 57  1  0  0  0
 55131  1  0  0  0
 56 69  2  0  0  0
 57 58  2  0  0  0
 57132  1  0  0  0
 58133  1  0  0  0
 59 60  1  0  0  0
 59 61  1  0  0  0
 59 62  1  0  0  0
 60134  1  0  0  0
 60135  1  0  0  0
 60136  1  0  0  0
 61137  1  0  0  0
 61138  1  0  0  0
 61139  1  0  0  0
 62140  1  0  0  0
 62141  1  0  0  0
 62142  1  0  0  0
 63 65  1  0  0  0
 63143  1  0  0  0
 63144  1  0  0  0
 63145  1  0  0  0
 64146  1  0  0  0
 65147  1  0  0  0
 68 83  1  0  0  0
 71 74  2  0  0  0
 71 75  1  0  0  0
 71148  1  0  0  0
 72 73  2  0  0  0
 72 74  1  0  0  0
 72 81  1  0  0  0
 73 76  1  0  0  0
 73 82  1  0  0  0
 74 84  1  0  0  0
 75 76  2  0  0  0
 75 87  1  0  0  0
 76 85  1  0  0  0
 77 78  1  0  0  0
 77 81  1  0  0  0
 77149  1  0  0  0
 77150  1  0  0  0
 78 81  1  0  0  0
 78151  1  0  0  0
 78152  1  0  0  0
 79 82  1  0  0  0
 79 83  1  0  0  0
 79153  1  0  0  0
 79154  1  0  0  0
 80 82  1  0  0  0
 80 83  1  0  0  0
 80155  1  0  0  0
 80156  1  0  0  0
 81157  1  0  0  0
 82158  1  0  0  0
 83159  1  0  0  0
 84160  1  0  0  0
 84161  1  0  0  0
 84162  1  0  0  0
 85163  1  0  0  0
 85164  1  0  0  0
 85165  1  0  0  0
 86166  1  0  0  0
 86167  1  0  0  0
 86168  1  0  0  0
 86 87  1  0  0  0
 87 88  1  0  0  0
 87169  1  0  0  0
 88170  1  0  0  0
M  ISO  4   1 100  68 101  83 101  88 100
M  END
> <chiral flag>
0

> <version>
0

> <s_m_source_file>
/data/baiqing/PycharmProjects/Reinvent-master-3.2/result/LINK_invent/BTK/process_docking_weight1_custom_sum_contain_oxygen_bond_distance_aromatic_linkinvent_7_9_3/rearranged_h_0166.sdf

> <i_m_source_file_index>
73

> <r_mmod_Potential_Energy-OPLS-2005>
293.429901123047

> <r_mmod_Stretch_Energy-OPLS-2005>
168.494537353516

> <r_mmod_Bend_Energy-OPLS-2005>
228.694442749023

> <r_mmod_Torsional_Energy-OPLS-2005>
280.373291015625

> <r_mmod_Improper_Torsional_Energy-OPLS-2005>
4.78889465332031

> <r_mmod_Van_der_Waal_Energy-OPLS-2005>
143.100799560547

> <r_mmod_Electrostatic_Energy-OPLS-2005>
-439.430999755859

> <r_mmod_Solvation_Energy-OPLS-2005>
-205.048324584961

> <b_mmod_Minimization_Converged-OPLS-2005>
0

> <r_mmod_RMS_Derivative-OPLS-2005>
0.909483551979065

$$$$
73
                    3D
 Structure written by MMmdl.
169178  0  0  1  0            999 V2000
  -30.7863  -14.3422   20.7112 C   0  0  0  0  0  0
  -30.4132  -12.2942   19.3848 C   0  0  0  0  0  0
  -29.4780  -12.5308   18.1862 C   0  0  0  0  0  0
  -28.0051  -12.3796   18.6076 C   0  0  0  0  0  0
  -27.6644  -13.2028   19.8768 C   0  0  2  0  0  0
  -28.7017  -12.9472   20.9909 C   0  0  0  0  0  0
  -25.2598  -13.8159   20.5675 C   0  0  0  0  0  0
  -24.1841  -13.0441   20.9162 C   0  0  0  0  0  0
  -24.6387  -11.6905   20.8721 C   0  0  0  0  0  0
  -23.9053  -10.4294   21.0399 C   0  0  0  0  0  0
  -24.3608   -9.4213   21.9181 C   0  0  0  0  0  0
  -23.6287   -8.2247   22.0754 C   0  0  0  0  0  0
  -22.4270   -8.0281   21.3544 C   0  0  0  0  0  0
  -21.9902   -9.0253   20.4646 C   0  0  0  0  0  0
  -22.7225  -10.2134   20.3052 C   0  0  0  0  0  0
  -21.6852   -6.0734   22.5279 C   0  0  0  0  0  0
  -21.4014   -6.5639   23.8213 C   0  0  0  0  0  0
  -21.3659   -5.6792   24.9176 C   0  0  0  0  0  0
  -21.6044   -4.3055   24.7225 C   0  0  0  0  0  0
  -21.8820   -3.8145   23.4347 C   0  0  0  0  0  0
  -21.9193   -4.6961   22.3403 C   0  0  0  0  0  0
  -22.7866  -13.5242   21.1835 C   0  0  0  0  0  0
  -22.1661   -4.2147   21.0979 F   0  0  0  0  0  0
  -21.5629   -3.4538   25.7739 F   0  0  0  0  0  0
  -30.0465  -13.2334   20.4545 N   0  0  0  0  0  0
  -26.3034  -12.9324   20.3368 N   0  0  0  0  0  0
  -25.9311  -11.6483   20.5748 N   0  0  0  0  0  0
  -22.0506  -12.8236   22.0392 N   0  0  0  0  0  0
  -25.4340  -15.1876   20.4098 N   0  0  0  0  0  0
  -31.7856  -14.6580   20.0578 O   0  0  0  0  0  0
  -21.6637   -6.8876   21.4241 O   0  0  0  0  0  0
  -22.3553  -14.5552   20.6690 O   0  0  0  0  0  0
  -24.6115  -31.8699   23.2113 C   0  0  0  0  0  0
  -25.9020  -32.4832   23.8405 C   0  0  1  0  0  0
  -27.2365  -27.4647   20.0950 C   0  0  0  0  0  0
  -25.5887  -33.8629   24.2339 N   0  0  0  0  0  0
  -23.3976  -30.4924   21.5515 C   0  0  2  0  0  0
  -24.8437  -28.9570   20.1188 C   0  0  0  0  0  0
  -22.7389  -29.4671   22.5011 C   0  0  0  0  0  0
  -18.0267  -28.1379   22.8497 C   0  0  0  0  0  0
  -24.1485  -36.7324   23.2640 C   0  0  0  0  0  0
  -25.9216  -30.8466   21.3561 C   0  0  0  0  0  0
  -26.0013  -29.4812   20.7076 C   0  0  0  0  0  0
  -27.2030  -28.7437   20.6877 C   0  0  0  0  0  0
  -26.0646  -26.9419   19.5070 C   0  0  0  0  0  0
  -24.8683  -27.6855   19.5169 C   0  0  0  0  0  0
  -23.6037  -29.8199   20.1674 C   0  0  0  0  0  0
  -25.4104  -36.3119   24.0341 C   0  0  1  0  0  0
  -20.5855  -28.3661   23.1334 C   0  0  2  0  0  0
  -20.6760  -26.9403   22.5422 C   0  0  0  0  0  0
  -19.5742  -26.6393   21.5216 C   0  0  0  0  0  0
  -18.1918  -26.7929   22.1623 C   0  0  0  0  0  0
  -19.1516  -28.8835   23.2913 C   0  0  0  0  0  0
  -18.9447  -30.1441   23.8925 C   0  0  0  0  0  0
  -17.6450  -30.6588   24.0569 C   0  0  0  0  0  0
  -25.9029  -34.9482   23.5138 C   0  0  0  0  0  0
  -16.5342  -29.9092   23.6324 C   0  0  0  0  0  0
  -16.7258  -28.6506   23.0351 C   0  0  0  0  0  0
  -26.4463  -31.6602   25.0720 C   0  0  0  0  0  0
  -25.3742  -31.3680   26.1475 C   0  0  0  0  0  0
  -27.0292  -30.3058   24.6059 C   0  0  0  0  0  0
  -27.6047  -32.4314   25.7479 C   0  0  0  0  0  0
  -27.5580  -37.1815   24.8467 C   0  0  0  0  0  0
  -21.4122  -29.3033   22.3745 N   0  0  0  0  0  0
  -26.4296  -37.3798   23.9408 N   0  0  0  0  0  0
  -24.6622  -31.0828   22.0993 N   0  0  0  0  0  0
  -23.4175  -28.8218   23.3047 O   0  0  0  0  0  0
  -28.4181  -26.7672   20.0729 O   0  0  0  0  0  0
  -26.5592  -34.8929   22.4699 O   0  0  0  0  0  0
  -23.5316  -32.1434   23.7529 O   0  0  0  0  0  0
  -29.7236  -19.5882   22.0518 C   0  0  0  0  0  0
  -31.7961  -18.0180   21.0058 C   0  0  0  0  0  0
  -30.6275  -20.1610   21.1304 C   0  0  0  0  0  0
  -29.8610  -18.2471   22.4704 C   0  0  0  0  0  0
  -31.6580  -19.3567   20.5847 C   0  0  0  0  0  0
  -30.9275  -17.4636   21.9670 C   0  0  0  0  0  0
  -29.4589  -22.6069   21.3181 C   0  0  0  0  0  0
  -30.1258  -22.2200   19.4324 C   0  0  0  0  0  0
  -30.5266  -21.6466   20.7920 C   0  0  2  0  0  0
  -28.8776  -17.6863   23.4840 C   0  0  0  0  0  0
  -32.6457  -19.9099   19.5706 C   0  0  0  0  0  0
  -29.1369  -24.8857   18.2299 C   0  0  0  0  0  0
  -31.2024  -16.0507   22.4711 C   0  0  0  0  0  0
  -28.3851  -25.4527   20.6363 C   0  0  0  0  0  0
  -28.7389  -24.3341   19.6180 C   0  0  2  0  0  0
  -30.4205  -15.0146   21.8075 N   0  0  0  0  0  0
  -29.8078  -23.4529   20.1678 N   0  3  1  0  0  0
  -31.4552  -12.3981   19.0765 H   0  0  0  0  0  0
  -30.3151  -11.2699   19.7477 H   0  0  0  0  0  0
  -29.7103  -11.8305   17.3827 H   0  0  0  0  0  0
  -29.6445  -13.5300   17.7805 H   0  0  0  0  0  0
  -27.8165  -11.3209   18.7903 H   0  0  0  0  0  0
  -27.3478  -12.6677   17.7864 H   0  0  0  0  0  0
  -27.7226  -14.2568   19.6033 H   0  0  0  0  0  0
  -28.6619  -11.9053   21.3124 H   0  0  0  0  0  0
  -28.4430  -13.5311   21.8742 H   0  0  0  0  0  0
  -25.2755   -9.5693   22.4753 H   0  0  0  0  0  0
  -23.9999   -7.4641   22.7473 H   0  0  0  0  0  0
  -21.0834   -8.8767   19.8951 H   0  0  0  0  0  0
  -22.3682  -10.9671   19.6158 H   0  0  0  0  0  0
  -21.2006   -7.6146   23.9715 H   0  0  0  0  0  0
  -21.1481   -6.0522   25.9078 H   0  0  0  0  0  0
  -22.0599   -2.7608   23.2847 H   0  0  0  0  0  0
  -22.4112  -11.9886   22.4771 H   0  0  0  0  0  0
  -21.1128  -13.1270   22.2603 H   0  0  0  0  0  0
  -24.6737  -15.8490   20.5236 H   0  0  0  0  0  0
  -26.2988  -15.6246   20.1152 H   0  0  0  0  0  0
  -26.7095  -32.5558   23.1181 H   0  0  0  0  0  0
  -25.0041  -33.9794   25.0485 H   0  0  0  0  0  0
  -22.6854  -31.3081   21.4117 H   0  0  0  0  0  0
  -23.3742  -35.9663   23.3315 H   0  0  0  0  0  0
  -24.3581  -36.8927   22.2052 H   0  0  0  0  0  0
  -23.7244  -37.6536   23.6645 H   0  0  0  0  0  0
  -26.0234  -31.6113   20.5847 H   0  0  0  0  0  0
  -26.8137  -30.9065   21.9677 H   0  0  0  0  0  0
  -28.1016  -29.1493   21.1321 H   0  0  0  0  0  0
  -26.0761  -25.9716   19.0310 H   0  0  0  0  0  0
  -23.9771  -27.2773   19.0596 H   0  0  0  0  0  0
  -23.7069  -30.5916   19.4038 H   0  0  0  0  0  0
  -22.7290  -29.2350   19.8769 H   0  0  0  0  0  0
  -25.1277  -36.1994   25.0835 H   0  0  0  0  0  0
  -20.9945  -28.3230   24.1456 H   0  0  0  0  0  0
  -20.5673  -26.2267   23.3604 H   0  0  0  0  0  0
  -21.6632  -26.7460   22.1212 H   0  0  0  0  0  0
  -19.6905  -25.6311   21.1232 H   0  0  0  0  0  0
  -19.6685  -27.3214   20.6755 H   0  0  0  0  0  0
  -17.4191  -26.6687   21.4020 H   0  0  0  0  0  0
  -18.0311  -26.0062   22.9009 H   0  0  0  0  0  0
  -19.7923  -30.7245   24.2315 H   0  0  0  0  0  0
  -17.5009  -31.6271   24.5164 H   0  0  0  0  0  0
  -15.5344  -30.3006   23.7633 H   0  0  0  0  0  0
  -15.8656  -28.0832   22.7059 H   0  0  0  0  0  0
  -24.5932  -30.7007   25.7814 H   0  0  0  0  0  0
  -24.8908  -32.2817   26.4941 H   0  0  0  0  0  0
  -25.8115  -30.8848   27.0220 H   0  0  0  0  0  0
  -26.2820  -29.6818   24.1141 H   0  0  0  0  0  0
  -27.4117  -29.7292   25.4491 H   0  0  0  0  0  0
  -27.8628  -30.4403   23.9161 H   0  0  0  0  0  0
  -27.2682  -33.3608   26.2085 H   0  0  0  0  0  0
  -28.3841  -32.6881   25.0292 H   0  0  0  0  0  0
  -28.0731  -31.8417   26.5368 H   0  0  0  0  0  0
  -28.2605  -38.0105   24.7509 H   0  0  0  0  0  0
  -28.1069  -36.2638   24.6300 H   0  0  0  0  0  0
  -27.2297  -37.1479   25.8870 H   0  0  0  0  0  0
  -20.9281  -29.8743   21.6959 H   0  0  0  0  0  0
  -26.0190  -38.2880   24.1405 H   0  0  0  0  0  0
  -28.9302  -20.1900   22.4728 H   0  0  0  0  0  0
  -32.5995  -17.4109   20.6099 H   0  0  0  0  0  0
  -29.6768  -23.0413   22.2941 H   0  0  0  0  0  0
  -28.4424  -22.2095   21.2689 H   0  0  0  0  0  0
  -29.2518  -21.7353   18.9909 H   0  0  0  0  0  0
  -30.9396  -22.3199   18.7142 H   0  0  0  0  0  0
  -31.5042  -22.0473   21.0784 H   0  0  0  0  0  0
  -28.0317  -18.3580   23.6333 H   0  0  0  0  0  0
  -29.3628  -17.5428   24.4499 H   0  0  0  0  0  0
  -28.4783  -16.7284   23.1501 H   0  0  0  0  0  0
  -33.4108  -19.1754   19.3171 H   0  0  0  0  0  0
  -33.1570  -20.7908   19.9586 H   0  0  0  0  0  0
  -32.1345  -20.1806   18.6470 H   0  0  0  0  0  0
  -28.3356  -25.4904   17.8042 H   0  0  0  0  0  0
  -29.3365  -24.0851   17.5175 H   0  0  0  0  0  0
  -30.0277  -25.5129   18.2850 H   0  0  0  0  0  0
  -31.0045  -15.9989   23.5417 H   0  0  0  0  0  0
  -32.2680  -15.8318   22.3753 H   0  0  0  0  0  0
  -29.1117  -25.4700   21.4495 H   0  0  0  0  0  0
  -27.4331  -25.2294   21.1225 H   0  0  0  0  0  0
  -27.8435  -23.7276   19.4737 H   0  0  0  0  0  0
  -29.6047  -14.6744   22.2928 H   0  0  0  0  0  0
  -30.6580  -23.9638   20.3621 H   0  0  0  0  0  0
  1 25  1  0  0  0
  1 30  2  0  0  0
  1 86  1  0  0  0
  2  3  1  0  0  0
  2 25  1  0  0  0
  2 88  1  0  0  0
  2 89  1  0  0  0
  3  4  1  0  0  0
  3 90  1  0  0  0
  3 91  1  0  0  0
  4  5  1  0  0  0
  4 92  1  0  0  0
  4 93  1  0  0  0
  5  6  1  0  0  0
  5 26  1  0  0  0
  5 94  1  0  0  0
  6 25  1  0  0  0
  6 95  1  0  0  0
  6 96  1  0  0  0
  7  8  2  0  0  0
  7 26  1  0  0  0
  7 29  1  0  0  0
  8  9  1  0  0  0
  8 22  1  0  0  0
  9 10  1  0  0  0
  9 27  2  0  0  0
 10 11  2  0  0  0
 10 15  1  0  0  0
 11 12  1  0  0  0
 11 97  1  0  0  0
 12 13  2  0  0  0
 12 98  1  0  0  0
 13 14  1  0  0  0
 13 31  1  0  0  0
 14 15  2  0  0  0
 14 99  1  0  0  0
 15100  1  0  0  0
 16 17  2  0  0  0
 16 21  1  0  0  0
 16 31  1  0  0  0
 17 18  1  0  0  0
 17101  1  0  0  0
 18 19  2  0  0  0
 18102  1  0  0  0
 19 20  1  0  0  0
 19 24  1  0  0  0
 20 21  2  0  0  0
 20103  1  0  0  0
 21 23  1  0  0  0
 22 28  1  0  0  0
 22 32  2  0  0  0
 26 27  1  0  0  0
 28104  1  0  0  0
 28105  1  0  0  0
 29106  1  0  0  0
 29107  1  0  0  0
 33 34  1  0  0  0
 33 66  1  0  0  0
 33 70  2  0  0  0
 34 36  1  0  0  0
 34 59  1  0  0  0
 34108  1  0  0  0
 35 44  2  0  0  0
 35 45  1  0  0  0
 35 68  1  0  0  0
 36 56  1  0  0  0
 36109  1  0  0  0
 37 39  1  0  0  0
 37 47  1  0  0  0
 37 66  1  0  0  0
 37110  1  0  0  0
 38 43  2  0  0  0
 38 46  1  0  0  0
 38 47  1  0  0  0
 39 64  1  0  0  0
 39 67  2  0  0  0
 40 52  1  0  0  0
 40 53  2  0  0  0
 40 58  1  0  0  0
 41111  1  0  0  0
 41112  1  0  0  0
 41113  1  0  0  0
 41 48  1  0  0  0
 42 43  1  0  0  0
 42 66  1  0  0  0
 42114  1  0  0  0
 42115  1  0  0  0
 43 44  1  0  0  0
 44116  1  0  0  0
 45 46  2  0  0  0
 45117  1  0  0  0
 46118  1  0  0  0
 47119  1  0  0  0
 47120  1  0  0  0
 48 56  1  0  0  0
 48 65  1  0  0  0
 48121  1  0  0  0
 49 50  1  0  0  0
 49 53  1  0  0  0
 49 64  1  0  0  0
 49122  1  0  0  0
 50 51  1  0  0  0
 50123  1  0  0  0
 50124  1  0  0  0
 51 52  1  0  0  0
 51125  1  0  0  0
 51126  1  0  0  0
 52127  1  0  0  0
 52128  1  0  0  0
 53 54  1  0  0  0
 54 55  2  0  0  0
 54129  1  0  0  0
 55 57  1  0  0  0
 55130  1  0  0  0
 56 69  2  0  0  0
 57 58  2  0  0  0
 57131  1  0  0  0
 58132  1  0  0  0
 59 60  1  0  0  0
 59 61  1  0  0  0
 59 62  1  0  0  0
 60133  1  0  0  0
 60134  1  0  0  0
 60135  1  0  0  0
 61136  1  0  0  0
 61137  1  0  0  0
 61138  1  0  0  0
 62139  1  0  0  0
 62140  1  0  0  0
 62141  1  0  0  0
 63 65  1  0  0  0
 63142  1  0  0  0
 63143  1  0  0  0
 63144  1  0  0  0
 64145  1  0  0  0
 65146  1  0  0  0
 68 84  1  0  0  0
 71 73  2  0  0  0
 71 74  1  0  0  0
 71147  1  0  0  0
 72 75  2  0  0  0
 72 76  1  0  0  0
 72148  1  0  0  0
 73 75  1  0  0  0
 73 79  1  0  0  0
 74 76  2  0  0  0
 74 80  1  0  0  0
 75 81  1  0  0  0
 76 83  1  0  0  0
 77 79  1  0  0  0
 77149  1  0  0  0
 77150  1  0  0  0
 77 87  1  0  0  0
 78 79  1  0  0  0
 78 87  1  0  0  0
 78151  1  0  0  0
 78152  1  0  0  0
 79153  1  0  0  0
 80154  1  0  0  0
 80155  1  0  0  0
 80156  1  0  0  0
 81157  1  0  0  0
 81158  1  0  0  0
 81159  1  0  0  0
 82160  1  0  0  0
 82161  1  0  0  0
 82162  1  0  0  0
 82 85  1  0  0  0
 83 86  1  0  0  0
 83163  1  0  0  0
 83164  1  0  0  0
 84 85  1  0  0  0
 84165  1  0  0  0
 84166  1  0  0  0
 85 87  1  0  0  0
 85167  1  0  0  0
 86168  1  0  0  0
 87169  1  0  0  0
M  CHG  1  87   1
M  ISO  4   1 100  68 101  84 101  86 100
M  END
> <chiral flag>
0

> <version>
0

> <s_m_source_file>
/data/baiqing/PycharmProjects/Reinvent-master-3.2/result/LINK_invent/BTK/process_docking_weight1_custom_sum_contain_oxygen_bond_distance_aromatic_linkinvent_7_9_3/rearranged_h_0166.sdf

> <i_m_source_file_index>
74

> <r_mmod_Potential_Energy-OPLS-2005>
-194.311187744141

> <r_mmod_Stretch_Energy-OPLS-2005>
34.7911949157715

> <r_mmod_Bend_Energy-OPLS-2005>
115.99520111084

> <r_mmod_Torsional_Energy-OPLS-2005>
254.632247924805

> <r_mmod_Improper_Torsional_Energy-OPLS-2005>
2.80013060569763

> <r_mmod_Van_der_Waal_Energy-OPLS-2005>
156.289794921875

> <r_mmod_Electrostatic_Energy-OPLS-2005>
-333.463195800781

> <r_mmod_Solvation_Energy-OPLS-2005>
-432.388244628906

> <b_mmod_Minimization_Converged-OPLS-2005>
0

> <r_mmod_RMS_Derivative-OPLS-2005>
0.36973312497139

$$$$
74
                    3D
 Structure written by MMmdl.
197208  0  0  1  0            999 V2000
  -30.6188  -14.5484   20.5452 C   0  0  0  0  0  0
  -30.4431  -12.3420   19.4303 C   0  0  0  0  0  0
  -29.5073  -12.5208   18.2126 C   0  0  0  0  0  0
  -28.0255  -12.3785   18.6191 C   0  0  0  0  0  0
  -27.6658  -13.2040   19.8839 C   0  0  2  0  0  0
  -28.7083  -12.9657   21.0009 C   0  0  0  0  0  0
  -25.2589  -13.8132   20.5677 C   0  0  0  0  0  0
  -24.1830  -13.0408   20.9128 C   0  0  0  0  0  0
  -24.6394  -11.6874   20.8720 C   0  0  0  0  0  0
  -23.9047  -10.4282   21.0407 C   0  0  0  0  0  0
  -24.3609   -9.4206   21.9194 C   0  0  0  0  0  0
  -23.6275   -8.2248   22.0773 C   0  0  0  0  0  0
  -22.4262   -8.0297   21.3555 C   0  0  0  0  0  0
  -21.9881   -9.0263   20.4661 C   0  0  0  0  0  0
  -22.7216  -10.2140   20.3061 C   0  0  0  0  0  0
  -21.6857   -6.0729   22.5276 C   0  0  0  0  0  0
  -21.4024   -6.5635   23.8206 C   0  0  0  0  0  0
  -21.3658   -5.6787   24.9166 C   0  0  0  0  0  0
  -21.6037   -4.3044   24.7215 C   0  0  0  0  0  0
  -21.8813   -3.8140   23.4337 C   0  0  0  0  0  0
  -21.9185   -4.6952   22.3396 C   0  0  0  0  0  0
  -22.7856  -13.5252   21.1777 C   0  0  0  0  0  0
  -22.1651   -4.2128   21.0967 F   0  0  0  0  0  0
  -21.5619   -3.4536   25.7734 F   0  0  0  0  0  0
  -30.0379  -13.3136   20.4615 N   0  0  0  0  0  0
  -26.3034  -12.9308   20.3392 N   0  0  0  0  0  0
  -25.9329  -11.6460   20.5755 N   0  0  0  0  0  0
  -22.0489  -12.8304   22.0362 N   0  0  0  0  0  0
  -25.4286  -15.1859   20.4166 N   0  0  0  0  0  0
  -31.7072  -14.8130   20.0257 O   0  0  0  0  0  0
  -21.6634   -6.8881   21.4246 O   0  0  0  0  0  0
  -22.3535  -14.5545   20.6615 O   0  0  0  0  0  0
  -24.6194  -31.8629   23.2053 C   0  0  0  0  0  0
  -25.9063  -32.4798   23.8372 C   0  0  1  0  0  0
  -27.2500  -27.3974   20.1101 C   0  0  0  0  0  0
  -25.5892  -33.8592   24.2303 N   0  0  0  0  0  0
  -23.4120  -30.4827   21.5462 C   0  0  2  0  0  0
  -24.8648  -28.9400   20.1164 C   0  0  0  0  0  0
  -22.7450  -29.4624   22.4978 C   0  0  0  0  0  0
  -18.0277  -28.1379   22.8489 C   0  0  0  0  0  0
  -24.1482  -36.7299   23.2641 C   0  0  0  0  0  0
  -25.9449  -30.8174   21.3649 C   0  0  0  0  0  0
  -26.0266  -29.4483   20.7123 C   0  0  0  0  0  0
  -27.2244  -28.6868   20.6982 C   0  0  0  0  0  0
  -26.0700  -26.9092   19.5101 C   0  0  0  0  0  0
  -24.8836  -27.6720   19.5087 C   0  0  0  0  0  0
  -23.6255  -29.8086   20.1635 C   0  0  0  0  0  0
  -25.4101  -36.3093   24.0340 C   0  0  1  0  0  0
  -20.5873  -28.3659   23.1309 C   0  0  2  0  0  0
  -20.6765  -26.9390   22.5421 C   0  0  0  0  0  0
  -19.5743  -26.6386   21.5215 C   0  0  0  0  0  0
  -18.1919  -26.7927   22.1621 C   0  0  0  0  0  0
  -19.1529  -28.8839   23.2893 C   0  0  0  0  0  0
  -18.9456  -30.1446   23.8909 C   0  0  0  0  0  0
  -17.6458  -30.6577   24.0571 C   0  0  0  0  0  0
  -25.9033  -34.9464   23.5126 C   0  0  0  0  0  0
  -16.5348  -29.9080   23.6330 C   0  0  0  0  0  0
  -16.7266  -28.6497   23.0345 C   0  0  0  0  0  0
  -26.4478  -31.6584   25.0712 C   0  0  0  0  0  0
  -25.3746  -31.3691   26.1460 C   0  0  0  0  0  0
  -27.0313  -30.3019   24.6116 C   0  0  0  0  0  0
  -27.6053  -32.4311   25.7465 C   0  0  0  0  0  0
  -27.5578  -37.1794   24.8461 C   0  0  0  0  0  0
  -21.4170  -29.3018   22.3709 N   0  0  0  0  0  0
  -26.4279  -37.3787   23.9421 N   0  0  0  0  0  0
  -24.6767  -31.0704   22.0971 N   0  0  0  0  0  0
  -23.4190  -28.8172   23.3038 O   0  0  0  0  0  0
  -28.4013  -26.6214   20.0875 O   0  0  0  0  0  0
  -26.5610  -34.8923   22.4700 O   0  0  0  0  0  0
  -23.5370  -32.1396   23.7421 O   0  0  0  0  0  0
  -28.1504  -16.8892   22.9365 C   0  0  0  0  0  0
  -27.4950  -18.4191   21.1770 C   0  0  0  0  0  0
  -26.4521  -18.6012   23.3946 C   0  0  0  0  0  0
  -31.7994  -21.3051   21.3047 C   0  0  0  0  0  0
  -28.3424  -17.3849   21.6302 C   0  0  0  0  0  0
  -27.2110  -17.4731   23.8089 C   0  0  0  0  0  0
  -26.5815  -19.0436   22.0517 C   0  0  0  0  0  0
  -31.7954  -19.4844   22.9771 C   0  0  0  0  0  0
  -31.2744  -20.0482   21.7741 C   0  0  0  0  0  0
  -33.1010  -21.6397   21.8025 C   0  0  0  0  0  0
  -33.0103  -19.9751   23.4957 C   0  0  0  0  0  0
  -25.6094  -20.7872   24.6323 C   0  0  0  0  0  0
  -25.9505  -19.7952   25.7119 C   0  0  0  0  0  0
  -31.4235  -23.7197   20.1614 C   0  0  0  0  0  0
  -25.5097  -19.2997   24.3496 C   0  0  0  0  0  0
  -31.0249  -22.2505   20.3418 C   0  0  2  0  0  0
  -30.1109  -23.4288   20.8147 C   0  0  2  0  0  0
  -27.0707  -16.8783   25.2005 C   0  0  0  0  0  0
  -25.7722  -20.2176   21.5209 C   0  0  0  0  0  0
  -31.0397  -18.3995   23.7386 C   0  0  0  0  0  0
  -34.0433  -22.6730   21.2038 C   0  0  0  0  0  0
  -33.6893  -19.3962   24.7269 C   0  0  0  0  0  0
  -28.8272  -24.1267   18.6504 C   0  0  0  0  0  0
  -30.6742  -17.9199   20.6620 C   0  0  0  0  0  0
  -28.3630  -25.3950   20.8669 C   0  0  0  0  0  0
  -29.4906  -16.8791   20.7391 C   0  0  1  0  0  0
  -28.8232  -24.0428   20.1893 C   0  0  2  0  0  0
  -33.6289  -20.9749   22.8505 N   0  3  0  0  0  0
  -30.3123  -19.3180   21.0420 N   0  0  0  0  0  0
  -29.8292  -15.4838   21.1152 N   0  0  0  0  0  0
  -31.4871  -12.4699   19.1346 H   0  0  0  0  0  0
  -30.3686  -11.3265   19.8231 H   0  0  0  0  0  0
  -29.7507  -11.7982   17.4338 H   0  0  0  0  0  0
  -29.6696  -13.5038   17.7656 H   0  0  0  0  0  0
  -27.8277  -11.3211   18.8003 H   0  0  0  0  0  0
  -27.3838  -12.6712   17.7869 H   0  0  0  0  0  0
  -27.7084  -14.2547   19.5993 H   0  0  0  0  0  0
  -28.6992  -11.9172   21.3024 H   0  0  0  0  0  0
  -28.4616  -13.5203   21.9081 H   0  0  0  0  0  0
  -25.2760   -9.5659   22.4747 H   0  0  0  0  0  0
  -23.9966   -7.4643   22.7514 H   0  0  0  0  0  0
  -21.0795   -8.8795   19.8993 H   0  0  0  0  0  0
  -22.3689  -10.9674   19.6164 H   0  0  0  0  0  0
  -21.2050   -7.6146   23.9694 H   0  0  0  0  0  0
  -21.1478   -6.0524   25.9059 H   0  0  0  0  0  0
  -22.0598   -2.7589   23.2842 H   0  0  0  0  0  0
  -22.4121  -11.9999   22.4793 H   0  0  0  0  0  0
  -21.1108  -13.1377   22.2557 H   0  0  0  0  0  0
  -24.6753  -15.8425   20.5882 H   0  0  0  0  0  0
  -26.3037  -15.6441   20.1990 H   0  0  0  0  0  0
  -26.7134  -32.5504   23.1130 H   0  0  0  0  0  0
  -25.0026  -33.9744   25.0437 H   0  0  0  0  0  0
  -22.7028  -31.2996   21.4008 H   0  0  0  0  0  0
  -23.3747  -35.9630   23.3307 H   0  0  0  0  0  0
  -24.3576  -36.8913   22.2056 H   0  0  0  0  0  0
  -23.7228  -37.6500   23.6659 H   0  0  0  0  0  0
  -26.0653  -31.5830   20.5975 H   0  0  0  0  0  0
  -26.8289  -30.8708   21.9887 H   0  0  0  0  0  0
  -28.1235  -29.0807   21.1525 H   0  0  0  0  0  0
  -26.0709  -25.9361   19.0409 H   0  0  0  0  0  0
  -23.9929  -27.2748   19.0411 H   0  0  0  0  0  0
  -23.7339  -30.5802   19.4008 H   0  0  0  0  0  0
  -22.7509  -29.2258   19.8687 H   0  0  0  0  0  0
  -25.1274  -36.1958   25.0831 H   0  0  0  0  0  0
  -20.9959  -28.3231   24.1433 H   0  0  0  0  0  0
  -20.5653  -26.2269   23.3608 H   0  0  0  0  0  0
  -21.6637  -26.7420   22.1222 H   0  0  0  0  0  0
  -19.6902  -25.6303   21.1220 H   0  0  0  0  0  0
  -19.6681  -27.3217   20.6760 H   0  0  0  0  0  0
  -17.4192  -26.6682   21.4020 H   0  0  0  0  0  0
  -18.0308  -26.0061   22.9006 H   0  0  0  0  0  0
  -19.7932  -30.7260   24.2279 H   0  0  0  0  0  0
  -17.5010  -31.6258   24.5173 H   0  0  0  0  0  0
  -15.5349  -30.2984   23.7652 H   0  0  0  0  0  0
  -15.8663  -28.0825   22.7051 H   0  0  0  0  0  0
  -24.5915  -30.7040   25.7798 H   0  0  0  0  0  0
  -24.8942  -32.2848   26.4924 H   0  0  0  0  0  0
  -25.8101  -30.8850   27.0210 H   0  0  0  0  0  0
  -26.2859  -29.6765   24.1190 H   0  0  0  0  0  0
  -27.4088  -29.7274   25.4583 H   0  0  0  0  0  0
  -27.8695  -30.4322   23.9268 H   0  0  0  0  0  0
  -27.2670  -33.3599   26.2071 H   0  0  0  0  0  0
  -28.3837  -32.6893   25.0274 H   0  0  0  0  0  0
  -28.0754  -31.8426   26.5353 H   0  0  0  0  0  0
  -28.2594  -38.0093   24.7527 H   0  0  0  0  0  0
  -28.1075  -36.2632   24.6256 H   0  0  0  0  0  0
  -27.2309  -37.1412   25.8865 H   0  0  0  0  0  0
  -20.9347  -29.8725   21.6911 H   0  0  0  0  0  0
  -26.0171  -38.2862   24.1437 H   0  0  0  0  0  0
  -28.7722  -16.0908   23.3174 H   0  0  0  0  0  0
  -27.6044  -18.7825   20.1642 H   0  0  0  0  0  0
  -26.4407  -21.3486   24.2080 H   0  0  0  0  0  0
  -24.6839  -21.3474   24.7510 H   0  0  0  0  0  0
  -25.2454  -19.6995   26.5351 H   0  0  0  0  0  0
  -27.0002  -19.7141   25.9836 H   0  0  0  0  0  0
  -31.4451  -24.0915   19.1420 H   0  0  0  0  0  0
  -32.0846  -24.2515   20.8373 H   0  0  0  0  0  0
  -24.5109  -18.8729   24.2766 H   0  0  0  0  0  0
  -30.7316  -21.7085   19.4446 H   0  0  0  0  0  0
  -30.0935  -23.5158   21.9002 H   0  0  0  0  0  0
  -27.4190  -15.8445   25.2237 H   0  0  0  0  0  0
  -26.0318  -16.8796   25.5298 H   0  0  0  0  0  0
  -27.6649  -17.4429   25.9182 H   0  0  0  0  0  0
  -25.7074  -20.1980   20.4323 H   0  0  0  0  0  0
  -26.2423  -21.1599   21.8048 H   0  0  0  0  0  0
  -24.7517  -20.2030   21.9053 H   0  0  0  0  0  0
  -29.9730  -18.5875   23.6531 H   0  0  0  0  0  0
  -31.2553  -18.4139   24.8056 H   0  0  0  0  0  0
  -31.2620  -17.3990   23.3711 H   0  0  0  0  0  0
  -33.8483  -22.8402   20.1460 H   0  0  0  0  0  0
  -35.0760  -22.3250   21.2618 H   0  0  0  0  0  0
  -33.9869  -23.6153   21.7494 H   0  0  0  0  0  0
  -33.6625  -18.3063   24.7012 H   0  0  0  0  0  0
  -33.1786  -19.7312   25.6299 H   0  0  0  0  0  0
  -34.7354  -19.6966   24.7956 H   0  0  0  0  0  0
  -29.1440  -23.1835   18.2044 H   0  0  0  0  0  0
  -29.4924  -24.9118   18.2887 H   0  0  0  0  0  0
  -27.8294  -24.3476   18.2716 H   0  0  0  0  0  0
  -31.0661  -17.9275   19.6452 H   0  0  0  0  0  0
  -31.5106  -17.5597   21.2576 H   0  0  0  0  0  0
  -28.9800  -25.5761   21.7483 H   0  0  0  0  0  0
  -27.3597  -25.2417   21.2714 H   0  0  0  0  0  0
  -29.0669  -16.8102   19.7343 H   0  0  0  0  0  0
  -28.0437  -23.3192   20.4357 H   0  0  0  0  0  0
  -34.5459  -21.2709   23.1887 H   0  0  0  0  0  0
  -29.4091  -19.3121   21.5105 H   0  0  0  0  0  0
  -29.0707  -15.0560   21.6209 H   0  0  0  0  0  0
  1 25  1  0  0  0
  1 30  2  0  0  0
  1100  1  0  0  0
  2  3  1  0  0  0
  2 25  1  0  0  0
  2101  1  0  0  0
  2102  1  0  0  0
  3  4  1  0  0  0
  3103  1  0  0  0
  3104  1  0  0  0
  4  5  1  0  0  0
  4105  1  0  0  0
  4106  1  0  0  0
  5  6  1  0  0  0
  5 26  1  0  0  0
  5107  1  0  0  0
  6 25  1  0  0  0
  6108  1  0  0  0
  6109  1  0  0  0
  7  8  2  0  0  0
  7 26  1  0  0  0
  7 29  1  0  0  0
  8  9  1  0  0  0
  8 22  1  0  0  0
  9 10  1  0  0  0
  9 27  2  0  0  0
 10 11  2  0  0  0
 10 15  1  0  0  0
 11 12  1  0  0  0
 11110  1  0  0  0
 12 13  2  0  0  0
 12111  1  0  0  0
 13 14  1  0  0  0
 13 31  1  0  0  0
 14 15  2  0  0  0
 14112  1  0  0  0
 15113  1  0  0  0
 16 17  2  0  0  0
 16 21  1  0  0  0
 16 31  1  0  0  0
 17 18  1  0  0  0
 17114  1  0  0  0
 18 19  2  0  0  0
 18115  1  0  0  0
 19 20  1  0  0  0
 19 24  1  0  0  0
 20 21  2  0  0  0
 20116  1  0  0  0
 21 23  1  0  0  0
 22 28  1  0  0  0
 22 32  2  0  0  0
 26 27  1  0  0  0
 28117  1  0  0  0
 28118  1  0  0  0
 29119  1  0  0  0
 29120  1  0  0  0
 33 34  1  0  0  0
 33 66  1  0  0  0
 33 70  2  0  0  0
 34 36  1  0  0  0
 34 59  1  0  0  0
 34121  1  0  0  0
 35 44  2  0  0  0
 35 45  1  0  0  0
 35 68  1  0  0  0
 36 56  1  0  0  0
 36122  1  0  0  0
 37 39  1  0  0  0
 37 47  1  0  0  0
 37 66  1  0  0  0
 37123  1  0  0  0
 38 43  2  0  0  0
 38 46  1  0  0  0
 38 47  1  0  0  0
 39 64  1  0  0  0
 39 67  2  0  0  0
 40 52  1  0  0  0
 40 53  2  0  0  0
 40 58  1  0  0  0
 41124  1  0  0  0
 41125  1  0  0  0
 41126  1  0  0  0
 41 48  1  0  0  0
 42 43  1  0  0  0
 42 66  1  0  0  0
 42127  1  0  0  0
 42128  1  0  0  0
 43 44  1  0  0  0
 44129  1  0  0  0
 45 46  2  0  0  0
 45130  1  0  0  0
 46131  1  0  0  0
 47132  1  0  0  0
 47133  1  0  0  0
 48 56  1  0  0  0
 48 65  1  0  0  0
 48134  1  0  0  0
 49 50  1  0  0  0
 49 53  1  0  0  0
 49 64  1  0  0  0
 49135  1  0  0  0
 50 51  1  0  0  0
 50136  1  0  0  0
 50137  1  0  0  0
 51 52  1  0  0  0
 51138  1  0  0  0
 51139  1  0  0  0
 52140  1  0  0  0
 52141  1  0  0  0
 53 54  1  0  0  0
 54 55  2  0  0  0
 54142  1  0  0  0
 55 57  1  0  0  0
 55143  1  0  0  0
 56 69  2  0  0  0
 57 58  2  0  0  0
 57144  1  0  0  0
 58145  1  0  0  0
 59 60  1  0  0  0
 59 61  1  0  0  0
 59 62  1  0  0  0
 60146  1  0  0  0
 60147  1  0  0  0
 60148  1  0  0  0
 61149  1  0  0  0
 61150  1  0  0  0
 61151  1  0  0  0
 62152  1  0  0  0
 62153  1  0  0  0
 62154  1  0  0  0
 63 65  1  0  0  0
 63155  1  0  0  0
 63156  1  0  0  0
 63157  1  0  0  0
 64158  1  0  0  0
 65159  1  0  0  0
 68 95  1  0  0  0
 71 75  2  0  0  0
 71 76  1  0  0  0
 71160  1  0  0  0
 72 75  1  0  0  0
 72 77  2  0  0  0
 72161  1  0  0  0
 73 76  2  0  0  0
 73 77  1  0  0  0
 73 85  1  0  0  0
 74 79  1  0  0  0
 74 80  2  0  0  0
 74 86  1  0  0  0
 75 96  1  0  0  0
 76 88  1  0  0  0
 77 89  1  0  0  0
 78 79  2  0  0  0
 78 81  1  0  0  0
 78 90  1  0  0  0
 79 99  1  0  0  0
 80 91  1  0  0  0
 80 98  1  0  0  0
 81 92  1  0  0  0
 81 98  2  0  0  0
 82 83  1  0  0  0
 82 85  1  0  0  0
 82162  1  0  0  0
 82163  1  0  0  0
 83 85  1  0  0  0
 83164  1  0  0  0
 83165  1  0  0  0
 84 86  1  0  0  0
 84166  1  0  0  0
 84167  1  0  0  0
 84 87  1  0  0  0
 85168  1  0  0  0
 86 87  1  0  0  0
 86169  1  0  0  0
 87 97  1  0  0  0
 87170  1  0  0  0
 88171  1  0  0  0
 88172  1  0  0  0
 88173  1  0  0  0
 89174  1  0  0  0
 89175  1  0  0  0
 89176  1  0  0  0
 90177  1  0  0  0
 90178  1  0  0  0
 90179  1  0  0  0
 91180  1  0  0  0
 91181  1  0  0  0
 91182  1  0  0  0
 92183  1  0  0  0
 92184  1  0  0  0
 92185  1  0  0  0
 93186  1  0  0  0
 93187  1  0  0  0
 93188  1  0  0  0
 93 97  1  0  0  0
 94 99  1  0  0  0
 94189  1  0  0  0
 94190  1  0  0  0
 94 96  1  0  0  0
 95 97  1  0  0  0
 95191  1  0  0  0
 95192  1  0  0  0
 96100  1  0  0  0
 96193  1  0  0  0
 97194  1  0  0  0
 98195  1  0  0  0
 99196  1  0  0  0
100197  1  0  0  0
M  CHG  1  98   1
M  ISO  4   1 100  68 101  95 101 100 100
M  END
> <chiral flag>
0

> <version>
0

> <s_m_source_file>
/data/baiqing/PycharmProjects/Reinvent-master-3.2/result/LINK_invent/BTK/process_docking_weight1_custom_sum_contain_oxygen_bond_distance_aromatic_linkinvent_7_9_3/rearranged_h_0166.sdf

> <i_m_source_file_index>
75

> <r_mmod_Potential_Energy-OPLS-2005>
76.244873046875

> <r_mmod_Stretch_Energy-OPLS-2005>
72.1950073242188

> <r_mmod_Bend_Energy-OPLS-2005>
150.156295776367

> <r_mmod_Torsional_Energy-OPLS-2005>
399.650024414062

> <r_mmod_Improper_Torsional_Energy-OPLS-2005>
11.7095413208008

> <r_mmod_Van_der_Waal_Energy-OPLS-2005>
177.293716430664

> <r_mmod_Electrostatic_Energy-OPLS-2005>
-390.825805664062

> <r_mmod_Solvation_Energy-OPLS-2005>
-367.162475585938

> <b_mmod_Minimization_Converged-OPLS-2005>
0

> <r_mmod_RMS_Derivative-OPLS-2005>
3.42830491065979

$$$$
75
                    3D
 Structure written by MMmdl.
177187  0  0  1  0            999 V2000
  -30.7237  -14.5673   20.3670 C   0  0  0  0  0  0
  -30.4238  -12.3138   19.4451 C   0  0  0  0  0  0
  -29.4903  -12.3272   18.2180 C   0  0  0  0  0  0
  -28.0011  -12.2942   18.6352 C   0  0  0  0  0  0
  -27.6340  -13.1918   19.8532 C   0  0  2  0  0  0
  -28.7078  -13.1357   20.9623 C   0  0  0  0  0  0
  -25.2524  -13.8092   20.5775 C   0  0  0  0  0  0
  -24.1771  -13.0397   20.9245 C   0  0  0  0  0  0
  -24.6324  -11.6856   20.8844 C   0  0  0  0  0  0
  -23.9014  -10.4250   21.0470 C   0  0  0  0  0  0
  -24.3579   -9.4148   21.9220 C   0  0  0  0  0  0
  -23.6259   -8.2185   22.0755 C   0  0  0  0  0  0
  -22.4241   -8.0249   21.3539 C   0  0  0  0  0  0
  -21.9881   -9.0225   20.4637 C   0  0  0  0  0  0
  -22.7216  -10.2103   20.3075 C   0  0  0  0  0  0
  -21.6817   -6.0719   22.5270 C   0  0  0  0  0  0
  -21.3985   -6.5628   23.8205 C   0  0  0  0  0  0
  -21.3659   -5.6782   24.9167 C   0  0  0  0  0  0
  -21.6059   -4.3048   24.7218 C   0  0  0  0  0  0
  -21.8823   -3.8138   23.4337 C   0  0  0  0  0  0
  -21.9177   -4.6951   22.3393 C   0  0  0  0  0  0
  -22.7803  -13.5202   21.1880 C   0  0  0  0  0  0
  -22.1649   -4.2147   21.0969 F   0  0  0  0  0  0
  -21.5632   -3.4528   25.7727 F   0  0  0  0  0  0
  -30.0079  -13.4064   20.3354 N   0  0  0  0  0  0
  -26.2916  -12.9200   20.3470 N   0  0  0  0  0  0
  -25.9252  -11.6399   20.5962 N   0  0  0  0  0  0
  -22.0453  -12.8176   22.0416 N   0  0  0  0  0  0
  -25.4325  -15.1816   20.4170 N   0  0  0  0  0  0
  -31.9529  -14.5578   20.3157 O   0  0  0  0  0  0
  -21.6594   -6.8856   21.4234 O   0  0  0  0  0  0
  -22.3502  -14.5534   20.6747 O   0  0  0  0  0  0
  -24.6129  -31.8682   23.2102 C   0  0  0  0  0  0
  -25.9025  -32.4835   23.8396 C   0  0  1  0  0  0
  -27.2402  -27.4403   20.1194 C   0  0  0  0  0  0
  -25.5894  -33.8629   24.2320 N   0  0  0  0  0  0
  -23.3995  -30.4898   21.5493 C   0  0  2  0  0  0
  -24.8510  -28.9557   20.1126 C   0  0  0  0  0  0
  -22.7399  -29.4648   22.4998 C   0  0  0  0  0  0
  -18.0270  -28.1380   22.8489 C   0  0  0  0  0  0
  -24.1495  -36.7309   23.2638 C   0  0  0  0  0  0
  -25.9248  -30.8388   21.3601 C   0  0  0  0  0  0
  -26.0056  -29.4711   20.7143 C   0  0  0  0  0  0
  -27.2006  -28.7187   20.7190 C   0  0  0  0  0  0
  -26.0776  -26.9441   19.4888 C   0  0  0  0  0  0
  -24.8821  -27.6910   19.4956 C   0  0  0  0  0  0
  -23.6087  -29.8183   20.1635 C   0  0  0  0  0  0
  -25.4112  -36.3108   24.0338 C   0  0  1  0  0  0
  -20.5862  -28.3652   23.1333 C   0  0  2  0  0  0
  -20.6771  -26.9394   22.5421 C   0  0  0  0  0  0
  -19.5751  -26.6384   21.5218 C   0  0  0  0  0  0
  -18.1922  -26.7927   22.1616 C   0  0  0  0  0  0
  -19.1520  -28.8831   23.2911 C   0  0  0  0  0  0
  -18.9458  -30.1447   23.8918 C   0  0  0  0  0  0
  -17.6460  -30.6589   24.0568 C   0  0  0  0  0  0
  -25.9040  -34.9476   23.5119 C   0  0  0  0  0  0
  -16.5350  -29.9093   23.6337 C   0  0  0  0  0  0
  -16.7261  -28.6511   23.0351 C   0  0  0  0  0  0
  -26.4459  -31.6610   25.0712 C   0  0  0  0  0  0
  -25.3734  -31.3685   26.1464 C   0  0  0  0  0  0
  -27.0286  -30.3073   24.6035 C   0  0  0  0  0  0
  -27.6039  -32.4326   25.7467 C   0  0  0  0  0  0
  -27.5576  -37.1809   24.8465 C   0  0  0  0  0  0
  -21.4129  -29.3022   22.3741 N   0  0  0  0  0  0
  -26.4295  -37.3798   23.9405 N   0  0  0  0  0  0
  -24.6635  -31.0796   22.0993 N   0  0  0  0  0  0
  -23.4179  -28.8204   23.3044 O   0  0  0  0  0  0
  -28.4089  -26.7098   20.1478 O   0  0  0  0  0  0
  -26.5596  -34.8918   22.4677 O   0  0  0  0  0  0
  -23.5327  -32.1423   23.7503 O   0  0  0  0  0  0
  -27.5546  -24.7024   21.4645 C   0  0  0  0  0  0
  -28.4211  -25.3836   20.5504 C   0  0  0  0  0  0
  -27.8986  -23.3714   21.4443 C   0  0  0  0  0  0
  -29.3558  -24.4742   20.1342 C   0  0  0  0  0  0
  -30.2359  -16.6610   17.8521 C   0  0  0  0  0  0
  -31.3516  -17.1925   18.7354 C   0  0  0  0  0  0
  -29.2978  -21.3817   18.9926 C   0  0  0  0  0  0
  -29.3444  -15.8820   18.8226 C   0  0  0  0  0  0
  -30.0851  -20.0761   18.9327 C   0  0  0  0  0  0
  -29.7937  -21.9869   20.2884 C   0  0  2  0  0  0
  -30.7854  -17.0609   20.1627 C   0  0  1  0  0  0
  -29.8603  -20.7339   21.2083 C   0  0  2  0  0  0
  -26.4309  -25.2986   22.2827 C   0  0  0  0  0  0
  -27.1867  -22.2354   22.1170 C   0  0  0  0  0  0
  -30.5311  -24.7104   19.2300 C   0  0  0  0  0  0
  -30.7154  -20.9532   22.4670 C   0  0  0  0  0  0
  -29.8616  -18.2516   20.6358 C   0  0  0  0  0  0
  -29.0460  -23.2154   20.6592 N   0  0  0  0  0  0
  -30.0653  -15.7495   20.1090 N   0  0  0  0  0  0
  -30.3706  -19.6334   20.3308 N   0  3  1  0  0  0
  -31.4608  -12.4145   19.1190 H   0  0  0  0  0  0
  -30.3622  -11.3590   19.9698 H   0  0  0  0  0  0
  -29.7022  -11.4485   17.6076 H   0  0  0  0  0  0
  -29.7147  -13.1639   17.5614 H   0  0  0  0  0  0
  -27.7763  -11.2566   18.8849 H   0  0  0  0  0  0
  -27.3651  -12.5366   17.7828 H   0  0  0  0  0  0
  -27.5807  -14.2068   19.4903 H   0  0  0  0  0  0
  -28.7235  -12.1530   21.4364 H   0  0  0  0  0  0
  -28.4968  -13.8617   21.7498 H   0  0  0  0  0  0
  -25.2739   -9.5591   22.4785 H   0  0  0  0  0  0
  -23.9967   -7.4538   22.7445 H   0  0  0  0  0  0
  -21.0821   -8.8737   19.8920 H   0  0  0  0  0  0
  -22.3711  -10.9634   19.6159 H   0  0  0  0  0  0
  -21.1974   -7.6131   23.9704 H   0  0  0  0  0  0
  -21.1477   -6.0513   25.9069 H   0  0  0  0  0  0
  -22.0611   -2.7600   23.2829 H   0  0  0  0  0  0
  -22.4049  -11.9780   22.4724 H   0  0  0  0  0  0
  -21.1076  -13.1196   22.2653 H   0  0  0  0  0  0
  -24.6810  -15.8534   20.5272 H   0  0  0  0  0  0
  -26.3049  -15.6094   20.1363 H   0  0  0  0  0  0
  -26.7088  -32.5552   23.1155 H   0  0  0  0  0  0
  -25.0091  -33.9815   25.0496 H   0  0  0  0  0  0
  -22.6867  -31.3055   21.4095 H   0  0  0  0  0  0
  -23.3764  -35.9640   23.3321 H   0  0  0  0  0  0
  -24.3588  -36.8905   22.2050 H   0  0  0  0  0  0
  -23.7239  -37.6515   23.6641 H   0  0  0  0  0  0
  -26.0264  -31.6016   20.5866 H   0  0  0  0  0  0
  -26.8159  -30.9001   21.9732 H   0  0  0  0  0  0
  -28.0891  -29.1079   21.1949 H   0  0  0  0  0  0
  -26.0937  -25.9713   19.0164 H   0  0  0  0  0  0
  -23.9952  -27.2885   19.0271 H   0  0  0  0  0  0
  -23.7084  -30.5934   19.4022 H   0  0  0  0  0  0
  -22.7341  -29.2344   19.8705 H   0  0  0  0  0  0
  -25.1294  -36.1973   25.0835 H   0  0  0  0  0  0
  -20.9949  -28.3212   24.1458 H   0  0  0  0  0  0
  -20.5699  -26.2252   23.3603 H   0  0  0  0  0  0
  -21.6640  -26.7461   22.1198 H   0  0  0  0  0  0
  -19.6920  -25.6303   21.1237 H   0  0  0  0  0  0
  -19.6710  -27.3211   20.6766 H   0  0  0  0  0  0
  -17.4205  -26.6706   21.4007 H   0  0  0  0  0  0
  -18.0313  -26.0056   22.8996 H   0  0  0  0  0  0
  -19.7940  -30.7258   24.2291 H   0  0  0  0  0  0
  -17.5020  -31.6275   24.5156 H   0  0  0  0  0  0
  -15.5357  -30.3000   23.7653 H   0  0  0  0  0  0
  -15.8662  -28.0838   22.7055 H   0  0  0  0  0  0
  -24.5939  -30.6995   25.7793 H   0  0  0  0  0  0
  -24.8896  -32.2830   26.4909 H   0  0  0  0  0  0
  -25.8113  -30.8864   27.0214 H   0  0  0  0  0  0
  -26.2808  -29.6847   24.1109 H   0  0  0  0  0  0
  -27.4119  -29.7285   25.4444 H   0  0  0  0  0  0
  -27.8604  -30.4436   23.9122 H   0  0  0  0  0  0
  -27.2669  -33.3629   26.2044 H   0  0  0  0  0  0
  -28.3841  -32.6879   25.0288 H   0  0  0  0  0  0
  -28.0700  -31.8449   26.5381 H   0  0  0  0  0  0
  -28.2603  -38.0104   24.7522 H   0  0  0  0  0  0
  -28.1074  -36.2635   24.6291 H   0  0  0  0  0  0
  -27.2294  -37.1446   25.8873 H   0  0  0  0  0  0
  -20.9288  -29.8734   21.6959 H   0  0  0  0  0  0
  -26.0189  -38.2877   24.1420 H   0  0  0  0  0  0
  -30.6369  -16.0128   17.0716 H   0  0  0  0  0  0
  -29.6735  -17.4443   17.3464 H   0  0  0  0  0  0
  -31.7289  -18.1700   18.4515 H   0  0  0  0  0  0
  -32.2106  -16.5279   18.6330 H   0  0  0  0  0  0
  -28.2263  -21.1835   19.0545 H   0  0  0  0  0  0
  -29.4715  -22.0110   18.1196 H   0  0  0  0  0  0
  -29.0990  -14.9537   18.3343 H   0  0  0  0  0  0
  -28.3945  -16.3964   18.9774 H   0  0  0  0  0  0
  -31.0293  -20.2601   18.4183 H   0  0  0  0  0  0
  -29.5257  -19.3501   18.3491 H   0  0  0  0  0  0
  -30.8319  -22.2848   20.1352 H   0  0  0  0  0  0
  -31.6238  -17.0137   20.8620 H   0  0  0  0  0  0
  -28.8621  -20.4265   21.5024 H   0  0  0  0  0  0
  -26.6258  -26.3455   22.5127 H   0  0  0  0  0  0
  -26.3183  -24.7782   23.2340 H   0  0  0  0  0  0
  -25.4865  -25.2317   21.7417 H   0  0  0  0  0  0
  -26.2510  -22.5604   22.5704 H   0  0  0  0  0  0
  -27.7859  -21.7973   22.9153 H   0  0  0  0  0  0
  -26.9156  -21.4615   21.3990 H   0  0  0  0  0  0
  -30.6210  -25.7649   18.9673 H   0  0  0  0  0  0
  -30.4383  -24.1529   18.2994 H   0  0  0  0  0  0
  -31.4674  -24.4229   19.7083 H   0  0  0  0  0  0
  -31.7400  -21.2322   22.2185 H   0  0  0  0  0  0
  -30.7485  -20.0627   23.0943 H   0  0  0  0  0  0
  -30.2982  -21.7582   23.0725 H   0  0  0  0  0  0
  -29.7428  -18.1561   21.7164 H   0  0  0  0  0  0
  -28.8503  -18.1679   20.2396 H   0  0  0  0  0  0
  -31.3747  -19.6166   20.4376 H   0  0  0  0  0  0
  1 25  1  0  0  0
  1 30  2  0  0  0
  1 89  1  0  0  0
  2  3  1  0  0  0
  2 25  1  0  0  0
  2 91  1  0  0  0
  2 92  1  0  0  0
  3  4  1  0  0  0
  3 93  1  0  0  0
  3 94  1  0  0  0
  4  5  1  0  0  0
  4 95  1  0  0  0
  4 96  1  0  0  0
  5  6  1  0  0  0
  5 26  1  0  0  0
  5 97  1  0  0  0
  6 25  1  0  0  0
  6 98  1  0  0  0
  6 99  1  0  0  0
  7  8  2  0  0  0
  7 26  1  0  0  0
  7 29  1  0  0  0
  8  9  1  0  0  0
  8 22  1  0  0  0
  9 10  1  0  0  0
  9 27  2  0  0  0
 10 11  2  0  0  0
 10 15  1  0  0  0
 11 12  1  0  0  0
 11100  1  0  0  0
 12 13  2  0  0  0
 12101  1  0  0  0
 13 14  1  0  0  0
 13 31  1  0  0  0
 14 15  2  0  0  0
 14102  1  0  0  0
 15103  1  0  0  0
 16 17  2  0  0  0
 16 21  1  0  0  0
 16 31  1  0  0  0
 17 18  1  0  0  0
 17104  1  0  0  0
 18 19  2  0  0  0
 18105  1  0  0  0
 19 20  1  0  0  0
 19 24  1  0  0  0
 20 21  2  0  0  0
 20106  1  0  0  0
 21 23  1  0  0  0
 22 28  1  0  0  0
 22 32  2  0  0  0
 26 27  1  0  0  0
 28107  1  0  0  0
 28108  1  0  0  0
 29109  1  0  0  0
 29110  1  0  0  0
 33 34  1  0  0  0
 33 66  1  0  0  0
 33 70  2  0  0  0
 34 36  1  0  0  0
 34 59  1  0  0  0
 34111  1  0  0  0
 35 44  2  0  0  0
 35 45  1  0  0  0
 35 68  1  0  0  0
 36 56  1  0  0  0
 36112  1  0  0  0
 37 39  1  0  0  0
 37 47  1  0  0  0
 37 66  1  0  0  0
 37113  1  0  0  0
 38 43  2  0  0  0
 38 46  1  0  0  0
 38 47  1  0  0  0
 39 64  1  0  0  0
 39 67  2  0  0  0
 40 52  1  0  0  0
 40 53  2  0  0  0
 40 58  1  0  0  0
 41114  1  0  0  0
 41115  1  0  0  0
 41116  1  0  0  0
 41 48  1  0  0  0
 42 43  1  0  0  0
 42 66  1  0  0  0
 42117  1  0  0  0
 42118  1  0  0  0
 43 44  1  0  0  0
 44119  1  0  0  0
 45 46  2  0  0  0
 45120  1  0  0  0
 46121  1  0  0  0
 47122  1  0  0  0
 47123  1  0  0  0
 48 56  1  0  0  0
 48 65  1  0  0  0
 48124  1  0  0  0
 49 50  1  0  0  0
 49 53  1  0  0  0
 49 64  1  0  0  0
 49125  1  0  0  0
 50 51  1  0  0  0
 50126  1  0  0  0
 50127  1  0  0  0
 51 52  1  0  0  0
 51128  1  0  0  0
 51129  1  0  0  0
 52130  1  0  0  0
 52131  1  0  0  0
 53 54  1  0  0  0
 54 55  2  0  0  0
 54132  1  0  0  0
 55 57  1  0  0  0
 55133  1  0  0  0
 56 69  2  0  0  0
 57 58  2  0  0  0
 57134  1  0  0  0
 58135  1  0  0  0
 59 60  1  0  0  0
 59 61  1  0  0  0
 59 62  1  0  0  0
 60136  1  0  0  0
 60137  1  0  0  0
 60138  1  0  0  0
 61139  1  0  0  0
 61140  1  0  0  0
 61141  1  0  0  0
 62142  1  0  0  0
 62143  1  0  0  0
 62144  1  0  0  0
 63 65  1  0  0  0
 63145  1  0  0  0
 63146  1  0  0  0
 63147  1  0  0  0
 64148  1  0  0  0
 65149  1  0  0  0
 68 72  1  0  0  0
 71 72  1  0  0  0
 71 73  2  0  0  0
 71 83  1  0  0  0
 72 74  2  0  0  0
 73 84  1  0  0  0
 73 88  1  0  0  0
 74 85  1  0  0  0
 74 88  1  0  0  0
 75 76  1  0  0  0
 75 78  1  0  0  0
 75150  1  0  0  0
 75151  1  0  0  0
 76 81  1  0  0  0
 76152  1  0  0  0
 76153  1  0  0  0
 77 79  1  0  0  0
 77 80  1  0  0  0
 77154  1  0  0  0
 77155  1  0  0  0
 78 89  1  0  0  0
 78156  1  0  0  0
 78157  1  0  0  0
 79 90  1  0  0  0
 79158  1  0  0  0
 79159  1  0  0  0
 80 82  1  0  0  0
 80 88  1  0  0  0
 80160  1  0  0  0
 81 87  1  0  0  0
 81 89  1  0  0  0
 81161  1  0  0  0
 82 86  1  0  0  0
 82 90  1  0  0  0
 82162  1  0  0  0
 83163  1  0  0  0
 83164  1  0  0  0
 83165  1  0  0  0
 84166  1  0  0  0
 84167  1  0  0  0
 84168  1  0  0  0
 85169  1  0  0  0
 85170  1  0  0  0
 85171  1  0  0  0
 86172  1  0  0  0
 86173  1  0  0  0
 86174  1  0  0  0
 87175  1  0  0  0
 87176  1  0  0  0
 87 90  1  0  0  0
 90177  1  0  0  0
M  CHG  1  90   1
M  ISO  4   1 100  68 101  72 101  89 100
M  END
> <chiral flag>
0

> <version>
0

> <s_m_source_file>
/data/baiqing/PycharmProjects/Reinvent-master-3.2/result/LINK_invent/BTK/process_docking_weight1_custom_sum_contain_oxygen_bond_distance_aromatic_linkinvent_7_9_3/rearranged_h_0166.sdf

> <i_m_source_file_index>
76

> <r_mmod_Potential_Energy-OPLS-2005>
263.592498779297

> <r_mmod_Stretch_Energy-OPLS-2005>
51.2615585327148

> <r_mmod_Bend_Energy-OPLS-2005>
200.687622070312

> <r_mmod_Torsional_Energy-OPLS-2005>
454.312652587891

> <r_mmod_Improper_Torsional_Energy-OPLS-2005>
14.2978610992432

> <r_mmod_Van_der_Waal_Energy-OPLS-2005>
140.678863525391

> <r_mmod_Electrostatic_Energy-OPLS-2005>
-206.202194213867

> <r_mmod_Solvation_Energy-OPLS-2005>
-439.724884033203

> <b_mmod_Minimization_Converged-OPLS-2005>
0

> <r_mmod_RMS_Derivative-OPLS-2005>
2.16534304618835

$$$$
76
                    3D
 Structure written by MMmdl.
175186  0  0  1  0            999 V2000
  -30.7104  -14.4217   20.5548 C   0  0  0  0  0  0
  -30.4254  -12.2755   19.3899 C   0  0  0  0  0  0
  -29.4823  -12.4890   18.1845 C   0  0  0  0  0  0
  -28.0066  -12.3416   18.6092 C   0  0  0  0  0  0
  -27.6600  -13.1784   19.8659 C   0  0  2  0  0  0
  -28.7098  -12.9488   20.9796 C   0  0  0  0  0  0
  -25.2599  -13.8071   20.5654 C   0  0  0  0  0  0
  -24.1824  -13.0389   20.9158 C   0  0  0  0  0  0
  -24.6355  -11.6859   20.8734 C   0  0  0  0  0  0
  -23.8999  -10.4263   21.0412 C   0  0  0  0  0  0
  -24.3564   -9.4190   21.9176 C   0  0  0  0  0  0
  -23.6253   -8.2219   22.0757 C   0  0  0  0  0  0
  -22.4243   -8.0237   21.3534 C   0  0  0  0  0  0
  -21.9865   -9.0207   20.4647 C   0  0  0  0  0  0
  -22.7176  -10.2096   20.3052 C   0  0  0  0  0  0
  -21.6837   -6.0706   22.5286 C   0  0  0  0  0  0
  -21.4007   -6.5631   23.8216 C   0  0  0  0  0  0
  -21.3648   -5.6787   24.9179 C   0  0  0  0  0  0
  -21.6046   -4.3050   24.7234 C   0  0  0  0  0  0
  -21.8826   -3.8127   23.4365 C   0  0  0  0  0  0
  -21.9208   -4.6941   22.3420 C   0  0  0  0  0  0
  -22.7863  -13.5226   21.1850 C   0  0  0  0  0  0
  -22.1675   -4.2136   21.0985 F   0  0  0  0  0  0
  -21.5644   -3.4531   25.7744 F   0  0  0  0  0  0
  -30.0416  -13.2474   20.4206 N   0  0  0  0  0  0
  -26.3015  -12.9178   20.3339 N   0  0  0  0  0  0
  -25.9269  -11.6380   20.5765 N   0  0  0  0  0  0
  -22.0521  -12.8187   22.0402 N   0  0  0  0  0  0
  -25.4295  -15.1783   20.4073 N   0  0  0  0  0  0
  -31.8635  -14.6043   20.1514 O   0  0  0  0  0  0
  -21.6603   -6.8840   21.4243 O   0  0  0  0  0  0
  -22.3549  -14.5553   20.6759 O   0  0  0  0  0  0
  -24.6079  -31.8721   23.2105 C   0  0  0  0  0  0
  -25.8995  -32.4829   23.8402 C   0  0  1  0  0  0
  -27.2388  -27.4720   20.0976 C   0  0  0  0  0  0
  -25.5864  -33.8623   24.2354 N   0  0  0  0  0  0
  -23.3948  -30.4938   21.5514 C   0  0  2  0  0  0
  -24.8446  -28.9609   20.1156 C   0  0  0  0  0  0
  -22.7393  -29.4689   22.5027 C   0  0  0  0  0  0
  -18.0263  -28.1385   22.8521 C   0  0  0  0  0  0
  -24.1479  -36.7323   23.2640 C   0  0  0  0  0  0
  -25.9148  -30.8504   21.3534 C   0  0  0  0  0  0
  -25.9982  -29.4818   20.7150 C   0  0  0  0  0  0
  -27.1986  -28.7413   20.7157 C   0  0  0  0  0  0
  -26.0799  -26.9690   19.4720 C   0  0  0  0  0  0
  -24.8773  -27.7019   19.4927 C   0  0  0  0  0  0
  -23.5991  -29.8183   20.1686 C   0  0  0  0  0  0
  -25.4084  -36.3117   24.0344 C   0  0  1  0  0  0
  -20.5845  -28.3646   23.1356 C   0  0  2  0  0  0
  -20.6741  -26.9399   22.5414 C   0  0  0  0  0  0
  -19.5726  -26.6403   21.5220 C   0  0  0  0  0  0
  -18.1884  -26.7940   22.1620 C   0  0  0  0  0  0
  -19.1523  -28.8822   23.2953 C   0  0  0  0  0  0
  -18.9460  -30.1448   23.8957 C   0  0  0  0  0  0
  -17.6468  -30.6596   24.0601 C   0  0  0  0  0  0
  -25.8997  -34.9478   23.5150 C   0  0  0  0  0  0
  -16.5351  -29.9111   23.6363 C   0  0  0  0  0  0
  -16.7266  -28.6546   23.0352 C   0  0  0  0  0  0
  -26.4456  -31.6561   25.0692 C   0  0  0  0  0  0
  -25.3750  -31.3565   26.1450 C   0  0  0  0  0  0
  -27.0281  -30.3038   24.5942 C   0  0  0  0  0  0
  -27.6058  -32.4247   25.7445 C   0  0  0  0  0  0
  -27.5574  -37.1812   24.8480 C   0  0  0  0  0  0
  -21.4115  -29.3044   22.3786 N   0  0  0  0  0  0
  -26.4294  -37.3791   23.9406 N   0  0  0  0  0  0
  -24.6578  -31.0862   22.0979 N   0  0  0  0  0  0
  -23.4193  -28.8195   23.3016 O   0  0  0  0  0  0
  -28.3671  -26.6873   20.0780 O   0  0  0  0  0  0
  -26.5599  -34.8939   22.4731 O   0  0  0  0  0  0
  -23.5303  -32.1478   23.7532 O   0  0  0  0  0  0
  -29.4306  -19.7069   21.2413 C   0  0  0  0  0  0
  -28.4752  -20.5580   19.4081 C   0  0  0  0  0  0
  -28.6970  -20.8159   20.7327 C   0  0  0  0  0  0
  -29.5617  -18.7780   20.2459 C   0  0  0  0  0  0
  -30.0550  -18.2779   17.0603 C   0  0  0  0  0  0
  -29.2385  -19.4649   16.6053 C   0  0  0  0  0  0
  -26.6963  -22.1876   21.5253 C   0  0  0  0  0  0
  -30.4964  -16.6889   21.5951 C   0  0  0  0  0  0
  -29.1618  -16.2396   20.0774 C   0  0  0  0  0  0
  -26.5721  -23.6208   22.0368 C   0  0  0  0  0  0
  -28.7354  -23.3650   21.0472 C   0  0  0  0  0  0
  -28.2073  -22.0054   21.5206 C   0  0  2  0  0  0
  -30.1269  -17.3907   20.2868 C   0  0  0  0  0  0
  -28.7980  -18.6552   17.8075 C   0  0  0  0  0  0
  -27.2002  -26.2647   23.1071 C   0  0  0  0  0  0
  -29.0448  -26.4801   21.3240 C   0  0  0  0  0  0
  -28.2621  -25.5167   22.2597 C   0  0  2  0  0  0
  -28.9885  -19.3141   19.0957 N   0  0  0  0  0  0
  -29.9664  -15.4429   21.0165 N   0  0  0  0  0  0
  -27.7242  -24.3675   21.4681 N   0  3  2  0  0  0
  -31.4672  -12.3778   19.0812 H   0  0  0  0  0  0
  -30.3250  -11.2604   19.7772 H   0  0  0  0  0  0
  -29.7091  -11.7729   17.3924 H   0  0  0  0  0  0
  -29.6429  -13.4800   17.7559 H   0  0  0  0  0  0
  -27.8254  -11.2875   18.8117 H   0  0  0  0  0  0
  -27.3459  -12.6101   17.7847 H   0  0  0  0  0  0
  -27.6922  -14.2149   19.5523 H   0  0  0  0  0  0
  -28.6797  -11.9104   21.3162 H   0  0  0  0  0  0
  -28.4838  -13.5468   21.8621 H   0  0  0  0  0  0
  -25.2723   -9.5678   22.4714 H   0  0  0  0  0  0
  -23.9989   -7.4602   22.7461 H   0  0  0  0  0  0
  -21.0808   -8.8704   19.8933 H   0  0  0  0  0  0
  -22.3625  -10.9621   19.6150 H   0  0  0  0  0  0
  -21.1971   -7.6136   23.9715 H   0  0  0  0  0  0
  -21.1470   -6.0521   25.9091 H   0  0  0  0  0  0
  -22.0614   -2.7589   23.2870 H   0  0  0  0  0  0
  -22.4139  -11.9822   22.4730 H   0  0  0  0  0  0
  -21.1159  -13.1224   22.2649 H   0  0  0  0  0  0
  -24.6611  -15.8317   20.5236 H   0  0  0  0  0  0
  -26.2901  -15.6212   20.1175 H   0  0  0  0  0  0
  -26.7056  -32.5575   23.1163 H   0  0  0  0  0  0
  -24.9997  -33.9775   25.0494 H   0  0  0  0  0  0
  -22.6799  -31.3065   21.4121 H   0  0  0  0  0  0
  -23.3745  -35.9664   23.3317 H   0  0  0  0  0  0
  -24.3597  -36.8936   22.2062 H   0  0  0  0  0  0
  -23.7235  -37.6525   23.6663 H   0  0  0  0  0  0
  -26.0075  -31.6047   20.5724 H   0  0  0  0  0  0
  -26.8088  -30.9230   21.9583 H   0  0  0  0  0  0
  -28.0810  -29.1545   21.1815 H   0  0  0  0  0  0
  -26.1006  -26.0039   18.9835 H   0  0  0  0  0  0
  -23.9918  -27.2985   19.0218 H   0  0  0  0  0  0
  -23.6950  -30.5909   19.4064 H   0  0  0  0  0  0
  -22.7276  -29.2278   19.8798 H   0  0  0  0  0  0
  -25.1260  -36.1995   25.0843 H   0  0  0  0  0  0
  -20.9934  -28.3169   24.1478 H   0  0  0  0  0  0
  -20.5660  -26.2254   23.3565 H   0  0  0  0  0  0
  -21.6608  -26.7445   22.1206 H   0  0  0  0  0  0
  -19.6933  -25.6346   21.1193 H   0  0  0  0  0  0
  -19.6625  -27.3244   20.6784 H   0  0  0  0  0  0
  -17.4181  -26.6743   21.4002 H   0  0  0  0  0  0
  -18.0214  -26.0057   22.8991 H   0  0  0  0  0  0
  -19.7930  -30.7284   24.2337 H   0  0  0  0  0  0
  -17.5014  -31.6282   24.5188 H   0  0  0  0  0  0
  -15.5351  -30.3000   23.7685 H   0  0  0  0  0  0
  -15.8678  -28.0890   22.6996 H   0  0  0  0  0  0
  -24.5954  -30.6877   25.7755 H   0  0  0  0  0  0
  -24.8878  -32.2658   26.4988 H   0  0  0  0  0  0
  -25.8134  -30.8679   27.0161 H   0  0  0  0  0  0
  -26.2765  -29.6764   24.1112 H   0  0  0  0  0  0
  -27.4262  -29.7275   25.4304 H   0  0  0  0  0  0
  -27.8510  -30.4433   23.8917 H   0  0  0  0  0  0
  -27.2727  -33.3559   26.2046 H   0  0  0  0  0  0
  -28.3851  -32.6765   25.0233 H   0  0  0  0  0  0
  -28.0736  -31.8330   26.5334 H   0  0  0  0  0  0
  -28.2595  -38.0110   24.7530 H   0  0  0  0  0  0
  -28.1064  -36.2643   24.6293 H   0  0  0  0  0  0
  -27.2307  -37.1433   25.8892 H   0  0  0  0  0  0
  -20.9257  -29.8814   21.7055 H   0  0  0  0  0  0
  -26.0199  -38.2886   24.1387 H   0  0  0  0  0  0
  -29.7702  -19.5713   22.2611 H   0  0  0  0  0  0
  -27.9481  -21.1350   18.6573 H   0  0  0  0  0  0
  -31.0197  -18.4823   17.5237 H   0  0  0  0  0  0
  -30.0100  -17.3750   16.4535 H   0  0  0  0  0  0
  -28.6609  -19.3547   15.6887 H   0  0  0  0  0  0
  -29.6748  -20.4502   16.7587 H   0  0  0  0  0  0
  -26.2864  -22.1074   20.5176 H   0  0  0  0  0  0
  -26.1856  -21.4662   22.1627 H   0  0  0  0  0  0
  -29.9250  -17.0380   22.4567 H   0  0  0  0  0  0
  -31.5660  -16.6911   21.8102 H   0  0  0  0  0  0
  -29.1474  -15.8957   19.0409 H   0  0  0  0  0  0
  -28.1533  -16.4534   20.4341 H   0  0  0  0  0  0
  -26.6354  -23.5886   23.1245 H   0  0  0  0  0  0
  -25.6190  -24.0772   21.7679 H   0  0  0  0  0  0
  -28.8159  -23.4022   19.9608 H   0  0  0  0  0  0
  -29.7319  -23.5455   21.4540 H   0  0  0  0  0  0
  -28.5248  -21.8648   22.5567 H   0  0  0  0  0  0
  -30.9629  -17.3106   19.5900 H   0  0  0  0  0  0
  -27.8887  -18.0608   17.7515 H   0  0  0  0  0  0
  -27.6644  -27.0846   23.6557 H   0  0  0  0  0  0
  -26.7441  -25.6308   23.8680 H   0  0  0  0  0  0
  -26.3947  -26.6872   22.5085 H   0  0  0  0  0  0
  -29.2860  -27.4131   21.8334 H   0  0  0  0  0  0
  -30.0088  -26.0353   21.0747 H   0  0  0  0  0  0
  -28.9705  -25.1093   22.9819 H   0  0  0  0  0  0
  -27.3901  -24.7764   20.6058 H   0  0  0  0  0  0
  1 25  1  0  0  0
  1 30  2  0  0  0
  1 89  1  0  0  0
  2  3  1  0  0  0
  2 25  1  0  0  0
  2 91  1  0  0  0
  2 92  1  0  0  0
  3  4  1  0  0  0
  3 93  1  0  0  0
  3 94  1  0  0  0
  4  5  1  0  0  0
  4 95  1  0  0  0
  4 96  1  0  0  0
  5  6  1  0  0  0
  5 26  1  0  0  0
  5 97  1  0  0  0
  6 25  1  0  0  0
  6 98  1  0  0  0
  6 99  1  0  0  0
  7  8  2  0  0  0
  7 26  1  0  0  0
  7 29  1  0  0  0
  8  9  1  0  0  0
  8 22  1  0  0  0
  9 10  1  0  0  0
  9 27  2  0  0  0
 10 11  2  0  0  0
 10 15  1  0  0  0
 11 12  1  0  0  0
 11100  1  0  0  0
 12 13  2  0  0  0
 12101  1  0  0  0
 13 14  1  0  0  0
 13 31  1  0  0  0
 14 15  2  0  0  0
 14102  1  0  0  0
 15103  1  0  0  0
 16 17  2  0  0  0
 16 21  1  0  0  0
 16 31  1  0  0  0
 17 18  1  0  0  0
 17104  1  0  0  0
 18 19  2  0  0  0
 18105  1  0  0  0
 19 20  1  0  0  0
 19 24  1  0  0  0
 20 21  2  0  0  0
 20106  1  0  0  0
 21 23  1  0  0  0
 22 28  1  0  0  0
 22 32  2  0  0  0
 26 27  1  0  0  0
 28107  1  0  0  0
 28108  1  0  0  0
 29109  1  0  0  0
 29110  1  0  0  0
 33 34  1  0  0  0
 33 66  1  0  0  0
 33 70  2  0  0  0
 34 36  1  0  0  0
 34 59  1  0  0  0
 34111  1  0  0  0
 35 44  2  0  0  0
 35 45  1  0  0  0
 35 68  1  0  0  0
 36 56  1  0  0  0
 36112  1  0  0  0
 37 39  1  0  0  0
 37 47  1  0  0  0
 37 66  1  0  0  0
 37113  1  0  0  0
 38 43  2  0  0  0
 38 46  1  0  0  0
 38 47  1  0  0  0
 39 64  1  0  0  0
 39 67  2  0  0  0
 40 52  1  0  0  0
 40 53  2  0  0  0
 40 58  1  0  0  0
 41114  1  0  0  0
 41115  1  0  0  0
 41116  1  0  0  0
 41 48  1  0  0  0
 42 43  1  0  0  0
 42 66  1  0  0  0
 42117  1  0  0  0
 42118  1  0  0  0
 43 44  1  0  0  0
 44119  1  0  0  0
 45 46  2  0  0  0
 45120  1  0  0  0
 46121  1  0  0  0
 47122  1  0  0  0
 47123  1  0  0  0
 48 56  1  0  0  0
 48 65  1  0  0  0
 48124  1  0  0  0
 49 50  1  0  0  0
 49 53  1  0  0  0
 49 64  1  0  0  0
 49125  1  0  0  0
 50 51  1  0  0  0
 50126  1  0  0  0
 50127  1  0  0  0
 51 52  1  0  0  0
 51128  1  0  0  0
 51129  1  0  0  0
 52130  1  0  0  0
 52131  1  0  0  0
 53 54  1  0  0  0
 54 55  2  0  0  0
 54132  1  0  0  0
 55 57  1  0  0  0
 55133  1  0  0  0
 56 69  2  0  0  0
 57 58  2  0  0  0
 57134  1  0  0  0
 58135  1  0  0  0
 59 60  1  0  0  0
 59 61  1  0  0  0
 59 62  1  0  0  0
 60136  1  0  0  0
 60137  1  0  0  0
 60138  1  0  0  0
 61139  1  0  0  0
 61140  1  0  0  0
 61141  1  0  0  0
 62142  1  0  0  0
 62143  1  0  0  0
 62144  1  0  0  0
 63 65  1  0  0  0
 63145  1  0  0  0
 63146  1  0  0  0
 63147  1  0  0  0
 64148  1  0  0  0
 65149  1  0  0  0
 68 86  1  0  0  0
 71 73  1  0  0  0
 71 74  2  0  0  0
 71150  1  0  0  0
 72 73  2  0  0  0
 72 88  1  0  0  0
 72151  1  0  0  0
 73 82  1  0  0  0
 74 88  1  0  0  0
 74 83  1  0  0  0
 75 76  1  0  0  0
 75 84  1  0  0  0
 75152  1  0  0  0
 75153  1  0  0  0
 76 84  1  0  0  0
 76154  1  0  0  0
 76155  1  0  0  0
 77 80  1  0  0  0
 77 82  1  0  0  0
 77156  1  0  0  0
 77157  1  0  0  0
 78 83  1  0  0  0
 78 89  1  0  0  0
 78158  1  0  0  0
 78159  1  0  0  0
 79 83  1  0  0  0
 79 89  1  0  0  0
 79160  1  0  0  0
 79161  1  0  0  0
 80162  1  0  0  0
 80163  1  0  0  0
 80 90  1  0  0  0
 81 82  1  0  0  0
 81 90  1  0  0  0
 81164  1  0  0  0
 81165  1  0  0  0
 82166  1  0  0  0
 83167  1  0  0  0
 84 88  1  0  0  0
 84168  1  0  0  0
 85169  1  0  0  0
 85170  1  0  0  0
 85171  1  0  0  0
 85 87  1  0  0  0
 86 87  1  0  0  0
 86172  1  0  0  0
 86173  1  0  0  0
 87 90  1  0  0  0
 87174  1  0  0  0
 90175  1  0  0  0
M  CHG  1  90   1
M  ISO  4   1 100  68 101  86 101  89 100
M  END
> <chiral flag>
0

> <version>
0

> <s_m_source_file>
/data/baiqing/PycharmProjects/Reinvent-master-3.2/result/LINK_invent/BTK/process_docking_weight1_custom_sum_contain_oxygen_bond_distance_aromatic_linkinvent_7_9_3/rearranged_h_0166.sdf

> <i_m_source_file_index>
77

> <r_mmod_Potential_Energy-OPLS-2005>
93.0841674804688

> <r_mmod_Stretch_Energy-OPLS-2005>
34.7411041259766

> <r_mmod_Bend_Energy-OPLS-2005>
142.362991333008

> <r_mmod_Torsional_Energy-OPLS-2005>
413.284576416016

> <r_mmod_Improper_Torsional_Energy-OPLS-2005>
11.4885349273682

> <r_mmod_Van_der_Waal_Energy-OPLS-2005>
119.038108825684

> <r_mmod_Electrostatic_Energy-OPLS-2005>
-246.329818725586

> <r_mmod_Solvation_Energy-OPLS-2005>
-392.793701171875

> <b_mmod_Minimization_Converged-OPLS-2005>
0

> <r_mmod_RMS_Derivative-OPLS-2005>
4.04508829116821

$$$$
77
                    3D
 Structure written by MMmdl.
155164  0  0  1  0            999 V2000
  -30.6217  -14.7911   20.4540 C   0  0  0  0  0  0
  -30.4246  -12.4880   19.4789 C   0  0  0  0  0  0
  -29.5066  -12.5118   18.2381 C   0  0  0  0  0  0
  -28.0345  -12.3319   18.6543 C   0  0  0  0  0  0
  -27.6358  -13.2394   19.8494 C   0  0  2  0  0  0
  -28.6827  -13.1948   20.9833 C   0  0  0  0  0  0
  -25.2477  -13.8213   20.5702 C   0  0  0  0  0  0
  -24.1785  -13.0446   20.9223 C   0  0  0  0  0  0
  -24.6390  -11.6928   20.8761 C   0  0  0  0  0  0
  -23.9073  -10.4298   21.0412 C   0  0  0  0  0  0
  -24.3623   -9.4210   21.9188 C   0  0  0  0  0  0
  -23.6297   -8.2245   22.0755 C   0  0  0  0  0  0
  -22.4278   -8.0284   21.3544 C   0  0  0  0  0  0
  -21.9917   -9.0259   20.4646 C   0  0  0  0  0  0
  -22.7247  -10.2138   20.3058 C   0  0  0  0  0  0
  -21.6854   -6.0737   22.5279 C   0  0  0  0  0  0
  -21.4015   -6.5641   23.8212 C   0  0  0  0  0  0
  -21.3659   -5.6793   24.9174 C   0  0  0  0  0  0
  -21.6043   -4.3056   24.7224 C   0  0  0  0  0  0
  -21.8819   -3.8148   23.4346 C   0  0  0  0  0  0
  -21.9194   -4.6965   22.3402 C   0  0  0  0  0  0
  -22.7805  -13.5219   21.1876 C   0  0  0  0  0  0
  -22.1662   -4.2151   21.0979 F   0  0  0  0  0  0
  -21.5629   -3.4539   25.7737 F   0  0  0  0  0  0
  -29.9683  -13.5725   20.3867 N   0  0  0  0  0  0
  -26.2909  -12.9435   20.3295 N   0  0  0  0  0  0
  -25.9324  -11.6570   20.5773 N   0  0  0  0  0  0
  -22.0456  -12.8203   22.0429 N   0  0  0  0  0  0
  -25.4142  -15.1935   20.4083 N   0  0  0  0  0  0
  -31.8172  -14.8159   20.1394 O   0  0  0  0  0  0
  -21.6642   -6.8881   21.4240 O   0  0  0  0  0  0
  -22.3486  -14.5522   20.6721 O   0  0  0  0  0  0
  -24.6337  -31.8519   23.1950 C   0  0  0  0  0  0
  -25.9153  -32.4733   23.8308 C   0  0  1  0  0  0
  -27.2207  -27.2317   20.1279 C   0  0  0  0  0  0
  -25.5941  -33.8537   24.2234 N   0  0  0  0  0  0
  -23.4313  -30.4728   21.5391 C   0  0  2  0  0  0
  -24.8773  -28.9119   20.1084 C   0  0  0  0  0  0
  -22.7511  -29.4586   22.4905 C   0  0  0  0  0  0
  -18.0292  -28.1386   22.8482 C   0  0  0  0  0  0
  -24.1489  -36.7271   23.2642 C   0  0  0  0  0  0
  -25.9784  -30.7548   21.3779 C   0  0  0  0  0  0
  -26.0486  -29.3745   20.7192 C   0  0  0  0  0  0
  -27.2188  -28.5464   20.7168 C   0  0  0  0  0  0
  -26.0209  -26.8370   19.4959 C   0  0  0  0  0  0
  -24.8703  -27.6533   19.4863 C   0  0  0  0  0  0
  -23.6496  -29.8029   20.1562 C   0  0  0  0  0  0
  -25.4119  -36.3056   24.0323 C   0  0  1  0  0  0
  -20.5896  -28.3701   23.1263 C   0  0  2  0  0  0
  -20.6779  -26.9416   22.5407 C   0  0  0  0  0  0
  -19.5755  -26.6381   21.5210 C   0  0  0  0  0  0
  -18.1935  -26.7928   22.1620 C   0  0  0  0  0  0
  -19.1546  -28.8861   23.2865 C   0  0  0  0  0  0
  -18.9466  -30.1461   23.8883 C   0  0  0  0  0  0
  -17.6465  -30.6587   24.0559 C   0  0  0  0  0  0
  -25.9062  -34.9428   23.5083 C   0  0  0  0  0  0
  -16.5356  -29.9081   23.6334 C   0  0  0  0  0  0
  -16.7278  -28.6499   23.0354 C   0  0  0  0  0  0
  -26.4511  -31.6572   25.0714 C   0  0  0  0  0  0
  -25.3723  -31.3724   26.1426 C   0  0  0  0  0  0
  -27.0376  -30.2988   24.6229 C   0  0  0  0  0  0
  -27.6056  -32.4326   25.7491 C   0  0  0  0  0  0
  -27.5577  -37.1792   24.8467 C   0  0  0  0  0  0
  -21.4215  -29.3043   22.3650 N   0  0  0  0  0  0
  -26.4289  -37.3760   23.9408 N   0  0  0  0  0  0
  -24.7005  -31.0458   22.0935 N   0  0  0  0  0  0
  -23.4199  -28.8136   23.3023 O   0  0  0  0  0  0
  -28.3338  -26.3545   20.2121 O   0  0  0  0  0  0
  -26.5639  -34.8911   22.4656 O   0  0  0  0  0  0
  -23.5482  -32.1360   23.7229 O   0  0  0  0  0  0
  -28.0650  -19.0131   21.9741 C   0  0  0  0  0  0
  -29.5988  -19.8902   19.8274 C   0  0  0  0  0  0
  -28.8384  -18.0651   21.2677 C   0  0  0  0  0  0
  -29.6051  -18.4946   20.2169 C   0  0  0  0  0  0
  -28.0424  -20.4113   21.6258 C   0  0  0  0  0  0
  -28.8167  -20.9154   20.5064 C   0  0  0  0  0  0
  -28.9696  -16.5373   21.4734 C   0  0  0  0  0  0
  -30.3411  -17.2417   19.6683 C   0  0  0  0  0  0
  -28.3933  -24.9390   19.6666 C   0  0  0  0  0  0
  -28.3600  -23.5669   20.5590 C   0  0  0  0  0  0
  -27.1308  -21.2953   22.4856 C   0  0  0  0  0  0
  -29.9033  -16.0020   20.4348 N   0  0  0  0  0  0
  -28.8692  -22.2659   19.9780 O   0  0  0  0  0  0
  -26.6007  -20.6283   23.5130 F   0  0  0  0  0  0
  -27.8046  -22.3136   23.0158 F   0  0  0  0  0  0
  -26.1090  -21.7470   21.7593 F   0  0  0  0  0  0
  -31.4652  -12.6039   19.1717 H   0  0  0  0  0  0
  -30.3730  -11.5201   19.9803 H   0  0  0  0  0  0
  -29.7963  -11.7287   17.5362 H   0  0  0  0  0  0
  -29.6266  -13.4583   17.7088 H   0  0  0  0  0  0
  -27.8978  -11.2846   18.9262 H   0  0  0  0  0  0
  -27.3753  -12.5127   17.8044 H   0  0  0  0  0  0
  -27.6223  -14.2576   19.4598 H   0  0  0  0  0  0
  -28.7371  -12.1976   21.4224 H   0  0  0  0  0  0
  -28.4120  -13.8654   21.7979 H   0  0  0  0  0  0
  -25.2767   -9.5687   22.4765 H   0  0  0  0  0  0
  -24.0006   -7.4635   22.7473 H   0  0  0  0  0  0
  -21.0851   -8.8779   19.8949 H   0  0  0  0  0  0
  -22.3706  -10.9678   19.6169 H   0  0  0  0  0  0
  -21.2006   -7.6149   23.9716 H   0  0  0  0  0  0
  -21.1480   -6.0523   25.9076 H   0  0  0  0  0  0
  -22.0599   -2.7611   23.2846 H   0  0  0  0  0  0
  -22.4077  -11.9865   22.4814 H   0  0  0  0  0  0
  -21.1072  -13.1220   22.2637 H   0  0  0  0  0  0
  -24.6421  -15.8429   20.5104 H   0  0  0  0  0  0
  -26.2529  -15.6305   20.0492 H   0  0  0  0  0  0
  -26.7216  -32.5367   23.1041 H   0  0  0  0  0  0
  -25.0087  -33.9668   25.0380 H   0  0  0  0  0  0
  -22.7290  -31.2956   21.3909 H   0  0  0  0  0  0
  -23.3755  -35.9599   23.3298 H   0  0  0  0  0  0
  -24.3576  -36.8905   22.2057 H   0  0  0  0  0  0
  -23.7239  -37.6466   23.6676 H   0  0  0  0  0  0
  -26.1222  -31.5141   20.6080 H   0  0  0  0  0  0
  -26.8538  -30.8027   22.0141 H   0  0  0  0  0  0
  -28.1155  -28.8964   21.2087 H   0  0  0  0  0  0
  -25.9282  -25.8698   19.0286 H   0  0  0  0  0  0
  -23.9705  -27.2914   19.0080 H   0  0  0  0  0  0
  -23.7751  -30.5774   19.3988 H   0  0  0  0  0  0
  -22.7666  -29.2375   19.8528 H   0  0  0  0  0  0
  -25.1303  -36.1895   25.0816 H   0  0  0  0  0  0
  -20.9985  -28.3280   24.1386 H   0  0  0  0  0  0
  -20.5675  -26.2312   23.3613 H   0  0  0  0  0  0
  -21.6647  -26.7436   22.1203 H   0  0  0  0  0  0
  -19.6917  -25.6289   21.1248 H   0  0  0  0  0  0
  -19.6692  -27.3181   20.6731 H   0  0  0  0  0  0
  -17.4206  -26.6675   21.4021 H   0  0  0  0  0  0
  -18.0333  -26.0071   22.9016 H   0  0  0  0  0  0
  -19.7942  -30.7282   24.2243 H   0  0  0  0  0  0
  -17.5019  -31.6266   24.5161 H   0  0  0  0  0  0
  -15.5355  -30.2977   23.7669 H   0  0  0  0  0  0
  -15.8678  -28.0814   22.7077 H   0  0  0  0  0  0
  -24.5909  -30.7064   25.7750 H   0  0  0  0  0  0
  -24.8901  -32.2891   26.4831 H   0  0  0  0  0  0
  -25.8033  -30.8916   27.0217 H   0  0  0  0  0  0
  -26.2975  -29.6711   24.1251 H   0  0  0  0  0  0
  -27.4050  -29.7275   25.4765 H   0  0  0  0  0  0
  -27.8852  -30.4261   23.9490 H   0  0  0  0  0  0
  -27.2662  -33.3640   26.2035 H   0  0  0  0  0  0
  -28.3881  -32.6864   25.0328 H   0  0  0  0  0  0
  -28.0707  -31.8473   26.5434 H   0  0  0  0  0  0
  -28.2592  -38.0092   24.7516 H   0  0  0  0  0  0
  -28.1078  -36.2622   24.6293 H   0  0  0  0  0  0
  -27.2294  -37.1438   25.8870 H   0  0  0  0  0  0
  -20.9408  -29.8762   21.6847 H   0  0  0  0  0  0
  -26.0163  -38.2833   24.1405 H   0  0  0  0  0  0
  -27.4677  -18.6494   22.7965 H   0  0  0  0  0  0
  -30.2036  -20.1866   18.9822 H   0  0  0  0  0  0
  -27.9874  -16.0767   21.3775 H   0  0  0  0  0  0
  -29.3494  -16.3245   22.4737 H   0  0  0  0  0  0
  -31.4179  -17.3908   19.7609 H   0  0  0  0  0  0
  -30.1160  -17.1143   18.6088 H   0  0  0  0  0  0
  -27.7171  -24.8189   18.8232 H   0  0  0  0  0  0
  -29.3726  -24.9213   19.1886 H   0  0  0  0  0  0
  -27.3286  -23.4570   20.8722 H   0  0  0  0  0  0
  -28.9500  -23.7578   21.4550 H   0  0  0  0  0  0
  1 25  1  0  0  0
  1 30  2  0  0  0
  1 82  1  0  0  0
  2  3  1  0  0  0
  2 25  1  0  0  0
  2 87  1  0  0  0
  2 88  1  0  0  0
  3  4  1  0  0  0
  3 89  1  0  0  0
  3 90  1  0  0  0
  4  5  1  0  0  0
  4 91  1  0  0  0
  4 92  1  0  0  0
  5  6  1  0  0  0
  5 26  1  0  0  0
  5 93  1  0  0  0
  6 25  1  0  0  0
  6 94  1  0  0  0
  6 95  1  0  0  0
  7  8  2  0  0  0
  7 26  1  0  0  0
  7 29  1  0  0  0
  8  9  1  0  0  0
  8 22  1  0  0  0
  9 10  1  0  0  0
  9 27  2  0  0  0
 10 11  2  0  0  0
 10 15  1  0  0  0
 11 12  1  0  0  0
 11 96  1  0  0  0
 12 13  2  0  0  0
 12 97  1  0  0  0
 13 14  1  0  0  0
 13 31  1  0  0  0
 14 15  2  0  0  0
 14 98  1  0  0  0
 15 99  1  0  0  0
 16 17  2  0  0  0
 16 21  1  0  0  0
 16 31  1  0  0  0
 17 18  1  0  0  0
 17100  1  0  0  0
 18 19  2  0  0  0
 18101  1  0  0  0
 19 20  1  0  0  0
 19 24  1  0  0  0
 20 21  2  0  0  0
 20102  1  0  0  0
 21 23  1  0  0  0
 22 28  1  0  0  0
 22 32  2  0  0  0
 26 27  1  0  0  0
 28103  1  0  0  0
 28104  1  0  0  0
 29105  1  0  0  0
 29106  1  0  0  0
 33 34  1  0  0  0
 33 66  1  0  0  0
 33 70  2  0  0  0
 34 36  1  0  0  0
 34 59  1  0  0  0
 34107  1  0  0  0
 35 44  2  0  0  0
 35 45  1  0  0  0
 35 68  1  0  0  0
 36 56  1  0  0  0
 36108  1  0  0  0
 37 39  1  0  0  0
 37 47  1  0  0  0
 37 66  1  0  0  0
 37109  1  0  0  0
 38 43  2  0  0  0
 38 46  1  0  0  0
 38 47  1  0  0  0
 39 64  1  0  0  0
 39 67  2  0  0  0
 40 52  1  0  0  0
 40 53  2  0  0  0
 40 58  1  0  0  0
 41110  1  0  0  0
 41111  1  0  0  0
 41112  1  0  0  0
 41 48  1  0  0  0
 42 43  1  0  0  0
 42 66  1  0  0  0
 42113  1  0  0  0
 42114  1  0  0  0
 43 44  1  0  0  0
 44115  1  0  0  0
 45 46  2  0  0  0
 45116  1  0  0  0
 46117  1  0  0  0
 47118  1  0  0  0
 47119  1  0  0  0
 48 56  1  0  0  0
 48 65  1  0  0  0
 48120  1  0  0  0
 49 50  1  0  0  0
 49 53  1  0  0  0
 49 64  1  0  0  0
 49121  1  0  0  0
 50 51  1  0  0  0
 50122  1  0  0  0
 50123  1  0  0  0
 51 52  1  0  0  0
 51124  1  0  0  0
 51125  1  0  0  0
 52126  1  0  0  0
 52127  1  0  0  0
 53 54  1  0  0  0
 54 55  2  0  0  0
 54128  1  0  0  0
 55 57  1  0  0  0
 55129  1  0  0  0
 56 69  2  0  0  0
 57 58  2  0  0  0
 57130  1  0  0  0
 58131  1  0  0  0
 59 60  1  0  0  0
 59 61  1  0  0  0
 59 62  1  0  0  0
 60132  1  0  0  0
 60133  1  0  0  0
 60134  1  0  0  0
 61135  1  0  0  0
 61136  1  0  0  0
 61137  1  0  0  0
 62138  1  0  0  0
 62139  1  0  0  0
 62140  1  0  0  0
 63 65  1  0  0  0
 63141  1  0  0  0
 63142  1  0  0  0
 63143  1  0  0  0
 64144  1  0  0  0
 65145  1  0  0  0
 68 79  1  0  0  0
 71 73  2  0  0  0
 71 75  1  0  0  0
 71146  1  0  0  0
 72 74  2  0  0  0
 72 76  1  0  0  0
 72147  1  0  0  0
 73 74  1  0  0  0
 73 77  1  0  0  0
 74 78  1  0  0  0
 75 76  2  0  0  0
 75 81  1  0  0  0
 76 83  1  0  0  0
 77 82  1  0  0  0
 77148  1  0  0  0
 77149  1  0  0  0
 78 82  1  0  0  0
 78150  1  0  0  0
 78151  1  0  0  0
 79 80  1  0  0  0
 79152  1  0  0  0
 79153  1  0  0  0
 80 83  1  0  0  0
 80154  1  0  0  0
 80155  1  0  0  0
 81 84  1  0  0  0
 81 85  1  0  0  0
 81 86  1  0  0  0
M  ISO  4   1 100  68 101  79 101  82 100
M  END
> <chiral flag>
0

> <version>
0

> <s_m_source_file>
/data/baiqing/PycharmProjects/Reinvent-master-3.2/result/LINK_invent/BTK/process_docking_weight1_custom_sum_contain_oxygen_bond_distance_aromatic_linkinvent_7_9_3/rearranged_h_0166.sdf

> <i_m_source_file_index>
78

> <r_mmod_Potential_Energy-OPLS-2005>
450.386108398438

> <r_mmod_Stretch_Energy-OPLS-2005>
152.478363037109

> <r_mmod_Bend_Energy-OPLS-2005>
270.659118652344

> <r_mmod_Torsional_Energy-OPLS-2005>
240.354705810547

> <r_mmod_Improper_Torsional_Energy-OPLS-2005>
14.6241273880005

> <r_mmod_Van_der_Waal_Energy-OPLS-2005>
139.48112487793

> <r_mmod_Electrostatic_Energy-OPLS-2005>
-269.486663818359

> <r_mmod_Solvation_Energy-OPLS-2005>
-199.51123046875

> <b_mmod_Minimization_Converged-OPLS-2005>
0

> <r_mmod_RMS_Derivative-OPLS-2005>
0.241531923413277

$$$$
78
                    3D
 Structure written by MMmdl.
174184  0  0  1  0            999 V2000
  -30.6687  -14.6501   20.4406 C   0  0  0  0  0  0
  -30.4185  -12.3945   19.4418 C   0  0  0  0  0  0
  -29.4945  -12.4857   18.2112 C   0  0  0  0  0  0
  -28.0221  -12.3137   18.6351 C   0  0  0  0  0  0
  -27.6442  -13.2052   19.8474 C   0  0  2  0  0  0
  -28.6980  -13.1061   20.9723 C   0  0  0  0  0  0
  -25.2528  -13.8095   20.5680 C   0  0  0  0  0  0
  -24.1811  -13.0398   20.9184 C   0  0  0  0  0  0
  -24.6353  -11.6861   20.8726 C   0  0  0  0  0  0
  -23.9009  -10.4269   21.0394 C   0  0  0  0  0  0
  -24.3577   -9.4208   21.9186 C   0  0  0  0  0  0
  -23.6276   -8.2230   22.0740 C   0  0  0  0  0  0
  -22.4273   -8.0249   21.3518 C   0  0  0  0  0  0
  -21.9874   -9.0208   20.4629 C   0  0  0  0  0  0
  -22.7163  -10.2102   20.3050 C   0  0  0  0  0  0
  -21.6863   -6.0707   22.5270 C   0  0  0  0  0  0
  -21.4016   -6.5617   23.8190 C   0  0  0  0  0  0
  -21.3668   -5.6777   24.9160 C   0  0  0  0  0  0
  -21.6059   -4.3041   24.7235 C   0  0  0  0  0  0
  -21.8821   -3.8117   23.4352 C   0  0  0  0  0  0
  -21.9185   -4.6923   22.3405 C   0  0  0  0  0  0
  -22.7839  -13.5212   21.1857 C   0  0  0  0  0  0
  -22.1671   -4.2114   21.0983 F   0  0  0  0  0  0
  -21.5630   -3.4528   25.7742 F   0  0  0  0  0  0
  -29.9942  -13.4555   20.3776 N   0  0  0  0  0  0
  -26.2950  -12.9275   20.3264 N   0  0  0  0  0  0
  -25.9281  -11.6444   20.5754 N   0  0  0  0  0  0
  -22.0497  -12.8224   22.0417 N   0  0  0  0  0  0
  -25.4167  -15.1828   20.4116 N   0  0  0  0  0  0
  -31.8759  -14.6777   20.1827 O   0  0  0  0  0  0
  -21.6631   -6.8853   21.4230 O   0  0  0  0  0  0
  -22.3542  -14.5529   20.6685 O   0  0  0  0  0  0
  -24.6297  -31.8591   23.2076 C   0  0  0  0  0  0
  -25.9143  -32.4788   23.8391 C   0  0  1  0  0  0
  -27.2165  -27.3273   20.1131 C   0  0  0  0  0  0
  -25.5980  -33.8590   24.2363 N   0  0  0  0  0  0
  -23.4168  -30.4934   21.5486 C   0  0  2  0  0  0
  -24.8504  -28.9361   20.1217 C   0  0  0  0  0  0
  -22.7436  -29.4699   22.4921 C   0  0  0  0  0  0
  -18.0319  -28.1411   22.8488 C   0  0  0  0  0  0
  -24.1466  -36.7290   23.2632 C   0  0  0  0  0  0
  -25.9588  -30.7934   21.3708 C   0  0  0  0  0  0
  -26.0236  -29.4223   20.7121 C   0  0  0  0  0  0
  -27.2052  -28.6301   20.6956 C   0  0  0  0  0  0
  -26.0059  -26.8723   19.5372 C   0  0  0  0  0  0
  -24.8402  -27.6624   19.5341 C   0  0  0  0  0  0
  -23.6279  -29.8284   20.1647 C   0  0  0  0  0  0
  -25.4086  -36.3107   24.0370 C   0  0  1  0  0  0
  -20.5906  -28.3737   23.1263 C   0  0  2  0  0  0
  -20.6809  -26.9465   22.5378 C   0  0  0  0  0  0
  -19.5788  -26.6414   21.5180 C   0  0  0  0  0  0
  -18.1973  -26.7961   22.1598 C   0  0  0  0  0  0
  -19.1564  -28.8885   23.2881 C   0  0  0  0  0  0
  -18.9472  -30.1469   23.8928 C   0  0  0  0  0  0
  -17.6480  -30.6613   24.0577 C   0  0  0  0  0  0
  -25.9023  -34.9465   23.5149 C   0  0  0  0  0  0
  -16.5379  -29.9117   23.6337 C   0  0  0  0  0  0
  -16.7298  -28.6516   23.0388 C   0  0  0  0  0  0
  -26.4503  -31.6629   25.0781 C   0  0  0  0  0  0
  -25.3730  -31.3804   26.1525 C   0  0  0  0  0  0
  -27.0369  -30.3060   24.6256 C   0  0  0  0  0  0
  -27.6069  -32.4370   25.7546 C   0  0  0  0  0  0
  -27.5595  -37.1818   24.8479 C   0  0  0  0  0  0
  -21.4165  -29.3090   22.3635 N   0  0  0  0  0  0
  -26.4294  -37.3795   23.9436 N   0  0  0  0  0  0
  -24.6892  -31.0615   22.1019 N   0  0  0  0  0  0
  -23.4135  -28.8228   23.3013 O   0  0  0  0  0  0
  -28.3784  -26.5467   20.1475 O   0  0  0  0  0  0
  -26.5541  -34.8928   22.4685 O   0  0  0  0  0  0
  -23.5468  -32.1371   23.7432 O   0  0  0  0  0  0
  -28.0011  -20.4813   19.1812 C   0  0  0  0  0  0
  -27.6553  -21.8743   19.2464 C   0  0  0  0  0  0
  -29.0356  -20.2401   20.0491 C   0  0  0  0  0  0
  -28.4907  -22.5048   20.1382 C   0  0  0  0  0  0
  -31.4962  -22.7519   21.0800 C   0  0  0  0  0  0
  -31.8483  -21.2908   21.1236 C   0  0  0  0  0  0
  -28.8458  -17.9124   21.2758 C   0  0  0  0  0  0
  -30.4670  -18.1670   19.2576 C   0  0  0  0  0  0
  -28.8136  -16.3764   20.9652 C   0  0  0  0  0  0
  -30.1930  -16.6500   19.0107 C   0  0  0  0  0  0
  -29.7071  -18.8831   20.4116 C   0  0  0  0  0  0
  -30.4611  -21.7431   21.5474 C   0  0  0  0  0  0
  -27.3103  -19.4582   18.3144 C   0  0  0  0  0  0
  -26.5252  -22.5125   18.4787 C   0  0  0  0  0  0
  -27.3221  -24.1316   21.7137 C   0  0  0  0  0  0
  -28.4278  -25.1616   19.6393 C   0  0  0  0  0  0
  -28.4523  -23.9699   20.6845 C   0  0  1  0  0  0
  -29.3875  -21.5032   20.5848 N   0  0  0  0  0  0
  -29.9513  -15.8146   20.2109 N   0  0  0  0  0  0
  -31.4639  -12.4859   19.1389 H   0  0  0  0  0  0
  -30.3387  -11.4116   19.9088 H   0  0  0  0  0  0
  -29.7676  -11.7314   17.4736 H   0  0  0  0  0  0
  -29.6213  -13.4507   17.7185 H   0  0  0  0  0  0
  -27.8803  -11.2626   18.8916 H   0  0  0  0  0  0
  -27.3573  -12.5173   17.7942 H   0  0  0  0  0  0
  -27.6434  -14.2224   19.4621 H   0  0  0  0  0  0
  -28.7319  -12.0934   21.3748 H   0  0  0  0  0  0
  -28.4471  -13.7439   21.8166 H   0  0  0  0  0  0
  -25.2742   -9.5693   22.4745 H   0  0  0  0  0  0
  -23.9977   -7.4629   22.7470 H   0  0  0  0  0  0
  -21.0792   -8.8698   19.8957 H   0  0  0  0  0  0
  -22.3607  -10.9616   19.6149 H   0  0  0  0  0  0
  -21.2016   -7.6131   23.9689 H   0  0  0  0  0  0
  -21.1500   -6.0514   25.9063 H   0  0  0  0  0  0
  -22.0594   -2.7577   23.2860 H   0  0  0  0  0  0
  -22.4118  -11.9894   22.4811 H   0  0  0  0  0  0
  -21.1100  -13.1194   22.2621 H   0  0  0  0  0  0
  -24.6430  -15.8255   20.5417 H   0  0  0  0  0  0
  -26.2616  -15.6319   20.0872 H   0  0  0  0  0  0
  -26.7250  -32.5371   23.1163 H   0  0  0  0  0  0
  -25.0289  -33.9721   25.0627 H   0  0  0  0  0  0
  -22.7153  -31.3187   21.4085 H   0  0  0  0  0  0
  -23.3746  -35.9601   23.3281 H   0  0  0  0  0  0
  -24.3557  -36.8880   22.2045 H   0  0  0  0  0  0
  -23.7195  -37.6501   23.6604 H   0  0  0  0  0  0
  -26.0938  -31.5586   20.6042 H   0  0  0  0  0  0
  -26.8393  -30.8317   22.0028 H   0  0  0  0  0  0
  -28.1106  -29.0041   21.1530 H   0  0  0  0  0  0
  -25.9005  -25.8901   19.1054 H   0  0  0  0  0  0
  -23.9293  -27.2644   19.1063 H   0  0  0  0  0  0
  -23.7766  -30.6030   19.4122 H   0  0  0  0  0  0
  -22.7378  -29.2804   19.8518 H   0  0  0  0  0  0
  -25.1254  -36.1984   25.0875 H   0  0  0  0  0  0
  -21.0056  -28.3359   24.1355 H   0  0  0  0  0  0
  -20.5700  -26.2362   23.3576 H   0  0  0  0  0  0
  -21.6687  -26.7496   22.1176 H   0  0  0  0  0  0
  -19.6933  -25.6296   21.1277 H   0  0  0  0  0  0
  -19.6752  -27.3169   20.6664 H   0  0  0  0  0  0
  -17.4230  -26.6739   21.4010 H   0  0  0  0  0  0
  -18.0376  -26.0083   22.8975 H   0  0  0  0  0  0
  -19.7955  -30.7274   24.2323 H   0  0  0  0  0  0
  -17.5047  -31.6283   24.5181 H   0  0  0  0  0  0
  -15.5393  -30.3042   23.7607 H   0  0  0  0  0  0
  -15.8702  -28.0815   22.7167 H   0  0  0  0  0  0
  -24.5867  -30.7169   25.7938 H   0  0  0  0  0  0
  -24.8920  -32.2973   26.4944 H   0  0  0  0  0  0
  -25.8038  -30.9021   27.0325 H   0  0  0  0  0  0
  -26.2999  -29.6809   24.1209 H   0  0  0  0  0  0
  -27.4016  -29.7352   25.4807 H   0  0  0  0  0  0
  -27.8871  -30.4399   23.9562 H   0  0  0  0  0  0
  -27.2707  -33.3675   26.2141 H   0  0  0  0  0  0
  -28.3890  -32.6953   25.0394 H   0  0  0  0  0  0
  -28.0734  -31.8467   26.5440 H   0  0  0  0  0  0
  -28.2642  -38.0091   24.7513 H   0  0  0  0  0  0
  -28.1084  -36.2632   24.6324 H   0  0  0  0  0  0
  -27.2311  -37.1506   25.8883 H   0  0  0  0  0  0
  -20.9324  -29.8805   21.6861 H   0  0  0  0  0  0
  -26.0187  -38.2896   24.1381 H   0  0  0  0  0  0
  -31.3671  -23.1996   20.0963 H   0  0  0  0  0  0
  -31.9591  -23.4024   21.8235 H   0  0  0  0  0  0
  -32.5452  -20.9836   21.8991 H   0  0  0  0  0  0
  -31.9758  -20.7891   20.1644 H   0  0  0  0  0  0
  -27.8119  -18.2648   21.2607 H   0  0  0  0  0  0
  -29.1510  -18.0399   22.3150 H   0  0  0  0  0  0
  -30.2748  -18.7015   18.3256 H   0  0  0  0  0  0
  -31.5350  -18.3070   19.4379 H   0  0  0  0  0  0
  -27.9304  -16.2015   20.3571 H   0  0  0  0  0  0
  -28.6558  -15.8498   21.9032 H   0  0  0  0  0  0
  -30.9978  -16.2364   18.3991 H   0  0  0  0  0  0
  -29.3084  -16.5507   18.3770 H   0  0  0  0  0  0
  -30.5085  -19.1275   21.0994 H   0  0  0  0  0  0
  -30.1317  -21.7047   22.5853 H   0  0  0  0  0  0
  -27.2341  -19.8225   17.2913 H   0  0  0  0  0  0
  -26.3008  -19.2679   18.6745 H   0  0  0  0  0  0
  -27.8490  -18.5105   18.2928 H   0  0  0  0  0  0
  -25.7688  -21.7768   18.2111 H   0  0  0  0  0  0
  -26.8935  -22.9800   17.5644 H   0  0  0  0  0  0
  -26.0292  -23.2741   19.0799 H   0  0  0  0  0  0
  -26.3461  -24.0924   21.2311 H   0  0  0  0  0  0
  -27.3995  -25.0836   22.2443 H   0  0  0  0  0  0
  -27.3551  -23.3389   22.4632 H   0  0  0  0  0  0
  -27.6909  -24.9770   18.8653 H   0  0  0  0  0  0
  -29.3706  -25.1128   19.0953 H   0  0  0  0  0  0
  -29.3554  -24.1437   21.2641 H   0  0  0  0  0  0
  1 25  1  0  0  0
  1 30  2  0  0  0
  1 89  1  0  0  0
  2  3  1  0  0  0
  2 25  1  0  0  0
  2 90  1  0  0  0
  2 91  1  0  0  0
  3  4  1  0  0  0
  3 92  1  0  0  0
  3 93  1  0  0  0
  4  5  1  0  0  0
  4 94  1  0  0  0
  4 95  1  0  0  0
  5  6  1  0  0  0
  5 26  1  0  0  0
  5 96  1  0  0  0
  6 25  1  0  0  0
  6 97  1  0  0  0
  6 98  1  0  0  0
  7  8  2  0  0  0
  7 26  1  0  0  0
  7 29  1  0  0  0
  8  9  1  0  0  0
  8 22  1  0  0  0
  9 10  1  0  0  0
  9 27  2  0  0  0
 10 11  2  0  0  0
 10 15  1  0  0  0
 11 12  1  0  0  0
 11 99  1  0  0  0
 12 13  2  0  0  0
 12100  1  0  0  0
 13 14  1  0  0  0
 13 31  1  0  0  0
 14 15  2  0  0  0
 14101  1  0  0  0
 15102  1  0  0  0
 16 17  2  0  0  0
 16 21  1  0  0  0
 16 31  1  0  0  0
 17 18  1  0  0  0
 17103  1  0  0  0
 18 19  2  0  0  0
 18104  1  0  0  0
 19 20  1  0  0  0
 19 24  1  0  0  0
 20 21  2  0  0  0
 20105  1  0  0  0
 21 23  1  0  0  0
 22 28  1  0  0  0
 22 32  2  0  0  0
 26 27  1  0  0  0
 28106  1  0  0  0
 28107  1  0  0  0
 29108  1  0  0  0
 29109  1  0  0  0
 33 34  1  0  0  0
 33 66  1  0  0  0
 33 70  2  0  0  0
 34 36  1  0  0  0
 34 59  1  0  0  0
 34110  1  0  0  0
 35 44  2  0  0  0
 35 45  1  0  0  0
 35 68  1  0  0  0
 36 56  1  0  0  0
 36111  1  0  0  0
 37 39  1  0  0  0
 37 47  1  0  0  0
 37 66  1  0  0  0
 37112  1  0  0  0
 38 43  2  0  0  0
 38 46  1  0  0  0
 38 47  1  0  0  0
 39 64  1  0  0  0
 39 67  2  0  0  0
 40 52  1  0  0  0
 40 53  2  0  0  0
 40 58  1  0  0  0
 41113  1  0  0  0
 41114  1  0  0  0
 41115  1  0  0  0
 41 48  1  0  0  0
 42 43  1  0  0  0
 42 66  1  0  0  0
 42116  1  0  0  0
 42117  1  0  0  0
 43 44  1  0  0  0
 44118  1  0  0  0
 45 46  2  0  0  0
 45119  1  0  0  0
 46120  1  0  0  0
 47121  1  0  0  0
 47122  1  0  0  0
 48 56  1  0  0  0
 48 65  1  0  0  0
 48123  1  0  0  0
 49 50  1  0  0  0
 49 53  1  0  0  0
 49 64  1  0  0  0
 49124  1  0  0  0
 50 51  1  0  0  0
 50125  1  0  0  0
 50126  1  0  0  0
 51 52  1  0  0  0
 51127  1  0  0  0
 51128  1  0  0  0
 52129  1  0  0  0
 52130  1  0  0  0
 53 54  1  0  0  0
 54 55  2  0  0  0
 54131  1  0  0  0
 55 57  1  0  0  0
 55132  1  0  0  0
 56 69  2  0  0  0
 57 58  2  0  0  0
 57133  1  0  0  0
 58134  1  0  0  0
 59 60  1  0  0  0
 59 61  1  0  0  0
 59 62  1  0  0  0
 60135  1  0  0  0
 60136  1  0  0  0
 60137  1  0  0  0
 61138  1  0  0  0
 61139  1  0  0  0
 61140  1  0  0  0
 62141  1  0  0  0
 62142  1  0  0  0
 62143  1  0  0  0
 63 65  1  0  0  0
 63144  1  0  0  0
 63145  1  0  0  0
 63146  1  0  0  0
 64147  1  0  0  0
 65148  1  0  0  0
 68 86  1  0  0  0
 71 72  1  0  0  0
 71 73  2  0  0  0
 71 83  1  0  0  0
 72 74  2  0  0  0
 72 84  1  0  0  0
 73 88  1  0  0  0
 73 81  1  0  0  0
 74 87  1  0  0  0
 74 88  1  0  0  0
 75 76  1  0  0  0
 75 82  1  0  0  0
 75149  1  0  0  0
 75150  1  0  0  0
 76 82  1  0  0  0
 76151  1  0  0  0
 76152  1  0  0  0
 77 79  1  0  0  0
 77 81  1  0  0  0
 77153  1  0  0  0
 77154  1  0  0  0
 78 80  1  0  0  0
 78 81  1  0  0  0
 78155  1  0  0  0
 78156  1  0  0  0
 79 89  1  0  0  0
 79157  1  0  0  0
 79158  1  0  0  0
 80 89  1  0  0  0
 80159  1  0  0  0
 80160  1  0  0  0
 81161  1  0  0  0
 82 88  1  0  0  0
 82162  1  0  0  0
 83163  1  0  0  0
 83164  1  0  0  0
 83165  1  0  0  0
 84166  1  0  0  0
 84167  1  0  0  0
 84168  1  0  0  0
 85169  1  0  0  0
 85170  1  0  0  0
 85171  1  0  0  0
 85 87  1  0  0  0
 86 87  1  0  0  0
 86172  1  0  0  0
 86173  1  0  0  0
 87174  1  0  0  0
M  ISO  4   1 100  68 101  86 101  89 100
M  END
> <chiral flag>
0

> <version>
0

> <s_m_source_file>
/data/baiqing/PycharmProjects/Reinvent-master-3.2/result/LINK_invent/BTK/process_docking_weight1_custom_sum_contain_oxygen_bond_distance_aromatic_linkinvent_7_9_3/rearranged_h_0166.sdf

> <i_m_source_file_index>
79

> <r_mmod_Potential_Energy-OPLS-2005>
358.224975585938

> <r_mmod_Stretch_Energy-OPLS-2005>
77.1921463012695

> <r_mmod_Bend_Energy-OPLS-2005>
182.635055541992

> <r_mmod_Torsional_Energy-OPLS-2005>
419.935180664062

> <r_mmod_Improper_Torsional_Energy-OPLS-2005>
20.187105178833

> <r_mmod_Van_der_Waal_Energy-OPLS-2005>
118.069229125977

> <r_mmod_Electrostatic_Energy-OPLS-2005>
-322.09423828125

> <r_mmod_Solvation_Energy-OPLS-2005>
-188.961013793945

> <b_mmod_Minimization_Converged-OPLS-2005>
0

> <r_mmod_RMS_Derivative-OPLS-2005>
5.65881299972534

$$$$
79
                    3D
 Structure written by MMmdl.
173182  0  0  1  0            999 V2000
  -30.7407  -14.4362   20.6045 C   0  0  0  0  0  0
  -30.4129  -12.2996   19.4272 C   0  0  0  0  0  0
  -29.4960  -12.5215   18.2087 C   0  0  0  0  0  0
  -28.0146  -12.3902   18.6108 C   0  0  0  0  0  0
  -27.6629  -13.2161   19.8781 C   0  0  2  0  0  0
  -28.7010  -12.9940   21.0011 C   0  0  0  0  0  0
  -25.2588  -13.8185   20.5705 C   0  0  0  0  0  0
  -24.1843  -13.0463   20.9179 C   0  0  0  0  0  0
  -24.6406  -11.6931   20.8734 C   0  0  0  0  0  0
  -23.9090  -10.4307   21.0417 C   0  0  0  0  0  0
  -24.3636   -9.4214   21.9189 C   0  0  0  0  0  0
  -23.6300   -8.2257   22.0763 C   0  0  0  0  0  0
  -22.4279   -8.0294   21.3556 C   0  0  0  0  0  0
  -21.9922   -9.0280   20.4659 C   0  0  0  0  0  0
  -22.7268  -10.2152   20.3065 C   0  0  0  0  0  0
  -21.6847   -6.0749   22.5286 C   0  0  0  0  0  0
  -21.4010   -6.5650   23.8220 C   0  0  0  0  0  0
  -21.3653   -5.6802   24.9180 C   0  0  0  0  0  0
  -21.6051   -4.3065   24.7227 C   0  0  0  0  0  0
  -21.8809   -3.8159   23.4342 C   0  0  0  0  0  0
  -21.9188   -4.6980   22.3405 C   0  0  0  0  0  0
  -22.7858  -13.5245   21.1837 C   0  0  0  0  0  0
  -22.1654   -4.2170   21.0984 F   0  0  0  0  0  0
  -21.5627   -3.4544   25.7736 F   0  0  0  0  0  0
  -30.0367  -13.2821   20.4561 N   0  0  0  0  0  0
  -26.3032  -12.9379   20.3380 N   0  0  0  0  0  0
  -25.9334  -11.6527   20.5765 N   0  0  0  0  0  0
  -22.0486  -12.8256   22.0386 N   0  0  0  0  0  0
  -25.4317  -15.1912   20.4129 N   0  0  0  0  0  0
  -31.8401  -14.6148   20.0729 O   0  0  0  0  0  0
  -21.6631   -6.8898   21.4253 O   0  0  0  0  0  0
  -22.3563  -14.5562   20.6686 O   0  0  0  0  0  0
  -24.6111  -31.8704   23.2131 C   0  0  0  0  0  0
  -25.8996  -32.4851   23.8397 C   0  0  1  0  0  0
  -27.2327  -27.4409   20.0818 C   0  0  0  0  0  0
  -25.5872  -33.8647   24.2319 N   0  0  0  0  0  0
  -23.3974  -30.4924   21.5571 C   0  0  2  0  0  0
  -24.8434  -28.9633   20.1133 C   0  0  0  0  0  0
  -22.7408  -29.4623   22.5050 C   0  0  0  0  0  0
  -18.0241  -28.1336   22.8497 C   0  0  0  0  0  0
  -24.1482  -36.7328   23.2645 C   0  0  0  0  0  0
  -25.9259  -30.8337   21.3662 C   0  0  0  0  0  0
  -26.0012  -29.4677   20.7164 C   0  0  0  0  0  0
  -27.1920  -28.7071   20.7121 C   0  0  0  0  0  0
  -26.0520  -26.9520   19.4726 C   0  0  0  0  0  0
  -24.8640  -27.7029   19.4931 C   0  0  0  0  0  0
  -23.6021  -29.8272   20.1683 C   0  0  0  0  0  0
  -25.4120  -36.3155   24.0350 C   0  0  1  0  0  0
  -20.5838  -28.3587   23.1384 C   0  0  2  0  0  0
  -20.6761  -26.9325   22.5462 C   0  0  0  0  0  0
  -19.5739  -26.6345   21.5242 C   0  0  0  0  0  0
  -18.1895  -26.7885   22.1628 C   0  0  0  0  0  0
  -19.1500  -28.8788   23.2917 C   0  0  0  0  0  0
  -18.9436  -30.1416   23.8880 C   0  0  0  0  0  0
  -17.6438  -30.6547   24.0547 C   0  0  0  0  0  0
  -25.9045  -34.9505   23.5142 C   0  0  0  0  0  0
  -16.5310  -29.9064   23.6333 C   0  0  0  0  0  0
  -16.7232  -28.6485   23.0340 C   0  0  0  0  0  0
  -26.4425  -31.6631   25.0702 C   0  0  0  0  0  0
  -25.3752  -31.3766   26.1524 C   0  0  0  0  0  0
  -27.0210  -30.3066   24.6041 C   0  0  0  0  0  0
  -27.5988  -32.4369   25.7445 C   0  0  0  0  0  0
  -27.5599  -37.1821   24.8475 C   0  0  0  0  0  0
  -21.4135  -29.2981   22.3823 N   0  0  0  0  0  0
  -26.4314  -37.3831   23.9414 N   0  0  0  0  0  0
  -24.6624  -31.0821   22.1020 N   0  0  0  0  0  0
  -23.4217  -28.8139   23.3025 O   0  0  0  0  0  0
  -28.4240  -26.7379   20.0964 O   0  0  0  0  0  0
  -26.5614  -34.8954   22.4711 O   0  0  0  0  0  0
  -23.5327  -32.1422   23.7583 O   0  0  0  0  0  0
  -29.2601  -18.6465   24.3624 C   0  0  0  0  0  0
  -30.0310  -19.1709   21.7364 C   0  0  0  0  0  0
  -29.7414  -17.5777   23.5691 C   0  0  0  0  0  0
  -30.0931  -17.8419   22.2194 C   0  0  0  0  0  0
  -29.6589  -20.2522   22.5668 C   0  0  0  0  0  0
  -29.2204  -19.9817   23.8860 C   0  0  0  0  0  0
  -28.8988  -15.1741   24.2753 C   0  0  0  0  0  0
  -29.4138  -15.8081   25.5433 C   0  0  0  0  0  0
  -29.9815  -16.2263   24.1991 C   0  0  0  0  0  0
  -31.3271  -21.8598   21.5445 C   0  0  0  0  0  0
  -28.6558  -20.8392   26.0719 C   0  0  0  0  0  0
  -30.7125  -16.7935   21.2871 C   0  0  0  0  0  0
  -28.0860  -24.2782   19.8404 C   0  0  0  0  0  0
  -28.8247  -22.2496   21.1281 C   0  0  0  0  0  0
  -28.5881  -25.6091   19.2306 C   0  0  0  0  0  0
  -29.8964  -21.7042   22.1052 C   0  0  1  0  0  0
  -30.1406  -15.4411   21.2671 N   0  0  0  0  0  0
  -29.0521  -23.6826   20.7997 N   0  3  0  0  0  0
  -28.8186  -21.0450   24.6714 O   0  0  0  0  0  0
  -31.4608  -12.3776   19.1322 H   0  0  0  0  0  0
  -30.2940  -11.2883   19.8199 H   0  0  0  0  0  0
  -29.7369  -11.8083   17.4198 H   0  0  0  0  0  0
  -29.6757  -13.5133   17.7899 H   0  0  0  0  0  0
  -27.8075  -11.3338   18.7839 H   0  0  0  0  0  0
  -27.3757  -12.6937   17.7813 H   0  0  0  0  0  0
  -27.7084  -14.2681   19.5934 H   0  0  0  0  0  0
  -28.6687  -11.9595   21.3481 H   0  0  0  0  0  0
  -28.4618  -13.6027   21.8728 H   0  0  0  0  0  0
  -25.2777   -9.5677   22.4769 H   0  0  0  0  0  0
  -24.0002   -7.4640   22.7475 H   0  0  0  0  0  0
  -21.0850   -8.8816   19.8957 H   0  0  0  0  0  0
  -22.3737  -10.9700   19.6173 H   0  0  0  0  0  0
  -21.1998   -7.6156   23.9736 H   0  0  0  0  0  0
  -21.1484   -6.0526   25.9090 H   0  0  0  0  0  0
  -22.0591   -2.7624   23.2841 H   0  0  0  0  0  0
  -22.4061  -11.9902   22.4776 H   0  0  0  0  0  0
  -21.1109  -13.1316   22.2570 H   0  0  0  0  0  0
  -24.6717  -15.8520   20.5323 H   0  0  0  0  0  0
  -26.2926  -15.6312   20.1146 H   0  0  0  0  0  0
  -26.7043  -32.5557   23.1139 H   0  0  0  0  0  0
  -25.0073  -33.9772   25.0502 H   0  0  0  0  0  0
  -22.6784  -31.3039   21.4248 H   0  0  0  0  0  0
  -23.3775  -35.9630   23.3314 H   0  0  0  0  0  0
  -24.3532  -36.8946   22.2053 H   0  0  0  0  0  0
  -23.7194  -37.6525   23.6631 H   0  0  0  0  0  0
  -26.0399  -31.6000   20.5965 H   0  0  0  0  0  0
  -26.8136  -30.8862   21.9844 H   0  0  0  0  0  0
  -28.0844  -29.0904   21.1868 H   0  0  0  0  0  0
  -26.0138  -25.9920   18.9794 H   0  0  0  0  0  0
  -23.9743  -27.3045   19.0240 H   0  0  0  0  0  0
  -23.7026  -30.6043   19.4096 H   0  0  0  0  0  0
  -22.7258  -29.2448   19.8796 H   0  0  0  0  0  0
  -25.1278  -36.2035   25.0846 H   0  0  0  0  0  0
  -20.9874  -28.3116   24.1534 H   0  0  0  0  0  0
  -20.5721  -26.2141   23.3622 H   0  0  0  0  0  0
  -21.6629  -26.7437   22.1205 H   0  0  0  0  0  0
  -19.6919  -25.6279   21.1224 H   0  0  0  0  0  0
  -19.6726  -27.3215   20.6824 H   0  0  0  0  0  0
  -17.4210  -26.6666   21.3970 H   0  0  0  0  0  0
  -18.0227  -25.9998   22.9002 H   0  0  0  0  0  0
  -19.7914  -30.7235   24.2227 H   0  0  0  0  0  0
  -17.4995  -31.6223   24.5158 H   0  0  0  0  0  0
  -15.5313  -30.2961   23.7676 H   0  0  0  0  0  0
  -15.8624  -28.0816   22.7058 H   0  0  0  0  0  0
  -24.5787  -30.7238   25.7930 H   0  0  0  0  0  0
  -24.9105  -32.2955   26.5111 H   0  0  0  0  0  0
  -25.8144  -30.8838   27.0205 H   0  0  0  0  0  0
  -26.2694  -29.6855   24.1139 H   0  0  0  0  0  0
  -27.4054  -29.7260   25.4439 H   0  0  0  0  0  0
  -27.8512  -30.4395   23.9088 H   0  0  0  0  0  0
  -27.2568  -33.3691   26.1964 H   0  0  0  0  0  0
  -28.3789  -32.6931   25.0254 H   0  0  0  0  0  0
  -28.0628  -31.8553   26.5420 H   0  0  0  0  0  0
  -28.2657  -38.0079   24.7535 H   0  0  0  0  0  0
  -28.1057  -36.2631   24.6293 H   0  0  0  0  0  0
  -27.2306  -37.1484   25.8871 H   0  0  0  0  0  0
  -20.9284  -29.8736   21.7079 H   0  0  0  0  0  0
  -26.0237  -38.2929   24.1397 H   0  0  0  0  0  0
  -28.9778  -18.4417   25.3811 H   0  0  0  0  0  0
  -30.3693  -19.3729   20.7294 H   0  0  0  0  0  0
  -27.8946  -15.4478   23.9555 H   0  0  0  0  0  0
  -29.1769  -14.1350   24.1128 H   0  0  0  0  0  0
  -30.0424  -15.1878   26.1800 H   0  0  0  0  0  0
  -28.7116  -16.4437   26.0754 H   0  0  0  0  0  0
  -30.9967  -15.8893   23.9916 H   0  0  0  0  0  0
  -32.0515  -21.3521   22.1829 H   0  0  0  0  0  0
  -31.6354  -22.9043   21.4988 H   0  0  0  0  0  0
  -31.4233  -21.4405   20.5420 H   0  0  0  0  0  0
  -28.4261  -21.7891   26.5553 H   0  0  0  0  0  0
  -29.5702  -20.4547   26.5271 H   0  0  0  0  0  0
  -27.8336  -20.1578   26.2924 H   0  0  0  0  0  0
  -31.7722  -16.7350   21.5439 H   0  0  0  0  0  0
  -30.6790  -17.1704   20.2625 H   0  0  0  0  0  0
  -27.1125  -24.3999   20.3182 H   0  0  0  0  0  0
  -27.9400  -23.5776   19.0176 H   0  0  0  0  0  0
  -27.8314  -22.1358   21.5629 H   0  0  0  0  0  0
  -28.8270  -21.6620   20.2071 H   0  0  0  0  0  0
  -29.6471  -25.5236   18.9793 H   0  0  0  0  0  0
  -28.0991  -25.7984   18.2754 H   0  0  0  0  0  0
  -29.8607  -22.3366   22.9915 H   0  0  0  0  0  0
  -29.2289  -15.2929   21.6721 H   0  0  0  0  0  0
  -29.0438  -24.2272   21.6479 H   0  0  0  0  0  0
  -29.9785  -23.7570   20.4085 H   0  0  0  0  0  0
  1 25  1  0  0  0
  1 30  2  0  0  0
  1 87  1  0  0  0
  2  3  1  0  0  0
  2 25  1  0  0  0
  2 90  1  0  0  0
  2 91  1  0  0  0
  3  4  1  0  0  0
  3 92  1  0  0  0
  3 93  1  0  0  0
  4  5  1  0  0  0
  4 94  1  0  0  0
  4 95  1  0  0  0
  5  6  1  0  0  0
  5 26  1  0  0  0
  5 96  1  0  0  0
  6 25  1  0  0  0
  6 97  1  0  0  0
  6 98  1  0  0  0
  7  8  2  0  0  0
  7 26  1  0  0  0
  7 29  1  0  0  0
  8  9  1  0  0  0
  8 22  1  0  0  0
  9 10  1  0  0  0
  9 27  2  0  0  0
 10 11  2  0  0  0
 10 15  1  0  0  0
 11 12  1  0  0  0
 11 99  1  0  0  0
 12 13  2  0  0  0
 12100  1  0  0  0
 13 14  1  0  0  0
 13 31  1  0  0  0
 14 15  2  0  0  0
 14101  1  0  0  0
 15102  1  0  0  0
 16 17  2  0  0  0
 16 21  1  0  0  0
 16 31  1  0  0  0
 17 18  1  0  0  0
 17103  1  0  0  0
 18 19  2  0  0  0
 18104  1  0  0  0
 19 20  1  0  0  0
 19 24  1  0  0  0
 20 21  2  0  0  0
 20105  1  0  0  0
 21 23  1  0  0  0
 22 28  1  0  0  0
 22 32  2  0  0  0
 26 27  1  0  0  0
 28106  1  0  0  0
 28107  1  0  0  0
 29108  1  0  0  0
 29109  1  0  0  0
 33 34  1  0  0  0
 33 66  1  0  0  0
 33 70  2  0  0  0
 34 36  1  0  0  0
 34 59  1  0  0  0
 34110  1  0  0  0
 35 44  2  0  0  0
 35 45  1  0  0  0
 35 68  1  0  0  0
 36 56  1  0  0  0
 36111  1  0  0  0
 37 39  1  0  0  0
 37 47  1  0  0  0
 37 66  1  0  0  0
 37112  1  0  0  0
 38 43  2  0  0  0
 38 46  1  0  0  0
 38 47  1  0  0  0
 39 64  1  0  0  0
 39 67  2  0  0  0
 40 52  1  0  0  0
 40 53  2  0  0  0
 40 58  1  0  0  0
 41113  1  0  0  0
 41114  1  0  0  0
 41115  1  0  0  0
 41 48  1  0  0  0
 42 43  1  0  0  0
 42 66  1  0  0  0
 42116  1  0  0  0
 42117  1  0  0  0
 43 44  1  0  0  0
 44118  1  0  0  0
 45 46  2  0  0  0
 45119  1  0  0  0
 46120  1  0  0  0
 47121  1  0  0  0
 47122  1  0  0  0
 48 56  1  0  0  0
 48 65  1  0  0  0
 48123  1  0  0  0
 49 50  1  0  0  0
 49 53  1  0  0  0
 49 64  1  0  0  0
 49124  1  0  0  0
 50 51  1  0  0  0
 50125  1  0  0  0
 50126  1  0  0  0
 51 52  1  0  0  0
 51127  1  0  0  0
 51128  1  0  0  0
 52129  1  0  0  0
 52130  1  0  0  0
 53 54  1  0  0  0
 54 55  2  0  0  0
 54131  1  0  0  0
 55 57  1  0  0  0
 55132  1  0  0  0
 56 69  2  0  0  0
 57 58  2  0  0  0
 57133  1  0  0  0
 58134  1  0  0  0
 59 60  1  0  0  0
 59 61  1  0  0  0
 59 62  1  0  0  0
 60135  1  0  0  0
 60136  1  0  0  0
 60137  1  0  0  0
 61138  1  0  0  0
 61139  1  0  0  0
 61140  1  0  0  0
 62141  1  0  0  0
 62142  1  0  0  0
 62143  1  0  0  0
 63 65  1  0  0  0
 63144  1  0  0  0
 63145  1  0  0  0
 63146  1  0  0  0
 64147  1  0  0  0
 65148  1  0  0  0
 68 85  1  0  0  0
 71 73  2  0  0  0
 71 76  1  0  0  0
 71149  1  0  0  0
 72 74  2  0  0  0
 72 75  1  0  0  0
 72150  1  0  0  0
 73 74  1  0  0  0
 73 79  1  0  0  0
 74 82  1  0  0  0
 75 76  2  0  0  0
 75 86  1  0  0  0
 76 89  1  0  0  0
 77 78  1  0  0  0
 77 79  1  0  0  0
 77151  1  0  0  0
 77152  1  0  0  0
 78 79  1  0  0  0
 78153  1  0  0  0
 78154  1  0  0  0
 79155  1  0  0  0
 80156  1  0  0  0
 80157  1  0  0  0
 80158  1  0  0  0
 80 86  1  0  0  0
 81 89  1  0  0  0
 81159  1  0  0  0
 81160  1  0  0  0
 81161  1  0  0  0
 82 87  1  0  0  0
 82162  1  0  0  0
 82163  1  0  0  0
 83 85  1  0  0  0
 83 88  1  0  0  0
 83164  1  0  0  0
 83165  1  0  0  0
 84 86  1  0  0  0
 84 88  1  0  0  0
 84166  1  0  0  0
 84167  1  0  0  0
 85168  1  0  0  0
 85169  1  0  0  0
 86170  1  0  0  0
 87171  1  0  0  0
 88172  1  0  0  0
 88173  1  0  0  0
M  CHG  1  88   1
M  ISO  4   1 100  68 101  85 101  87 100
M  END
> <chiral flag>
0

> <version>
0

> <s_m_source_file>
/data/baiqing/PycharmProjects/Reinvent-master-3.2/result/LINK_invent/BTK/process_docking_weight1_custom_sum_contain_oxygen_bond_distance_aromatic_linkinvent_7_9_3/rearranged_h_0166.sdf

> <i_m_source_file_index>
80

> <r_mmod_Potential_Energy-OPLS-2005>
-219.034576416016

> <r_mmod_Stretch_Energy-OPLS-2005>
39.7342414855957

> <r_mmod_Bend_Energy-OPLS-2005>
113.93733215332

> <r_mmod_Torsional_Energy-OPLS-2005>
245.049011230469

> <r_mmod_Improper_Torsional_Energy-OPLS-2005>
4.39537048339844

> <r_mmod_Van_der_Waal_Energy-OPLS-2005>
164.222579956055

> <r_mmod_Electrostatic_Energy-OPLS-2005>
-367.538238525391

> <r_mmod_Solvation_Energy-OPLS-2005>
-429.636108398438

> <b_mmod_Minimization_Converged-OPLS-2005>
0

> <r_mmod_RMS_Derivative-OPLS-2005>
3.53651070594788

$$$$
80
                    3D
 Structure written by MMmdl.
173183  0  0  1  0            999 V2000
  -30.7360  -14.4260   20.5700 C   0  0  0  0  0  0
  -30.4088  -12.2755   19.4264 C   0  0  0  0  0  0
  -29.4892  -12.4985   18.2093 C   0  0  0  0  0  0
  -28.0110  -12.3685   18.6207 C   0  0  0  0  0  0
  -27.6625  -13.2089   19.8789 C   0  0  2  0  0  0
  -28.7029  -12.9925   21.0028 C   0  0  0  0  0  0
  -25.2578  -13.8176   20.5687 C   0  0  0  0  0  0
  -24.1833  -13.0444   20.9172 C   0  0  0  0  0  0
  -24.6397  -11.6914   20.8749 C   0  0  0  0  0  0
  -23.9063  -10.4296   21.0414 C   0  0  0  0  0  0
  -24.3616   -9.4211   21.9192 C   0  0  0  0  0  0
  -23.6292   -8.2246   22.0763 C   0  0  0  0  0  0
  -22.4279   -8.0283   21.3546 C   0  0  0  0  0  0
  -21.9913   -9.0258   20.4646 C   0  0  0  0  0  0
  -22.7237  -10.2138   20.3059 C   0  0  0  0  0  0
  -21.6851   -6.0733   22.5277 C   0  0  0  0  0  0
  -21.4010   -6.5639   23.8208 C   0  0  0  0  0  0
  -21.3661   -5.6795   24.9176 C   0  0  0  0  0  0
  -21.6049   -4.3060   24.7224 C   0  0  0  0  0  0
  -21.8819   -3.8140   23.4350 C   0  0  0  0  0  0
  -21.9192   -4.6959   22.3405 C   0  0  0  0  0  0
  -22.7851  -13.5234   21.1837 C   0  0  0  0  0  0
  -22.1663   -4.2145   21.0985 F   0  0  0  0  0  0
  -21.5630   -3.4545   25.7737 F   0  0  0  0  0  0
  -30.0389  -13.2668   20.4488 N   0  0  0  0  0  0
  -26.3029  -12.9357   20.3396 N   0  0  0  0  0  0
  -25.9325  -11.6513   20.5786 N   0  0  0  0  0  0
  -22.0500  -12.8216   22.0391 N   0  0  0  0  0  0
  -25.4290  -15.1895   20.4101 N   0  0  0  0  0  0
  -31.8554  -14.5857   20.0764 O   0  0  0  0  0  0
  -21.6641   -6.8883   21.4243 O   0  0  0  0  0  0
  -22.3533  -14.5542   20.6690 O   0  0  0  0  0  0
  -24.6128  -31.8691   23.2109 C   0  0  0  0  0  0
  -25.9029  -32.4835   23.8402 C   0  0  1  0  0  0
  -27.2384  -27.4428   20.0815 C   0  0  0  0  0  0
  -25.5880  -33.8634   24.2326 N   0  0  0  0  0  0
  -23.4007  -30.4936   21.5501 C   0  0  2  0  0  0
  -24.8462  -28.9588   20.1162 C   0  0  0  0  0  0
  -22.7390  -29.4683   22.4984 C   0  0  0  0  0  0
  -18.0273  -28.1376   22.8504 C   0  0  0  0  0  0
  -24.1487  -36.7333   23.2636 C   0  0  0  0  0  0
  -25.9291  -30.8332   21.3658 C   0  0  0  0  0  0
  -26.0042  -29.4665   20.7160 C   0  0  0  0  0  0
  -27.1966  -28.7096   20.7075 C   0  0  0  0  0  0
  -26.0565  -26.9465   19.4813 C   0  0  0  0  0  0
  -24.8664  -27.6963   19.5006 C   0  0  0  0  0  0
  -23.6086  -29.8249   20.1648 C   0  0  0  0  0  0
  -25.4107  -36.3128   24.0329 C   0  0  1  0  0  0
  -20.5864  -28.3674   23.1313 C   0  0  2  0  0  0
  -20.6759  -26.9410   22.5417 C   0  0  0  0  0  0
  -19.5743  -26.6394   21.5212 C   0  0  0  0  0  0
  -18.1925  -26.7929   22.1624 C   0  0  0  0  0  0
  -19.1522  -28.8837   23.2910 C   0  0  0  0  0  0
  -18.9448  -30.1439   23.8936 C   0  0  0  0  0  0
  -17.6452  -30.6590   24.0571 C   0  0  0  0  0  0
  -25.9027  -34.9486   23.5129 C   0  0  0  0  0  0
  -16.5344  -29.9097   23.6320 C   0  0  0  0  0  0
  -16.7260  -28.6498   23.0365 C   0  0  0  0  0  0
  -26.4460  -31.6617   25.0735 C   0  0  0  0  0  0
  -25.3716  -31.3708   26.1473 C   0  0  0  0  0  0
  -27.0297  -30.3060   24.6126 C   0  0  0  0  0  0
  -27.6050  -32.4327   25.7488 C   0  0  0  0  0  0
  -27.5587  -37.1812   24.8454 C   0  0  0  0  0  0
  -21.4121  -29.3047   22.3714 N   0  0  0  0  0  0
  -26.4299  -37.3806   23.9400 N   0  0  0  0  0  0
  -24.6659  -31.0795   22.1011 N   0  0  0  0  0  0
  -23.4161  -28.8220   23.3023 O   0  0  0  0  0  0
  -28.4313  -26.7458   20.0940 O   0  0  0  0  0  0
  -26.5608  -34.8935   22.4704 O   0  0  0  0  0  0
  -23.5318  -32.1450   23.7502 O   0  0  0  0  0  0
  -29.1855  -19.9423   23.6062 C   0  0  0  0  0  0
  -29.5134  -17.5772   23.1137 C   0  0  0  0  0  0
  -30.0312  -19.2648   21.4334 C   0  0  0  0  0  0
  -29.1074  -18.5902   24.0048 C   0  0  0  0  0  0
  -29.6528  -20.2998   22.3217 C   0  0  0  0  0  0
  -29.9778  -17.9088   21.8255 C   0  0  0  0  0  0
  -27.4516  -17.2961   25.5516 C   0  0  0  0  0  0
  -27.3286  -18.7553   25.9248 C   0  0  0  0  0  0
  -30.8697  -22.1568   20.9421 C   0  0  0  0  0  0
  -30.4896  -23.5768   20.5049 C   0  0  0  0  0  0
  -28.6310  -18.2233   25.3747 C   0  0  0  0  0  0
  -29.7918  -21.7888   21.9620 C   0  0  1  0  0  0
  -28.5457  -22.4785   21.3768 C   0  0  1  0  0  0
  -27.4304  -22.7038   22.4119 C   0  0  0  0  0  0
  -30.5050  -16.8513   20.8642 C   0  0  0  0  0  0
  -28.2190  -24.2879   19.6779 C   0  0  0  0  0  0
  -28.6462  -25.6847   19.1555 C   0  0  0  0  0  0
  -30.0733  -15.4677   21.0942 N   0  0  0  0  0  0
  -29.0440  -23.7625   20.8051 N   0  3  2  0  0  0
  -31.4559  -12.3452   19.1270 H   0  0  0  0  0  0
  -30.2806  -11.2666   19.8226 H   0  0  0  0  0  0
  -29.7227  -11.7790   17.4230 H   0  0  0  0  0  0
  -29.6679  -13.4874   17.7835 H   0  0  0  0  0  0
  -27.8146  -11.3135   18.8137 H   0  0  0  0  0  0
  -27.3625  -12.6493   17.7910 H   0  0  0  0  0  0
  -27.7079  -14.2564   19.5810 H   0  0  0  0  0  0
  -28.6653  -11.9630   21.3631 H   0  0  0  0  0  0
  -28.4763  -13.6147   21.8698 H   0  0  0  0  0  0
  -25.2774   -9.5681   22.4753 H   0  0  0  0  0  0
  -24.0000   -7.4638   22.7486 H   0  0  0  0  0  0
  -21.0840   -8.8777   19.8949 H   0  0  0  0  0  0
  -22.3705  -10.9678   19.6160 H   0  0  0  0  0  0
  -21.2003   -7.6147   23.9704 H   0  0  0  0  0  0
  -21.1485   -6.0532   25.9077 H   0  0  0  0  0  0
  -22.0597   -2.7599   23.2849 H   0  0  0  0  0  0
  -22.4123  -11.9874   22.4769 H   0  0  0  0  0  0
  -21.1117  -13.1227   22.2615 H   0  0  0  0  0  0
  -24.6636  -15.8454   20.5223 H   0  0  0  0  0  0
  -26.2861  -15.6310   20.1015 H   0  0  0  0  0  0
  -26.7111  -32.5551   23.1177 H   0  0  0  0  0  0
  -24.9983  -33.9805   25.0439 H   0  0  0  0  0  0
  -22.6911  -31.3116   21.4101 H   0  0  0  0  0  0
  -23.3752  -35.9664   23.3301 H   0  0  0  0  0  0
  -24.3585  -36.8953   22.2054 H   0  0  0  0  0  0
  -23.7234  -37.6529   23.6662 H   0  0  0  0  0  0
  -26.0407  -31.5977   20.5953 H   0  0  0  0  0  0
  -26.8169  -30.8891   21.9840 H   0  0  0  0  0  0
  -28.0921  -29.0991   21.1720 H   0  0  0  0  0  0
  -26.0244  -25.9846   18.9932 H   0  0  0  0  0  0
  -23.9737  -27.2994   19.0366 H   0  0  0  0  0  0
  -23.7137  -30.5981   19.4024 H   0  0  0  0  0  0
  -22.7333  -29.2410   19.8734 H   0  0  0  0  0  0
  -25.1286  -36.2000   25.0818 H   0  0  0  0  0  0
  -20.9965  -28.3256   24.1429 H   0  0  0  0  0  0
  -20.5662  -26.2288   23.3607 H   0  0  0  0  0  0
  -21.6631  -26.7456   22.1216 H   0  0  0  0  0  0
  -19.6905  -25.6308   21.1238 H   0  0  0  0  0  0
  -19.6680  -27.3202   20.6743 H   0  0  0  0  0  0
  -17.4188  -26.6690   21.4029 H   0  0  0  0  0  0
  -18.0320  -26.0059   22.9004 H   0  0  0  0  0  0
  -19.7922  -30.7233   24.2345 H   0  0  0  0  0  0
  -17.5010  -31.6281   24.5154 H   0  0  0  0  0  0
  -15.5345  -30.3014   23.7617 H   0  0  0  0  0  0
  -15.8658  -28.0815   22.7091 H   0  0  0  0  0  0
  -24.5888  -30.7074   25.7779 H   0  0  0  0  0  0
  -24.8911  -32.2855   26.4951 H   0  0  0  0  0  0
  -25.8045  -30.8836   27.0220 H   0  0  0  0  0  0
  -26.2851  -29.6813   24.1180 H   0  0  0  0  0  0
  -27.4054  -29.7307   25.4600 H   0  0  0  0  0  0
  -27.8693  -30.4379   23.9297 H   0  0  0  0  0  0
  -27.2695  -33.3615   26.2115 H   0  0  0  0  0  0
  -28.3829  -32.6896   25.0286 H   0  0  0  0  0  0
  -28.0764  -31.8421   26.5355 H   0  0  0  0  0  0
  -28.2589  -38.0129   24.7537 H   0  0  0  0  0  0
  -28.1098  -36.2657   24.6239 H   0  0  0  0  0  0
  -27.2309  -37.1418   25.8858 H   0  0  0  0  0  0
  -20.9268  -29.8772   21.6947 H   0  0  0  0  0  0
  -26.0194  -38.2879   24.1427 H   0  0  0  0  0  0
  -28.8988  -20.7156   24.3065 H   0  0  0  0  0  0
  -29.4871  -16.5467   23.4386 H   0  0  0  0  0  0
  -30.4033  -19.4905   20.4459 H   0  0  0  0  0  0
  -26.9227  -16.9635   24.6598 H   0  0  0  0  0  0
  -27.4883  -16.5787   26.3681 H   0  0  0  0  0  0
  -27.2829  -18.9877   26.9867 H   0  0  0  0  0  0
  -26.7227  -19.3885   25.2795 H   0  0  0  0  0  0
  -31.8797  -22.0896   21.3476 H   0  0  0  0  0  0
  -30.8208  -21.5224   20.0587 H   0  0  0  0  0  0
  -30.7277  -23.7155   19.4494 H   0  0  0  0  0  0
  -31.0597  -24.3161   21.0683 H   0  0  0  0  0  0
  -29.4671  -18.1143   26.0645 H   0  0  0  0  0  0
  -30.0536  -22.3060   22.8876 H   0  0  0  0  0  0
  -28.1651  -21.8595   20.5622 H   0  0  0  0  0  0
  -27.7832  -23.2863   23.2638 H   0  0  0  0  0  0
  -27.0601  -21.7523   22.7942 H   0  0  0  0  0  0
  -26.5776  -23.2264   21.9796 H   0  0  0  0  0  0
  -31.5942  -16.9202   20.9046 H   0  0  0  0  0  0
  -30.2211  -17.1257   19.8466 H   0  0  0  0  0  0
  -28.2707  -23.5778   18.8515 H   0  0  0  0  0  0
  -27.1744  -24.3160   19.9840 H   0  0  0  0  0  0
  -28.1471  -25.9020   18.2100 H   0  0  0  0  0  0
  -29.7050  -25.6852   18.9002 H   0  0  0  0  0  0
  -29.1452  -15.3100   21.4554 H   0  0  0  0  0  0
  -29.0078  -24.4483   21.5467 H   0  0  0  0  0  0
  1 25  1  0  0  0
  1 30  2  0  0  0
  1 88  1  0  0  0
  2  3  1  0  0  0
  2 25  1  0  0  0
  2 90  1  0  0  0
  2 91  1  0  0  0
  3  4  1  0  0  0
  3 92  1  0  0  0
  3 93  1  0  0  0
  4  5  1  0  0  0
  4 94  1  0  0  0
  4 95  1  0  0  0
  5  6  1  0  0  0
  5 26  1  0  0  0
  5 96  1  0  0  0
  6 25  1  0  0  0
  6 97  1  0  0  0
  6 98  1  0  0  0
  7  8  2  0  0  0
  7 26  1  0  0  0
  7 29  1  0  0  0
  8  9  1  0  0  0
  8 22  1  0  0  0
  9 10  1  0  0  0
  9 27  2  0  0  0
 10 11  2  0  0  0
 10 15  1  0  0  0
 11 12  1  0  0  0
 11 99  1  0  0  0
 12 13  2  0  0  0
 12100  1  0  0  0
 13 14  1  0  0  0
 13 31  1  0  0  0
 14 15  2  0  0  0
 14101  1  0  0  0
 15102  1  0  0  0
 16 17  2  0  0  0
 16 21  1  0  0  0
 16 31  1  0  0  0
 17 18  1  0  0  0
 17103  1  0  0  0
 18 19  2  0  0  0
 18104  1  0  0  0
 19 20  1  0  0  0
 19 24  1  0  0  0
 20 21  2  0  0  0
 20105  1  0  0  0
 21 23  1  0  0  0
 22 28  1  0  0  0
 22 32  2  0  0  0
 26 27  1  0  0  0
 28106  1  0  0  0
 28107  1  0  0  0
 29108  1  0  0  0
 29109  1  0  0  0
 33 34  1  0  0  0
 33 66  1  0  0  0
 33 70  2  0  0  0
 34 36  1  0  0  0
 34 59  1  0  0  0
 34110  1  0  0  0
 35 44  2  0  0  0
 35 45  1  0  0  0
 35 68  1  0  0  0
 36 56  1  0  0  0
 36111  1  0  0  0
 37 39  1  0  0  0
 37 47  1  0  0  0
 37 66  1  0  0  0
 37112  1  0  0  0
 38 43  2  0  0  0
 38 46  1  0  0  0
 38 47  1  0  0  0
 39 64  1  0  0  0
 39 67  2  0  0  0
 40 52  1  0  0  0
 40 53  2  0  0  0
 40 58  1  0  0  0
 41113  1  0  0  0
 41114  1  0  0  0
 41115  1  0  0  0
 41 48  1  0  0  0
 42 43  1  0  0  0
 42 66  1  0  0  0
 42116  1  0  0  0
 42117  1  0  0  0
 43 44  1  0  0  0
 44118  1  0  0  0
 45 46  2  0  0  0
 45119  1  0  0  0
 46120  1  0  0  0
 47121  1  0  0  0
 47122  1  0  0  0
 48 56  1  0  0  0
 48 65  1  0  0  0
 48123  1  0  0  0
 49 50  1  0  0  0
 49 53  1  0  0  0
 49 64  1  0  0  0
 49124  1  0  0  0
 50 51  1  0  0  0
 50125  1  0  0  0
 50126  1  0  0  0
 51 52  1  0  0  0
 51127  1  0  0  0
 51128  1  0  0  0
 52129  1  0  0  0
 52130  1  0  0  0
 53 54  1  0  0  0
 54 55  2  0  0  0
 54131  1  0  0  0
 55 57  1  0  0  0
 55132  1  0  0  0
 56 69  2  0  0  0
 57 58  2  0  0  0
 57133  1  0  0  0
 58134  1  0  0  0
 59 60  1  0  0  0
 59 61  1  0  0  0
 59 62  1  0  0  0
 60135  1  0  0  0
 60136  1  0  0  0
 60137  1  0  0  0
 61138  1  0  0  0
 61139  1  0  0  0
 61140  1  0  0  0
 62141  1  0  0  0
 62142  1  0  0  0
 62143  1  0  0  0
 63 65  1  0  0  0
 63144  1  0  0  0
 63145  1  0  0  0
 63146  1  0  0  0
 64147  1  0  0  0
 65148  1  0  0  0
 68 87  1  0  0  0
 71 74  2  0  0  0
 71 75  1  0  0  0
 71149  1  0  0  0
 72 74  1  0  0  0
 72 76  2  0  0  0
 72150  1  0  0  0
 73 75  2  0  0  0
 73 76  1  0  0  0
 73151  1  0  0  0
 74 81  1  0  0  0
 75 82  1  0  0  0
 76 85  1  0  0  0
 77 78  1  0  0  0
 77 81  1  0  0  0
 77152  1  0  0  0
 77153  1  0  0  0
 78 81  1  0  0  0
 78154  1  0  0  0
 78155  1  0  0  0
 79 80  1  0  0  0
 79 82  1  0  0  0
 79156  1  0  0  0
 79157  1  0  0  0
 80 89  1  0  0  0
 80158  1  0  0  0
 80159  1  0  0  0
 81160  1  0  0  0
 82 83  1  0  0  0
 82161  1  0  0  0
 83 84  1  0  0  0
 83 89  1  0  0  0
 83162  1  0  0  0
 84163  1  0  0  0
 84164  1  0  0  0
 84165  1  0  0  0
 85 88  1  0  0  0
 85166  1  0  0  0
 85167  1  0  0  0
 86 87  1  0  0  0
 86168  1  0  0  0
 86169  1  0  0  0
 86 89  1  0  0  0
 87170  1  0  0  0
 87171  1  0  0  0
 88172  1  0  0  0
 89173  1  0  0  0
M  CHG  1  89   1
M  ISO  4   1 100  68 101  87 101  88 100
M  END
> <chiral flag>
0

> <version>
0

> <s_m_source_file>
/data/baiqing/PycharmProjects/Reinvent-master-3.2/result/LINK_invent/BTK/process_docking_weight1_custom_sum_contain_oxygen_bond_distance_aromatic_linkinvent_7_9_3/rearranged_h_0166.sdf

> <i_m_source_file_index>
81

> <r_mmod_Potential_Energy-OPLS-2005>
-107.158843994141

> <r_mmod_Stretch_Energy-OPLS-2005>
36.3362464904785

> <r_mmod_Bend_Energy-OPLS-2005>
129.206817626953

> <r_mmod_Torsional_Energy-OPLS-2005>
293.559631347656

> <r_mmod_Improper_Torsional_Energy-OPLS-2005>
4.81106996536255

> <r_mmod_Van_der_Waal_Energy-OPLS-2005>
150.988418579102

> <r_mmod_Electrostatic_Energy-OPLS-2005>
-320.684387207031

> <r_mmod_Solvation_Energy-OPLS-2005>
-412.738342285156

> <b_mmod_Minimization_Converged-OPLS-2005>
0

> <r_mmod_RMS_Derivative-OPLS-2005>
1.33996152877808

$$$$
81
                    3D
 Structure written by MMmdl.
179189  0  0  1  0            999 V2000
  -30.0543  -15.2832   20.6130 C   0  0  0  0  0  0
  -30.3791  -12.8757   19.5926 C   0  0  0  0  0  0
  -29.5186  -12.6071   18.3282 C   0  0  0  0  0  0
  -28.0619  -12.2749   18.7100 C   0  0  0  0  0  0
  -27.5480  -13.2149   19.8255 C   0  0  2  0  0  0
  -28.5128  -13.3065   21.0089 C   0  0  0  0  0  0
  -25.1656  -13.7748   20.5198 C   0  0  0  0  0  0
  -24.1266  -13.0029   20.9211 C   0  0  0  0  0  0
  -24.6084  -11.6629   20.8841 C   0  0  0  0  0  0
  -23.8893  -10.4067   21.0493 C   0  0  0  0  0  0
  -24.3518   -9.4034   21.9251 C   0  0  0  0  0  0
  -23.6213   -8.2080   22.0777 C   0  0  0  0  0  0
  -22.4202   -8.0152   21.3544 C   0  0  0  0  0  0
  -21.9806   -9.0100   20.4641 C   0  0  0  0  0  0
  -22.7113  -10.1967   20.3081 C   0  0  0  0  0  0
  -21.6806   -6.0672   22.5291 C   0  0  0  0  0  0
  -21.3976   -6.5599   23.8217 C   0  0  0  0  0  0
  -21.3644   -5.6764   24.9185 C   0  0  0  0  0  0
  -21.6046   -4.3030   24.7238 C   0  0  0  0  0  0
  -21.8830   -3.8110   23.4364 C   0  0  0  0  0  0
  -21.9183   -4.6915   22.3415 C   0  0  0  0  0  0
  -22.7361  -13.4890   21.1952 C   0  0  0  0  0  0
  -22.1663   -4.2110   21.0991 F   0  0  0  0  0  0
  -21.5634   -3.4518   25.7753 F   0  0  0  0  0  0
  -29.6948  -13.9236   20.4509 N   0  0  0  0  0  0
  -26.2204  -12.9101   20.2910 N   0  0  0  0  0  0
  -25.8970  -11.6290   20.5758 N   0  0  0  0  0  0
  -22.0108  -12.7955   22.0625 N   0  0  0  0  0  0
  -25.2384  -15.1314   20.2900 N   0  0  0  0  0  0
  -31.2853  -15.4171   20.4093 O   0  0  0  0  0  0
  -21.6569   -6.8773   21.4239 O   0  0  0  0  0  0
  -22.3077  -14.5241   20.6848 O   0  0  0  0  0  0
  -24.7225  -32.0047   23.1784 C   0  0  0  0  0  0
  -25.9983  -32.5308   23.8614 C   0  0  1  0  0  0
  -26.1219  -27.0989   20.7965 C   0  0  0  0  0  0
  -25.6785  -33.8991   24.2714 N   0  0  0  0  0  0
  -23.5504  -30.8090   21.4086 C   0  0  2  0  0  0
  -24.8495  -29.1903   19.9268 C   0  0  0  0  0  0
  -23.0140  -29.8212   22.3930 C   0  0  0  0  0  0
  -18.5594  -27.3622   23.2975 C   0  0  0  0  0  0
  -24.1539  -36.7382   23.2589 C   0  0  0  0  0  0
  -26.0528  -30.8521   21.3761 C   0  0  0  0  0  0
  -25.9386  -29.4644   20.7637 C   0  0  0  0  0  0
  -26.6841  -28.3550   21.1926 C   0  0  0  0  0  0
  -25.7594  -26.9964   19.4625 C   0  0  0  0  0  0
  -24.8327  -27.9999   19.1653 C   0  0  0  0  0  0
  -23.7153  -30.1735   19.9912 C   0  0  0  0  0  0
  -25.4160  -36.3292   24.0343 C   0  0  1  0  0  0
  -21.4134  -28.4828   22.7342 C   0  0  2  0  0  0
  -21.8905  -27.3249   20.7474 C   0  0  0  0  0  0
  -20.3378  -25.6496   20.6221 C   0  0  0  0  0  0
  -18.8704  -25.7720   22.2249 C   0  0  0  0  0  0
  -19.7063  -28.4728   23.5672 C   0  0  0  0  0  0
  -19.2441  -29.7908   23.9610 C   0  0  0  0  0  0
  -17.8948  -30.2259   24.0102 C   0  0  0  0  0  0
  -25.9255  -34.9742   23.5174 C   0  0  0  0  0  0
  -16.8843  -29.3349   23.6258 C   0  0  0  0  0  0
  -17.2196  -27.9828   23.2751 C   0  0  0  0  0  0
  -26.4679  -31.6676   25.0918 C   0  0  0  0  0  0
  -25.3593  -31.3857   26.1329 C   0  0  0  0  0  0
  -27.0319  -30.3051   24.6288 C   0  0  0  0  0  0
  -27.6249  -32.4086   25.7979 C   0  0  0  0  0  0
  -27.5625  -37.1949   24.8469 C   0  0  0  0  0  0
  -21.7175  -29.7547   22.4015 N   0  0  0  0  0  0
  -26.4307  -37.3993   23.9458 N   0  0  0  0  0  0
  -24.8011  -31.2944   22.0145 N   0  0  0  0  0  0
  -23.7653  -29.1926   23.1542 O   0  0  0  0  0  0
  -25.1903  -26.2743   21.5645 O   0  0  0  0  0  0
  -26.5467  -34.9134   22.4531 O   0  0  0  0  0  0
  -23.6326  -32.2749   23.7154 O   0  0  0  0  0  0
  -24.6928  -21.2953   20.7986 C   0  0  0  0  0  0
  -24.2644  -22.5964   23.1321 C   0  0  0  0  0  0
  -25.5968  -20.6888   21.7881 C   0  0  0  0  0  0
  -23.6562  -22.3908   20.9519 C   0  0  0  0  0  0
  -25.2667  -21.4823   22.9839 C   0  0  0  0  0  0
  -23.3242  -23.1826   22.1610 C   0  0  0  0  0  0
  -21.4078  -22.1909   19.6038 C   0  0  0  0  0  0
  -22.4755  -21.6001   18.7231 C   0  0  0  0  0  0
  -26.7636  -18.1412   20.5066 C   0  0  0  0  0  0
  -28.3166  -19.1574   21.8111 C   0  0  0  0  0  0
  -27.6188  -16.6823   20.6179 C   0  0  0  0  0  0
  -29.3085  -17.7532   21.7489 C   0  0  0  0  0  0
  -22.8346  -22.6806   19.7263 C   0  0  0  0  0  0
  -26.6748  -19.2458   21.6917 C   0  0  0  0  0  0
  -26.0000  -21.0783   24.2509 C   0  0  0  0  0  0
  -21.5735  -23.8310   23.9554 C   0  0  0  0  0  0
  -23.5852  -26.3817   22.4606 C   0  0  0  0  0  0
  -21.9118  -24.2703   22.5120 C   0  0  1  0  0  0
  -21.4977  -26.1278   22.5834 C   0  0  2  0  0  0
  -29.1003  -16.4350   20.9381 N   0  0  0  0  0  0
  -19.8435  -27.6360   21.3925 N   0  3  0  0  0  0
  -31.3738  -13.2059   19.2888 H   0  0  0  0  0  0
  -30.5337  -11.9557   20.1583 H   0  0  0  0  0  0
  -29.9510  -11.8044   17.7293 H   0  0  0  0  0  0
  -29.5284  -13.4989   17.7010 H   0  0  0  0  0  0
  -28.0291  -11.2423   19.0585 H   0  0  0  0  0  0
  -27.4149  -12.3243   17.8336 H   0  0  0  0  0  0
  -27.4769  -14.1786   19.3370 H   0  0  0  0  0  0
  -28.7120  -12.3280   21.4471 H   0  0  0  0  0  0
  -28.0992  -13.9259   21.8070 H   0  0  0  0  0  0
  -25.2647   -9.5556   22.4837 H   0  0  0  0  0  0
  -23.9931   -7.4457   22.7470 H   0  0  0  0  0  0
  -21.0753   -8.8597   19.8925 H   0  0  0  0  0  0
  -22.3575  -10.9528   19.6210 H   0  0  0  0  0  0
  -21.1957   -7.6106   23.9708 H   0  0  0  0  0  0
  -21.1459   -6.0492   25.9087 H   0  0  0  0  0  0
  -22.0631   -2.7574   23.2869 H   0  0  0  0  0  0
  -22.3780  -11.9625   22.4978 H   0  0  0  0  0  0
  -21.0781  -13.1034   22.2979 H   0  0  0  0  0  0
  -24.4331  -15.7342   20.4152 H   0  0  0  0  0  0
  -26.0531  -15.6196   19.9462 H   0  0  0  0  0  0
  -26.8275  -32.5875   23.1575 H   0  0  0  0  0  0
  -25.1234  -34.0099   25.1071 H   0  0  0  0  0  0
  -22.8624  -31.6531   21.3154 H   0  0  0  0  0  0
  -23.3867  -35.9647   23.3223 H   0  0  0  0  0  0
  -24.3662  -36.9023   22.2013 H   0  0  0  0  0  0
  -23.7199  -37.6552   23.6583 H   0  0  0  0  0  0
  -26.3042  -31.5618   20.5873 H   0  0  0  0  0  0
  -26.9114  -30.8313   22.0375 H   0  0  0  0  0  0
  -27.2354  -28.4588   22.1169 H   0  0  0  0  0  0
  -25.5271  -26.0356   19.0250 H   0  0  0  0  0  0
  -24.0677  -27.8235   18.4222 H   0  0  0  0  0  0
  -23.9454  -30.9706   19.2810 H   0  0  0  0  0  0
  -22.7871  -29.7460   19.6272 H   0  0  0  0  0  0
  -25.1293  -36.2141   25.0824 H   0  0  0  0  0  0
  -21.9074  -28.1587   23.6618 H   0  0  0  0  0  0
  -22.8866  -27.0544   20.4238 H   0  0  0  0  0  0
  -21.6686  -27.9797   19.9007 H   0  0  0  0  0  0
  -20.7268  -24.6814   20.3389 H   0  0  0  0  0  0
  -19.7813  -25.8399   19.6998 H   0  0  0  0  0  0
  -17.9057  -25.4862   21.8011 H   0  0  0  0  0  0
  -19.0624  -24.9681   22.9339 H   0  0  0  0  0  0
  -19.9892  -30.5539   24.1408 H   0  0  0  0  0  0
  -17.6549  -31.2461   24.2782 H   0  0  0  0  0  0
  -15.8548  -29.6665   23.5865 H   0  0  0  0  0  0
  -16.4009  -27.3614   22.9370 H   0  0  0  0  0  0
  -24.5679  -30.7534   25.7277 H   0  0  0  0  0  0
  -24.8952  -32.3077   26.4850 H   0  0  0  0  0  0
  -25.7571  -30.8698   27.0077 H   0  0  0  0  0  0
  -26.2877  -29.7096   24.1002 H   0  0  0  0  0  0
  -27.3612  -29.7059   25.4784 H   0  0  0  0  0  0
  -27.9001  -30.4246   23.9802 H   0  0  0  0  0  0
  -27.2971  -33.3379   26.2636 H   0  0  0  0  0  0
  -28.4230  -32.6597   25.0981 H   0  0  0  0  0  0
  -28.0656  -31.8009   26.5887 H   0  0  0  0  0  0
  -28.2578  -38.0312   24.7627 H   0  0  0  0  0  0
  -28.1203  -36.2864   24.6148 H   0  0  0  0  0  0
  -27.2370  -37.1411   25.8874 H   0  0  0  0  0  0
  -21.1506  -30.3421   21.8044 H   0  0  0  0  0  0
  -26.0186  -38.3047   24.1543 H   0  0  0  0  0  0
  -24.7673  -20.8445   19.8199 H   0  0  0  0  0  0
  -24.1789  -22.9944   24.1321 H   0  0  0  0  0  0
  -21.0165  -21.5707   20.4092 H   0  0  0  0  0  0
  -20.6772  -22.8175   19.0961 H   0  0  0  0  0  0
  -22.4527  -21.8765   17.6706 H   0  0  0  0  0  0
  -22.7316  -20.5622   18.9258 H   0  0  0  0  0  0
  -25.7322  -17.8806   20.2692 H   0  0  0  0  0  0
  -27.1124  -18.6539   19.6087 H   0  0  0  0  0  0
  -28.7016  -19.8189   21.0347 H   0  0  0  0  0  0
  -28.5837  -19.6701   22.7359 H   0  0  0  0  0  0
  -27.4791  -16.2108   19.6516 H   0  0  0  0  0  0
  -27.1393  -16.1026   21.4033 H   0  0  0  0  0  0
  -29.3776  -17.4023   22.7789 H   0  0  0  0  0  0
  -30.3206  -18.0866   21.5189 H   0  0  0  0  0  0
  -23.0692  -23.6669   19.3316 H   0  0  0  0  0  0
  -26.3086  -18.6789   22.5480 H   0  0  0  0  0  0
  -25.7726  -21.7386   25.0882 H   0  0  0  0  0  0
  -27.0785  -21.0994   24.0935 H   0  0  0  0  0  0
  -25.7149  -20.0672   24.5437 H   0  0  0  0  0  0
  -21.5309  -22.7440   24.0407 H   0  0  0  0  0  0
  -20.6056  -24.1946   24.2986 H   0  0  0  0  0  0
  -22.3188  -24.1876   24.6668 H   0  0  0  0  0  0
  -23.8314  -27.0063   23.3006 H   0  0  0  0  0  0
  -23.8510  -25.4928   23.0206 H   0  0  0  0  0  0
  -21.1083  -23.7365   22.0179 H   0  0  0  0  0  0
  -21.2142  -26.2161   23.6343 H   0  0  0  0  0  0
  -19.9064  -27.4934   20.3980 H   0  0  0  0  0  0
  -19.9841  -28.6039   21.6276 H   0  0  0  0  0  0
  -18.9197  -27.3967   21.7251 H   0  0  0  0  0  0
  1 25  1  0  0  0
  1 30  2  0  0  0
  1 90  1  0  0  0
  2  3  1  0  0  0
  2 25  1  0  0  0
  2 92  1  0  0  0
  2 93  1  0  0  0
  3  4  1  0  0  0
  3 94  1  0  0  0
  3 95  1  0  0  0
  4  5  1  0  0  0
  4 96  1  0  0  0
  4 97  1  0  0  0
  5  6  1  0  0  0
  5 26  1  0  0  0
  5 98  1  0  0  0
  6 25  1  0  0  0
  6 99  1  0  0  0
  6100  1  0  0  0
  7  8  2  0  0  0
  7 26  1  0  0  0
  7 29  1  0  0  0
  8  9  1  0  0  0
  8 22  1  0  0  0
  9 10  1  0  0  0
  9 27  2  0  0  0
 10 11  2  0  0  0
 10 15  1  0  0  0
 11 12  1  0  0  0
 11101  1  0  0  0
 12 13  2  0  0  0
 12102  1  0  0  0
 13 14  1  0  0  0
 13 31  1  0  0  0
 14 15  2  0  0  0
 14103  1  0  0  0
 15104  1  0  0  0
 16 17  2  0  0  0
 16 21  1  0  0  0
 16 31  1  0  0  0
 17 18  1  0  0  0
 17105  1  0  0  0
 18 19  2  0  0  0
 18106  1  0  0  0
 19 20  1  0  0  0
 19 24  1  0  0  0
 20 21  2  0  0  0
 20107  1  0  0  0
 21 23  1  0  0  0
 22 28  1  0  0  0
 22 32  2  0  0  0
 26 27  1  0  0  0
 28108  1  0  0  0
 28109  1  0  0  0
 29110  1  0  0  0
 29111  1  0  0  0
 33 34  1  0  0  0
 33 66  1  0  0  0
 33 70  2  0  0  0
 34 36  1  0  0  0
 34 59  1  0  0  0
 34112  1  0  0  0
 35 44  2  0  0  0
 35 45  1  0  0  0
 35 68  1  0  0  0
 36 56  1  0  0  0
 36113  1  0  0  0
 37 39  1  0  0  0
 37 47  1  0  0  0
 37 66  1  0  0  0
 37114  1  0  0  0
 38 43  2  0  0  0
 38 46  1  0  0  0
 38 47  1  0  0  0
 39 64  1  0  0  0
 39 67  2  0  0  0
 40 52  1  0  0  0
 40 53  2  0  0  0
 40 58  1  0  0  0
 41115  1  0  0  0
 41116  1  0  0  0
 41117  1  0  0  0
 41 48  1  0  0  0
 42 43  1  0  0  0
 42 66  1  0  0  0
 42118  1  0  0  0
 42119  1  0  0  0
 43 44  1  0  0  0
 44120  1  0  0  0
 45 46  2  0  0  0
 45121  1  0  0  0
 46122  1  0  0  0
 47123  1  0  0  0
 47124  1  0  0  0
 48 56  1  0  0  0
 48 65  1  0  0  0
 48125  1  0  0  0
 49 50  1  0  0  0
 49 53  1  0  0  0
 49 64  1  0  0  0
 49126  1  0  0  0
 50 51  1  0  0  0
 50127  1  0  0  0
 50128  1  0  0  0
 51 52  1  0  0  0
 51129  1  0  0  0
 51130  1  0  0  0
 52131  1  0  0  0
 52132  1  0  0  0
 53 54  1  0  0  0
 54 55  2  0  0  0
 54133  1  0  0  0
 55 57  1  0  0  0
 55134  1  0  0  0
 56 69  2  0  0  0
 57 58  2  0  0  0
 57135  1  0  0  0
 58136  1  0  0  0
 59 60  1  0  0  0
 59 61  1  0  0  0
 59 62  1  0  0  0
 60137  1  0  0  0
 60138  1  0  0  0
 60139  1  0  0  0
 61140  1  0  0  0
 61141  1  0  0  0
 61142  1  0  0  0
 62143  1  0  0  0
 62144  1  0  0  0
 62145  1  0  0  0
 63 65  1  0  0  0
 63146  1  0  0  0
 63147  1  0  0  0
 63148  1  0  0  0
 64149  1  0  0  0
 65150  1  0  0  0
 68 87  1  0  0  0
 71 73  2  0  0  0
 71 74  1  0  0  0
 71151  1  0  0  0
 72 75  2  0  0  0
 72 76  1  0  0  0
 72152  1  0  0  0
 73 75  1  0  0  0
 73 84  1  0  0  0
 74 76  2  0  0  0
 74 83  1  0  0  0
 75 85  1  0  0  0
 76 88  1  0  0  0
 77 78  1  0  0  0
 77 83  1  0  0  0
 77153  1  0  0  0
 77154  1  0  0  0
 78 83  1  0  0  0
 78155  1  0  0  0
 78156  1  0  0  0
 79 81  1  0  0  0
 79 84  1  0  0  0
 79157  1  0  0  0
 79158  1  0  0  0
 80 82  1  0  0  0
 80 84  1  0  0  0
 80159  1  0  0  0
 80160  1  0  0  0
 81 90  1  0  0  0
 81161  1  0  0  0
 81162  1  0  0  0
 82 90  1  0  0  0
 82163  1  0  0  0
 82164  1  0  0  0
 83165  1  0  0  0
 84166  1  0  0  0
 85167  1  0  0  0
 85168  1  0  0  0
 85169  1  0  0  0
 86170  1  0  0  0
 86171  1  0  0  0
 86172  1  0  0  0
 86 88  1  0  0  0
 87 89  1  0  0  0
 87173  1  0  0  0
 87174  1  0  0  0
 88 89  1  0  0  0
 88175  1  0  0  0
 89 91  1  0  0  0
 89176  1  0  0  0
 91177  1  0  0  0
 91178  1  0  0  0
 91179  1  0  0  0
M  CHG  1  91   1
M  ISO  4   1 100  68 101  87 101  90 100
M  END
> <chiral flag>
0

> <version>
0

> <s_m_source_file>
/data/baiqing/PycharmProjects/Reinvent-master-3.2/result/LINK_invent/BTK/process_docking_weight1_custom_sum_contain_oxygen_bond_distance_aromatic_linkinvent_7_9_3/rearranged_h_0166.sdf

> <i_m_source_file_index>
82

> <r_mmod_Potential_Energy-OPLS-2005>
12324.70703125

> <r_mmod_Stretch_Energy-OPLS-2005>
5568.43798828125

> <r_mmod_Bend_Energy-OPLS-2005>
1179.56494140625

> <r_mmod_Torsional_Energy-OPLS-2005>
662.900329589844

> <r_mmod_Improper_Torsional_Energy-OPLS-2005>
44.1741561889648

> <r_mmod_Van_der_Waal_Energy-OPLS-2005>
2213.40698242188

> <r_mmod_Electrostatic_Energy-OPLS-2005>
-303.002258300781

> <r_mmod_Solvation_Energy-OPLS-2005>
-421.842376708984

> <b_mmod_Minimization_Converged-OPLS-2005>
0

> <r_mmod_RMS_Derivative-OPLS-2005>
3.33381938934326

$$$$
82
                    3D
 Structure written by MMmdl.
161170  0  0  1  0            999 V2000
  -30.6505  -14.8447   20.4204 C   0  0  0  0  0  0
  -30.4095  -12.5284   19.4768 C   0  0  0  0  0  0
  -29.4958  -12.5089   18.2343 C   0  0  0  0  0  0
  -28.0304  -12.3033   18.6583 C   0  0  0  0  0  0
  -27.6179  -13.2382   19.8245 C   0  0  2  0  0  0
  -28.6677  -13.2860   20.9579 C   0  0  0  0  0  0
  -25.2386  -13.8176   20.5657 C   0  0  0  0  0  0
  -24.1715  -13.0423   20.9229 C   0  0  0  0  0  0
  -24.6332  -11.6911   20.8769 C   0  0  0  0  0  0
  -23.9030  -10.4291   21.0429 C   0  0  0  0  0  0
  -24.3586   -9.4211   21.9203 C   0  0  0  0  0  0
  -23.6280   -8.2239   22.0753 C   0  0  0  0  0  0
  -22.4276   -8.0256   21.3532 C   0  0  0  0  0  0
  -21.9909   -9.0233   20.4650 C   0  0  0  0  0  0
  -22.7217  -10.2124   20.3073 C   0  0  0  0  0  0
  -21.6849   -6.0725   22.5281 C   0  0  0  0  0  0
  -21.4008   -6.5631   23.8212 C   0  0  0  0  0  0
  -21.3666   -5.6781   24.9180 C   0  0  0  0  0  0
  -21.6055   -4.3045   24.7224 C   0  0  0  0  0  0
  -21.8820   -3.8127   23.4339 C   0  0  0  0  0  0
  -21.9183   -4.6948   22.3400 C   0  0  0  0  0  0
  -22.7751  -13.5235   21.1866 C   0  0  0  0  0  0
  -22.1663   -4.2138   21.0978 F   0  0  0  0  0  0
  -21.5637   -3.4527   25.7736 F   0  0  0  0  0  0
  -29.9491  -13.6489   20.3437 N   0  0  0  0  0  0
  -26.2807  -12.9402   20.3209 N   0  0  0  0  0  0
  -25.9258  -11.6546   20.5752 N   0  0  0  0  0  0
  -22.0364  -12.8271   22.0428 N   0  0  0  0  0  0
  -25.3985  -15.1890   20.3978 N   0  0  0  0  0  0
  -31.8638  -14.7849   20.1996 O   0  0  0  0  0  0
  -21.6631   -6.8859   21.4239 O   0  0  0  0  0  0
  -22.3485  -14.5559   20.6712 O   0  0  0  0  0  0
  -24.6330  -31.8539   23.1941 C   0  0  0  0  0  0
  -25.9140  -32.4741   23.8309 C   0  0  1  0  0  0
  -27.2236  -27.2341   20.1238 C   0  0  0  0  0  0
  -25.5927  -33.8546   24.2233 N   0  0  0  0  0  0
  -23.4302  -30.4744   21.5388 C   0  0  2  0  0  0
  -24.8792  -28.9162   20.1045 C   0  0  0  0  0  0
  -22.7509  -29.4602   22.4904 C   0  0  0  0  0  0
  -18.0286  -28.1391   22.8482 C   0  0  0  0  0  0
  -24.1496  -36.7277   23.2638 C   0  0  0  0  0  0
  -25.9771  -30.7558   21.3783 C   0  0  0  0  0  0
  -26.0499  -29.3761   20.7204 C   0  0  0  0  0  0
  -27.2186  -28.5450   20.7253 C   0  0  0  0  0  0
  -26.0238  -26.8448   19.4890 C   0  0  0  0  0  0
  -24.8744  -27.6603   19.4791 C   0  0  0  0  0  0
  -23.6488  -29.8041   20.1564 C   0  0  0  0  0  0
  -25.4120  -36.3063   24.0327 C   0  0  1  0  0  0
  -20.5889  -28.3714   23.1269 C   0  0  2  0  0  0
  -20.6779  -26.9431   22.5415 C   0  0  0  0  0  0
  -19.5756  -26.6382   21.5223 C   0  0  0  0  0  0
  -18.1932  -26.7938   22.1619 C   0  0  0  0  0  0
  -19.1542  -28.8864   23.2865 C   0  0  0  0  0  0
  -18.9459  -30.1462   23.8885 C   0  0  0  0  0  0
  -17.6464  -30.6594   24.0555 C   0  0  0  0  0  0
  -25.9060  -34.9437   23.5095 C   0  0  0  0  0  0
  -16.5345  -29.9085   23.6336 C   0  0  0  0  0  0
  -16.7276  -28.6502   23.0360 C   0  0  0  0  0  0
  -26.4478  -31.6564   25.0712 C   0  0  0  0  0  0
  -25.3664  -31.3727   26.1410 C   0  0  0  0  0  0
  -27.0329  -30.2973   24.6230 C   0  0  0  0  0  0
  -27.6046  -32.4285   25.7481 C   0  0  0  0  0  0
  -27.5595  -37.1771   24.8439 C   0  0  0  0  0  0
  -21.4208  -29.3049   22.3650 N   0  0  0  0  0  0
  -26.4280  -37.3777   23.9422 N   0  0  0  0  0  0
  -24.6991  -31.0471   22.0926 N   0  0  0  0  0  0
  -23.4193  -28.8165   23.3034 O   0  0  0  0  0  0
  -28.3100  -26.3240   20.2351 O   0  0  0  0  0  0
  -26.5662  -34.8916   22.4673 O   0  0  0  0  0  0
  -23.5476  -32.1378   23.7220 O   0  0  0  0  0  0
  -28.0195  -22.5813   18.8840 C   0  0  0  0  0  0
  -28.5385  -23.5512   19.7869 C   0  0  0  0  0  0
  -28.2431  -21.1699   19.0135 C   0  0  0  0  0  0
  -29.2722  -22.9351   20.8499 C   0  0  0  0  0  0
  -28.9852  -20.6344   20.1106 C   0  0  0  0  0  0
  -30.3908  -18.7399   21.1318 C   0  0  0  0  0  0
  -28.2716  -18.1454   20.2806 C   0  0  0  0  0  0
  -30.9806  -17.3150   20.7587 C   0  0  0  0  0  0
  -28.7229  -16.6050   20.1305 C   0  0  0  0  0  0
  -27.7479  -20.2887   17.8751 C   0  0  0  0  0  0
  -29.9505  -23.8009   21.8924 C   0  0  0  0  0  0
  -28.4832  -25.1131   19.3551 C   0  0  0  0  0  0
  -29.4672  -21.5638   20.9980 N   0  0  0  0  0  0
  -29.3115  -19.2050   20.2532 N   0  0  0  0  0  0
  -30.0665  -16.1304   20.5945 N   0  0  0  0  0  0
  -31.4495  -12.6339   19.1615 H   0  0  0  0  0  0
  -30.3514  -11.5782   20.0121 H   0  0  0  0  0  0
  -29.8035  -11.7217   17.5461 H   0  0  0  0  0  0
  -29.5901  -13.4482   17.6877 H   0  0  0  0  0  0
  -27.9177  -11.2626   18.9631 H   0  0  0  0  0  0
  -27.3627  -12.4429   17.8073 H   0  0  0  0  0  0
  -27.5705  -14.2248   19.3692 H   0  0  0  0  0  0
  -28.7385  -12.3309   21.4788 H   0  0  0  0  0  0
  -28.3853  -14.0244   21.7101 H   0  0  0  0  0  0
  -25.2705   -9.5735   22.4814 H   0  0  0  0  0  0
  -23.9974   -7.4657   22.7501 H   0  0  0  0  0  0
  -21.0827   -8.8773   19.8982 H   0  0  0  0  0  0
  -22.3645  -10.9672   19.6215 H   0  0  0  0  0  0
  -21.2009   -7.6147   23.9719 H   0  0  0  0  0  0
  -21.1500   -6.0508   25.9090 H   0  0  0  0  0  0
  -22.0594   -2.7585   23.2827 H   0  0  0  0  0  0
  -22.3894  -11.9902   22.4836 H   0  0  0  0  0  0
  -21.1025  -13.1397   22.2648 H   0  0  0  0  0  0
  -24.6179  -15.8294   20.4910 H   0  0  0  0  0  0
  -26.2240  -15.6222   20.0087 H   0  0  0  0  0  0
  -26.7214  -32.5382   23.1055 H   0  0  0  0  0  0
  -24.9986  -33.9671   25.0321 H   0  0  0  0  0  0
  -22.7272  -31.2968   21.3910 H   0  0  0  0  0  0
  -23.3788  -35.9573   23.3223 H   0  0  0  0  0  0
  -24.3589  -36.8987   22.2065 H   0  0  0  0  0  0
  -23.7204  -37.6435   23.6713 H   0  0  0  0  0  0
  -26.1178  -31.5153   20.6086 H   0  0  0  0  0  0
  -26.8535  -30.8058   22.0123 H   0  0  0  0  0  0
  -28.1086  -28.8884   21.2331 H   0  0  0  0  0  0
  -25.9260  -25.8688   19.0397 H   0  0  0  0  0  0
  -23.9750  -27.2964   19.0005 H   0  0  0  0  0  0
  -23.7602  -30.5766   19.3943 H   0  0  0  0  0  0
  -22.7677  -29.2306   19.8621 H   0  0  0  0  0  0
  -25.1295  -36.1899   25.0819 H   0  0  0  0  0  0
  -20.9974  -28.3302   24.1392 H   0  0  0  0  0  0
  -20.5689  -26.2333   23.3623 H   0  0  0  0  0  0
  -21.6653  -26.7461   22.1206 H   0  0  0  0  0  0
  -19.6917  -25.6287   21.1273 H   0  0  0  0  0  0
  -19.6701  -27.3181   20.6739 H   0  0  0  0  0  0
  -17.4215  -26.6697   21.4002 H   0  0  0  0  0  0
  -18.0305  -26.0072   22.9002 H   0  0  0  0  0  0
  -19.7931  -30.7277   24.2257 H   0  0  0  0  0  0
  -17.5012  -31.6280   24.5160 H   0  0  0  0  0  0
  -15.5351  -30.2981   23.7667 H   0  0  0  0  0  0
  -15.8670  -28.0817   22.7081 H   0  0  0  0  0  0
  -24.5835  -30.7104   25.7689 H   0  0  0  0  0  0
  -24.8851  -32.2900   26.4813 H   0  0  0  0  0  0
  -25.7927  -30.8877   27.0203 H   0  0  0  0  0  0
  -26.2920  -29.6697   24.1266 H   0  0  0  0  0  0
  -27.3999  -29.7266   25.4770 H   0  0  0  0  0  0
  -27.8802  -30.4219   23.9484 H   0  0  0  0  0  0
  -27.2682  -33.3592   26.2059 H   0  0  0  0  0  0
  -28.3856  -32.6829   25.0300 H   0  0  0  0  0  0
  -28.0717  -31.8398   26.5389 H   0  0  0  0  0  0
  -28.2547  -38.0138   24.7609 H   0  0  0  0  0  0
  -28.1169  -36.2682   24.6111 H   0  0  0  0  0  0
  -27.2331  -37.1223   25.8841 H   0  0  0  0  0  0
  -20.9402  -29.8735   21.6815 H   0  0  0  0  0  0
  -26.0160  -38.2845   24.1460 H   0  0  0  0  0  0
  -27.4899  -22.9330   18.0095 H   0  0  0  0  0  0
  -31.1967  -19.4736   21.1197 H   0  0  0  0  0  0
  -30.0177  -18.7246   22.1566 H   0  0  0  0  0  0
  -27.7704  -18.2498   21.2447 H   0  0  0  0  0  0
  -27.4881  -18.3544   19.5559 H   0  0  0  0  0  0
  -31.7307  -17.0693   21.5119 H   0  0  0  0  0  0
  -31.5338  -17.4272   19.8241 H   0  0  0  0  0  0
  -28.6498  -16.3430   19.0744 H   0  0  0  0  0  0
  -27.9717  -16.0148   20.6466 H   0  0  0  0  0  0
  -27.6844  -20.8475   16.9393 H   0  0  0  0  0  0
  -26.7532  -19.8985   18.0905 H   0  0  0  0  0  0
  -28.4253  -19.4526   17.6950 H   0  0  0  0  0  0
  -30.7444  -24.3956   21.4397 H   0  0  0  0  0  0
  -30.3910  -23.2054   22.6919 H   0  0  0  0  0  0
  -29.2328  -24.4860   22.3445 H   0  0  0  0  0  0
  -27.8441  -25.1943   18.4792 H   0  0  0  0  0  0
  -29.4734  -25.2732   18.9302 H   0  0  0  0  0  0
  1 25  1  0  0  0
  1 30  2  0  0  0
  1 85  1  0  0  0
  2  3  1  0  0  0
  2 25  1  0  0  0
  2 86  1  0  0  0
  2 87  1  0  0  0
  3  4  1  0  0  0
  3 88  1  0  0  0
  3 89  1  0  0  0
  4  5  1  0  0  0
  4 90  1  0  0  0
  4 91  1  0  0  0
  5  6  1  0  0  0
  5 26  1  0  0  0
  5 92  1  0  0  0
  6 25  1  0  0  0
  6 93  1  0  0  0
  6 94  1  0  0  0
  7  8  2  0  0  0
  7 26  1  0  0  0
  7 29  1  0  0  0
  8  9  1  0  0  0
  8 22  1  0  0  0
  9 10  1  0  0  0
  9 27  2  0  0  0
 10 11  2  0  0  0
 10 15  1  0  0  0
 11 12  1  0  0  0
 11 95  1  0  0  0
 12 13  2  0  0  0
 12 96  1  0  0  0
 13 14  1  0  0  0
 13 31  1  0  0  0
 14 15  2  0  0  0
 14 97  1  0  0  0
 15 98  1  0  0  0
 16 17  2  0  0  0
 16 21  1  0  0  0
 16 31  1  0  0  0
 17 18  1  0  0  0
 17 99  1  0  0  0
 18 19  2  0  0  0
 18100  1  0  0  0
 19 20  1  0  0  0
 19 24  1  0  0  0
 20 21  2  0  0  0
 20101  1  0  0  0
 21 23  1  0  0  0
 22 28  1  0  0  0
 22 32  2  0  0  0
 26 27  1  0  0  0
 28102  1  0  0  0
 28103  1  0  0  0
 29104  1  0  0  0
 29105  1  0  0  0
 33 34  1  0  0  0
 33 66  1  0  0  0
 33 70  2  0  0  0
 34 36  1  0  0  0
 34 59  1  0  0  0
 34106  1  0  0  0
 35 44  2  0  0  0
 35 45  1  0  0  0
 35 68  1  0  0  0
 36 56  1  0  0  0
 36107  1  0  0  0
 37 39  1  0  0  0
 37 47  1  0  0  0
 37 66  1  0  0  0
 37108  1  0  0  0
 38 43  2  0  0  0
 38 46  1  0  0  0
 38 47  1  0  0  0
 39 64  1  0  0  0
 39 67  2  0  0  0
 40 52  1  0  0  0
 40 53  2  0  0  0
 40 58  1  0  0  0
 41109  1  0  0  0
 41110  1  0  0  0
 41111  1  0  0  0
 41 48  1  0  0  0
 42 43  1  0  0  0
 42 66  1  0  0  0
 42112  1  0  0  0
 42113  1  0  0  0
 43 44  1  0  0  0
 44114  1  0  0  0
 45 46  2  0  0  0
 45115  1  0  0  0
 46116  1  0  0  0
 47117  1  0  0  0
 47118  1  0  0  0
 48 56  1  0  0  0
 48 65  1  0  0  0
 48119  1  0  0  0
 49 50  1  0  0  0
 49 53  1  0  0  0
 49 64  1  0  0  0
 49120  1  0  0  0
 50 51  1  0  0  0
 50121  1  0  0  0
 50122  1  0  0  0
 51 52  1  0  0  0
 51123  1  0  0  0
 51124  1  0  0  0
 52125  1  0  0  0
 52126  1  0  0  0
 53 54  1  0  0  0
 54 55  2  0  0  0
 54127  1  0  0  0
 55 57  1  0  0  0
 55128  1  0  0  0
 56 69  2  0  0  0
 57 58  2  0  0  0
 57129  1  0  0  0
 58130  1  0  0  0
 59 60  1  0  0  0
 59 61  1  0  0  0
 59 62  1  0  0  0
 60131  1  0  0  0
 60132  1  0  0  0
 60133  1  0  0  0
 61134  1  0  0  0
 61135  1  0  0  0
 61136  1  0  0  0
 62137  1  0  0  0
 62138  1  0  0  0
 62139  1  0  0  0
 63 65  1  0  0  0
 63140  1  0  0  0
 63141  1  0  0  0
 63142  1  0  0  0
 64143  1  0  0  0
 65144  1  0  0  0
 68 82  1  0  0  0
 71 72  2  0  0  0
 71 73  1  0  0  0
 71145  1  0  0  0
 72 74  1  0  0  0
 72 82  1  0  0  0
 73 75  2  0  0  0
 73 80  1  0  0  0
 74 81  1  0  0  0
 74 83  2  0  0  0
 75 83  1  0  0  0
 75 84  1  0  0  0
 76 78  1  0  0  0
 76 84  1  0  0  0
 76146  1  0  0  0
 76147  1  0  0  0
 77 79  1  0  0  0
 77 84  1  0  0  0
 77148  1  0  0  0
 77149  1  0  0  0
 78 85  1  0  0  0
 78150  1  0  0  0
 78151  1  0  0  0
 79 85  1  0  0  0
 79152  1  0  0  0
 79153  1  0  0  0
 80154  1  0  0  0
 80155  1  0  0  0
 80156  1  0  0  0
 81157  1  0  0  0
 81158  1  0  0  0
 81159  1  0  0  0
 82160  1  0  0  0
 82161  1  0  0  0
M  ISO  4   1 100  68 101  82 101  85 100
M  END
> <chiral flag>
0

> <version>
0

> <s_m_source_file>
/data/baiqing/PycharmProjects/Reinvent-master-3.2/result/LINK_invent/BTK/process_docking_weight1_custom_sum_contain_oxygen_bond_distance_aromatic_linkinvent_7_9_3/rearranged_h_0166.sdf

> <i_m_source_file_index>
83

> <r_mmod_Potential_Energy-OPLS-2005>
272.097320556641

> <r_mmod_Stretch_Energy-OPLS-2005>
143.420425415039

> <r_mmod_Bend_Energy-OPLS-2005>
258.706878662109

> <r_mmod_Torsional_Energy-OPLS-2005>
343.286102294922

> <r_mmod_Improper_Torsional_Energy-OPLS-2005>
10.4405908584595

> <r_mmod_Van_der_Waal_Energy-OPLS-2005>
149.640335083008

> <r_mmod_Electrostatic_Energy-OPLS-2005>
-525.707580566406

> <r_mmod_Solvation_Energy-OPLS-2005>
-235.553237915039

> <b_mmod_Minimization_Converged-OPLS-2005>
0

> <r_mmod_RMS_Derivative-OPLS-2005>
2.7953143119812

$$$$
83
                    3D
 Structure written by MMmdl.
165175  0  0  1  0            999 V2000
  -30.6397  -14.7698   20.4544 C   0  0  0  0  0  0
  -30.4212  -12.4782   19.4697 C   0  0  0  0  0  0
  -29.5027  -12.5014   18.2310 C   0  0  0  0  0  0
  -28.0317  -12.3250   18.6520 C   0  0  0  0  0  0
  -27.6335  -13.2411   19.8412 C   0  0  2  0  0  0
  -28.6810  -13.2168   20.9732 C   0  0  0  0  0  0
  -25.2481  -13.8218   20.5711 C   0  0  0  0  0  0
  -24.1786  -13.0449   20.9225 C   0  0  0  0  0  0
  -24.6391  -11.6931   20.8758 C   0  0  0  0  0  0
  -23.9074  -10.4299   21.0410 C   0  0  0  0  0  0
  -24.3623   -9.4211   21.9185 C   0  0  0  0  0  0
  -23.6298   -8.2246   22.0753 C   0  0  0  0  0  0
  -22.4280   -8.0283   21.3544 C   0  0  0  0  0  0
  -21.9917   -9.0259   20.4648 C   0  0  0  0  0  0
  -22.7246  -10.2139   20.3059 C   0  0  0  0  0  0
  -21.6856   -6.0737   22.5279 C   0  0  0  0  0  0
  -21.4016   -6.5640   23.8212 C   0  0  0  0  0  0
  -21.3660   -5.6793   24.9174 C   0  0  0  0  0  0
  -21.6044   -4.3055   24.7224 C   0  0  0  0  0  0
  -21.8819   -3.8147   23.4345 C   0  0  0  0  0  0
  -21.9193   -4.6964   22.3402 C   0  0  0  0  0  0
  -22.7806  -13.5222   21.1877 C   0  0  0  0  0  0
  -22.1662   -4.2148   21.0980 F   0  0  0  0  0  0
  -21.5629   -3.4539   25.7737 F   0  0  0  0  0  0
  -29.9672  -13.5690   20.3657 N   0  0  0  0  0  0
  -26.2906  -12.9443   20.3272 N   0  0  0  0  0  0
  -25.9323  -11.6576   20.5759 N   0  0  0  0  0  0
  -22.0455  -12.8211   22.0432 N   0  0  0  0  0  0
  -25.4165  -15.1939   20.4121 N   0  0  0  0  0  0
  -31.8485  -14.7826   20.2064 O   0  0  0  0  0  0
  -21.6644   -6.8880   21.4240 O   0  0  0  0  0  0
  -22.3486  -14.5523   20.6718 O   0  0  0  0  0  0
  -24.6337  -31.8534   23.1964 C   0  0  0  0  0  0
  -25.9152  -32.4744   23.8318 C   0  0  1  0  0  0
  -27.2129  -27.2408   20.1355 C   0  0  0  0  0  0
  -25.5939  -33.8546   24.2241 N   0  0  0  0  0  0
  -23.4311  -30.4761   21.5406 C   0  0  2  0  0  0
  -24.8773  -28.9191   20.1111 C   0  0  0  0  0  0
  -22.7515  -29.4596   22.4903 C   0  0  0  0  0  0
  -18.0295  -28.1389   22.8482 C   0  0  0  0  0  0
  -24.1491  -36.7280   23.2641 C   0  0  0  0  0  0
  -25.9790  -30.7613   21.3778 C   0  0  0  0  0  0
  -26.0517  -29.3823   20.7186 C   0  0  0  0  0  0
  -27.2259  -28.5582   20.7134 C   0  0  0  0  0  0
  -26.0154  -26.8487   19.5007 C   0  0  0  0  0  0
  -24.8656  -27.6618   19.4888 C   0  0  0  0  0  0
  -23.6501  -29.8096   20.1573 C   0  0  0  0  0  0
  -25.4118  -36.3062   24.0323 C   0  0  1  0  0  0
  -20.5901  -28.3703   23.1263 C   0  0  2  0  0  0
  -20.6783  -26.9419   22.5407 C   0  0  0  0  0  0
  -19.5758  -26.6383   21.5212 C   0  0  0  0  0  0
  -18.1938  -26.7930   22.1623 C   0  0  0  0  0  0
  -19.1548  -28.8863   23.2866 C   0  0  0  0  0  0
  -18.9468  -30.1462   23.8887 C   0  0  0  0  0  0
  -17.6466  -30.6589   24.0561 C   0  0  0  0  0  0
  -25.9061  -34.9434   23.5087 C   0  0  0  0  0  0
  -16.5357  -29.9084   23.6331 C   0  0  0  0  0  0
  -16.7280  -28.6502   23.0353 C   0  0  0  0  0  0
  -26.4508  -31.6577   25.0719 C   0  0  0  0  0  0
  -25.3721  -31.3737   26.1434 C   0  0  0  0  0  0
  -27.0360  -30.2990   24.6226 C   0  0  0  0  0  0
  -27.6055  -32.4326   25.7497 C   0  0  0  0  0  0
  -27.5579  -37.1796   24.8464 C   0  0  0  0  0  0
  -21.4219  -29.3047   22.3649 N   0  0  0  0  0  0
  -26.4291  -37.3764   23.9407 N   0  0  0  0  0  0
  -24.7007  -31.0485   22.0945 N   0  0  0  0  0  0
  -23.4205  -28.8138   23.3012 O   0  0  0  0  0  0
  -28.2887  -26.3196   20.1808 O   0  0  0  0  0  0
  -26.5637  -34.8914   22.4658 O   0  0  0  0  0  0
  -23.5482  -32.1364   23.7248 O   0  0  0  0  0  0
  -29.1540  -19.7045   22.4216 C   0  0  0  0  0  0
  -29.1937  -19.5794   21.0213 C   0  0  0  0  0  0
  -28.9569  -22.1594   20.9075 C   0  0  0  0  0  0
  -29.0852  -20.8373   20.2741 C   0  0  0  0  0  0
  -28.9704  -22.1565   22.3313 C   0  0  0  0  0  0
  -29.0399  -20.9527   23.0781 C   0  0  0  0  0  0
  -27.8300  -24.0003   19.2087 C   0  0  0  0  0  0
  -30.5890  -17.3071   20.0325 C   0  0  0  0  0  0
  -29.0597  -16.7367   21.2784 C   0  0  0  0  0  0
  -29.3005  -18.0686   20.4576 C   0  0  0  0  0  0
  -28.9227  -23.5915   20.1732 C   0  0  1  0  0  0
  -27.9690  -24.8629   20.4477 C   0  0  1  0  0  0
  -29.1183  -20.7676   18.7579 C   0  0  0  0  0  0
  -28.9342  -23.4724   23.1069 C   0  0  0  0  0  0
  -29.0421  -19.8832   25.2481 C   0  0  0  0  0  0
  -29.9498  -15.9850   20.3505 N   0  0  0  0  0  0
  -28.9970  -21.0633   24.4545 O   0  0  0  0  0  0
  -31.4619  -12.5925   19.1621 H   0  0  0  0  0  0
  -30.3645  -11.5147   19.9786 H   0  0  0  0  0  0
  -29.7894  -11.7151   17.5313 H   0  0  0  0  0  0
  -29.6234  -13.4463   17.6986 H   0  0  0  0  0  0
  -27.8967  -11.2796   18.9315 H   0  0  0  0  0  0
  -27.3706  -12.4988   17.8021 H   0  0  0  0  0  0
  -27.6162  -14.2559   19.4421 H   0  0  0  0  0  0
  -28.7296  -12.2350   21.4460 H   0  0  0  0  0  0
  -28.4175  -13.9286   21.7568 H   0  0  0  0  0  0
  -25.2765   -9.5691   22.4763 H   0  0  0  0  0  0
  -24.0008   -7.4637   22.7472 H   0  0  0  0  0  0
  -21.0847   -8.8780   19.8954 H   0  0  0  0  0  0
  -22.3701  -10.9679   19.6172 H   0  0  0  0  0  0
  -21.2009   -7.6148   23.9715 H   0  0  0  0  0  0
  -21.1483   -6.0522   25.9076 H   0  0  0  0  0  0
  -22.0597   -2.7609   23.2845 H   0  0  0  0  0  0
  -22.4077  -11.9878   22.4827 H   0  0  0  0  0  0
  -21.1069  -13.1230   22.2633 H   0  0  0  0  0  0
  -24.6504  -15.8490   20.5239 H   0  0  0  0  0  0
  -26.2653  -15.6294   20.0749 H   0  0  0  0  0  0
  -26.7219  -32.5385   23.1057 H   0  0  0  0  0  0
  -25.0074  -33.9678   25.0379 H   0  0  0  0  0  0
  -22.7285  -31.2991   21.3936 H   0  0  0  0  0  0
  -23.3755  -35.9611   23.3298 H   0  0  0  0  0  0
  -24.3579  -36.8911   22.2056 H   0  0  0  0  0  0
  -23.7244  -37.6477   23.6673 H   0  0  0  0  0  0
  -26.1208  -31.5219   20.6088 H   0  0  0  0  0  0
  -26.8552  -30.8092   22.0128 H   0  0  0  0  0  0
  -28.1256  -28.9077   21.2002 H   0  0  0  0  0  0
  -25.9472  -25.8848   19.0192 H   0  0  0  0  0  0
  -23.9670  -27.3020   19.0067 H   0  0  0  0  0  0
  -23.7779  -30.5858   19.4019 H   0  0  0  0  0  0
  -22.7672  -29.2459   19.8508 H   0  0  0  0  0  0
  -25.1303  -36.1904   25.0816 H   0  0  0  0  0  0
  -20.9992  -28.3284   24.1384 H   0  0  0  0  0  0
  -20.5681  -26.2315   23.3615 H   0  0  0  0  0  0
  -21.6650  -26.7439   22.1202 H   0  0  0  0  0  0
  -19.6920  -25.6290   21.1250 H   0  0  0  0  0  0
  -19.6696  -27.3186   20.6736 H   0  0  0  0  0  0
  -17.4208  -26.6674   21.4026 H   0  0  0  0  0  0
  -18.0339  -26.0074   22.9022 H   0  0  0  0  0  0
  -19.7943  -30.7280   24.2254 H   0  0  0  0  0  0
  -17.5020  -31.6268   24.5164 H   0  0  0  0  0  0
  -15.5357  -30.2983   23.7661 H   0  0  0  0  0  0
  -15.8681  -28.0817   22.7074 H   0  0  0  0  0  0
  -24.5896  -30.7089   25.7756 H   0  0  0  0  0  0
  -24.8914  -32.2910   26.4842 H   0  0  0  0  0  0
  -25.8028  -30.8920   27.0221 H   0  0  0  0  0  0
  -26.2952  -29.6729   24.1240 H   0  0  0  0  0  0
  -27.4019  -29.7264   25.4759 H   0  0  0  0  0  0
  -27.8839  -30.4254   23.9490 H   0  0  0  0  0  0
  -27.2655  -33.3629   26.2059 H   0  0  0  0  0  0
  -28.3874  -32.6883   25.0334 H   0  0  0  0  0  0
  -28.0715  -31.8464   26.5427 H   0  0  0  0  0  0
  -28.2593  -38.0096   24.7509 H   0  0  0  0  0  0
  -28.1078  -36.2626   24.6292 H   0  0  0  0  0  0
  -27.2297  -37.1446   25.8867 H   0  0  0  0  0  0
  -20.9410  -29.8767   21.6847 H   0  0  0  0  0  0
  -26.0167  -38.2838   24.1405 H   0  0  0  0  0  0
  -29.2140  -18.8004   23.0035 H   0  0  0  0  0  0
  -26.9457  -23.3688   19.1537 H   0  0  0  0  0  0
  -28.1440  -24.4332   18.2614 H   0  0  0  0  0  0
  -31.4457  -17.5352   20.6703 H   0  0  0  0  0  0
  -30.8492  -17.4522   18.9833 H   0  0  0  0  0  0
  -28.0181  -16.4157   21.2797 H   0  0  0  0  0  0
  -29.4507  -16.7537   22.2966 H   0  0  0  0  0  0
  -28.6130  -18.0441   19.6098 H   0  0  0  0  0  0
  -29.9414  -23.8327   19.8762 H   0  0  0  0  0  0
  -27.1912  -24.7618   21.2024 H   0  0  0  0  0  0
  -29.7440  -19.9441   18.4137 H   0  0  0  0  0  0
  -29.5232  -21.6808   18.3222 H   0  0  0  0  0  0
  -28.1122  -20.6199   18.3650 H   0  0  0  0  0  0
  -29.5126  -24.2536   22.6154 H   0  0  0  0  0  0
  -29.3671  -23.3808   24.1025 H   0  0  0  0  0  0
  -27.9065  -23.8138   23.2282 H   0  0  0  0  0  0
  -28.9826  -20.1559   26.3016 H   0  0  0  0  0  0
  -29.9762  -19.3386   25.1043 H   0  0  0  0  0  0
  -28.2001  -19.2234   25.0342 H   0  0  0  0  0  0
  1 25  1  0  0  0
  1 30  2  0  0  0
  1 86  1  0  0  0
  2  3  1  0  0  0
  2 25  1  0  0  0
  2 88  1  0  0  0
  2 89  1  0  0  0
  3  4  1  0  0  0
  3 90  1  0  0  0
  3 91  1  0  0  0
  4  5  1  0  0  0
  4 92  1  0  0  0
  4 93  1  0  0  0
  5  6  1  0  0  0
  5 26  1  0  0  0
  5 94  1  0  0  0
  6 25  1  0  0  0
  6 95  1  0  0  0
  6 96  1  0  0  0
  7  8  2  0  0  0
  7 26  1  0  0  0
  7 29  1  0  0  0
  8  9  1  0  0  0
  8 22  1  0  0  0
  9 10  1  0  0  0
  9 27  2  0  0  0
 10 11  2  0  0  0
 10 15  1  0  0  0
 11 12  1  0  0  0
 11 97  1  0  0  0
 12 13  2  0  0  0
 12 98  1  0  0  0
 13 14  1  0  0  0
 13 31  1  0  0  0
 14 15  2  0  0  0
 14 99  1  0  0  0
 15100  1  0  0  0
 16 17  2  0  0  0
 16 21  1  0  0  0
 16 31  1  0  0  0
 17 18  1  0  0  0
 17101  1  0  0  0
 18 19  2  0  0  0
 18102  1  0  0  0
 19 20  1  0  0  0
 19 24  1  0  0  0
 20 21  2  0  0  0
 20103  1  0  0  0
 21 23  1  0  0  0
 22 28  1  0  0  0
 22 32  2  0  0  0
 26 27  1  0  0  0
 28104  1  0  0  0
 28105  1  0  0  0
 29106  1  0  0  0
 29107  1  0  0  0
 33 34  1  0  0  0
 33 66  1  0  0  0
 33 70  2  0  0  0
 34 36  1  0  0  0
 34 59  1  0  0  0
 34108  1  0  0  0
 35 44  2  0  0  0
 35 45  1  0  0  0
 35 68  1  0  0  0
 36 56  1  0  0  0
 36109  1  0  0  0
 37 39  1  0  0  0
 37 47  1  0  0  0
 37 66  1  0  0  0
 37110  1  0  0  0
 38 43  2  0  0  0
 38 46  1  0  0  0
 38 47  1  0  0  0
 39 64  1  0  0  0
 39 67  2  0  0  0
 40 52  1  0  0  0
 40 53  2  0  0  0
 40 58  1  0  0  0
 41111  1  0  0  0
 41112  1  0  0  0
 41113  1  0  0  0
 41 48  1  0  0  0
 42 43  1  0  0  0
 42 66  1  0  0  0
 42114  1  0  0  0
 42115  1  0  0  0
 43 44  1  0  0  0
 44116  1  0  0  0
 45 46  2  0  0  0
 45117  1  0  0  0
 46118  1  0  0  0
 47119  1  0  0  0
 47120  1  0  0  0
 48 56  1  0  0  0
 48 65  1  0  0  0
 48121  1  0  0  0
 49 50  1  0  0  0
 49 53  1  0  0  0
 49 64  1  0  0  0
 49122  1  0  0  0
 50 51  1  0  0  0
 50123  1  0  0  0
 50124  1  0  0  0
 51 52  1  0  0  0
 51125  1  0  0  0
 51126  1  0  0  0
 52127  1  0  0  0
 52128  1  0  0  0
 53 54  1  0  0  0
 54 55  2  0  0  0
 54129  1  0  0  0
 55 57  1  0  0  0
 55130  1  0  0  0
 56 69  2  0  0  0
 57 58  2  0  0  0
 57131  1  0  0  0
 58132  1  0  0  0
 59 60  1  0  0  0
 59 61  1  0  0  0
 59 62  1  0  0  0
 60133  1  0  0  0
 60134  1  0  0  0
 60135  1  0  0  0
 61136  1  0  0  0
 61137  1  0  0  0
 61138  1  0  0  0
 62139  1  0  0  0
 62140  1  0  0  0
 62141  1  0  0  0
 63 65  1  0  0  0
 63142  1  0  0  0
 63143  1  0  0  0
 63144  1  0  0  0
 64145  1  0  0  0
 65146  1  0  0  0
 68 82  1  0  0  0
 71 72  2  0  0  0
 71 76  1  0  0  0
 71147  1  0  0  0
 72 74  1  0  0  0
 72 80  1  0  0  0
 73 74  2  0  0  0
 73 75  1  0  0  0
 73 81  1  0  0  0
 74 83  1  0  0  0
 75 76  2  0  0  0
 75 84  1  0  0  0
 76 87  1  0  0  0
 77 81  1  0  0  0
 77 82  1  0  0  0
 77148  1  0  0  0
 77149  1  0  0  0
 78 80  1  0  0  0
 78 86  1  0  0  0
 78150  1  0  0  0
 78151  1  0  0  0
 79 80  1  0  0  0
 79 86  1  0  0  0
 79152  1  0  0  0
 79153  1  0  0  0
 80154  1  0  0  0
 81 82  1  0  0  0
 81155  1  0  0  0
 82156  1  0  0  0
 83157  1  0  0  0
 83158  1  0  0  0
 83159  1  0  0  0
 84160  1  0  0  0
 84161  1  0  0  0
 84162  1  0  0  0
 85 87  1  0  0  0
 85163  1  0  0  0
 85164  1  0  0  0
 85165  1  0  0  0
M  ISO  4   1 100  68 101  82 101  86 100
M  END
> <chiral flag>
0

> <version>
0

> <s_m_source_file>
/data/baiqing/PycharmProjects/Reinvent-master-3.2/result/LINK_invent/BTK/process_docking_weight1_custom_sum_contain_oxygen_bond_distance_aromatic_linkinvent_7_9_3/rearranged_h_0166.sdf

> <i_m_source_file_index>
84

> <r_mmod_Potential_Energy-OPLS-2005>
320.680725097656

> <r_mmod_Stretch_Energy-OPLS-2005>
144.485153198242

> <r_mmod_Bend_Energy-OPLS-2005>
198.018707275391

> <r_mmod_Torsional_Energy-OPLS-2005>
292.507904052734

> <r_mmod_Improper_Torsional_Energy-OPLS-2005>
20.1259841918945

> <r_mmod_Van_der_Waal_Energy-OPLS-2005>
143.738800048828

> <r_mmod_Electrostatic_Energy-OPLS-2005>
-368.364562988281

> <r_mmod_Solvation_Energy-OPLS-2005>
-211.9248046875

> <b_mmod_Minimization_Converged-OPLS-2005>
0

> <r_mmod_RMS_Derivative-OPLS-2005>
0.215699508786201

$$$$
84
                    3D
 Structure written by MMmdl.
171182  0  0  1  0            999 V2000
  -30.7276  -14.5440   20.5889 C   0  0  0  0  0  0
  -30.4176  -12.3625   19.4424 C   0  0  0  0  0  0
  -29.4925  -12.5002   18.2163 C   0  0  0  0  0  0
  -28.0211  -12.3153   18.6303 C   0  0  0  0  0  0
  -27.6499  -13.1862   19.8545 C   0  0  2  0  0  0
  -28.6956  -13.0330   20.9907 C   0  0  0  0  0  0
  -25.2569  -13.8101   20.5646 C   0  0  0  0  0  0
  -24.1819  -13.0409   20.9190 C   0  0  0  0  0  0
  -24.6357  -11.6872   20.8761 C   0  0  0  0  0  0
  -23.9025  -10.4272   21.0432 C   0  0  0  0  0  0
  -24.3592   -9.4189   21.9201 C   0  0  0  0  0  0
  -23.6276   -8.2222   22.0758 C   0  0  0  0  0  0
  -22.4260   -8.0265   21.3545 C   0  0  0  0  0  0
  -21.9889   -9.0237   20.4650 C   0  0  0  0  0  0
  -22.7209  -10.2119   20.3068 C   0  0  0  0  0  0
  -21.6842   -6.0728   22.5280 C   0  0  0  0  0  0
  -21.4005   -6.5637   23.8213 C   0  0  0  0  0  0
  -21.3658   -5.6791   24.9177 C   0  0  0  0  0  0
  -21.6045   -4.3053   24.7228 C   0  0  0  0  0  0
  -21.8819   -3.8144   23.4349 C   0  0  0  0  0  0
  -21.9189   -4.6958   22.3405 C   0  0  0  0  0  0
  -22.7852  -13.5231   21.1859 C   0  0  0  0  0  0
  -22.1658   -4.2148   21.0982 F   0  0  0  0  0  0
  -21.5634   -3.4538   25.7739 F   0  0  0  0  0  0
  -30.0152  -13.3785   20.4417 N   0  0  0  0  0  0
  -26.2955  -12.9221   20.3270 N   0  0  0  0  0  0
  -25.9266  -11.6412   20.5760 N   0  0  0  0  0  0
  -22.0482  -12.8235   22.0417 N   0  0  0  0  0  0
  -25.4285  -15.1813   20.4013 N   0  0  0  0  0  0
  -31.8423  -14.6511   20.0660 O   0  0  0  0  0  0
  -21.6626   -6.8865   21.4240 O   0  0  0  0  0  0
  -22.3546  -14.5544   20.6707 O   0  0  0  0  0  0
  -24.6184  -31.8660   23.2080 C   0  0  0  0  0  0
  -25.9065  -32.4810   23.8385 C   0  0  1  0  0  0
  -27.2317  -27.4005   20.1021 C   0  0  0  0  0  0
  -25.5913  -33.8609   24.2319 N   0  0  0  0  0  0
  -23.4076  -30.4905   21.5493 C   0  0  2  0  0  0
  -24.8537  -28.9555   20.1123 C   0  0  0  0  0  0
  -22.7430  -29.4654   22.4971 C   0  0  0  0  0  0
  -18.0276  -28.1377   22.8491 C   0  0  0  0  0  0
  -24.1486  -36.7306   23.2638 C   0  0  0  0  0  0
  -25.9406  -30.8225   21.3653 C   0  0  0  0  0  0
  -26.0177  -29.4561   20.7088 C   0  0  0  0  0  0
  -27.2103  -28.6890   20.6949 C   0  0  0  0  0  0
  -26.0451  -26.9288   19.4919 C   0  0  0  0  0  0
  -24.8647  -27.6933   19.4980 C   0  0  0  0  0  0
  -23.6172  -29.8252   20.1636 C   0  0  0  0  0  0
  -25.4109  -36.3105   24.0335 C   0  0  1  0  0  0
  -20.5872  -28.3670   23.1305 C   0  0  2  0  0  0
  -20.6767  -26.9404   22.5413 C   0  0  0  0  0  0
  -19.5746  -26.6384   21.5212 C   0  0  0  0  0  0
  -18.1925  -26.7923   22.1621 C   0  0  0  0  0  0
  -19.1527  -28.8840   23.2897 C   0  0  0  0  0  0
  -18.9454  -30.1444   23.8909 C   0  0  0  0  0  0
  -17.6456  -30.6584   24.0563 C   0  0  0  0  0  0
  -25.9041  -34.9469   23.5124 C   0  0  0  0  0  0
  -16.5347  -29.9085   23.6326 C   0  0  0  0  0  0
  -16.7265  -28.6500   23.0350 C   0  0  0  0  0  0
  -26.4480  -31.6594   25.0722 C   0  0  0  0  0  0
  -25.3744  -31.3713   26.1472 C   0  0  0  0  0  0
  -27.0301  -30.3028   24.6113 C   0  0  0  0  0  0
  -27.6062  -32.4308   25.7481 C   0  0  0  0  0  0
  -27.5581  -37.1808   24.8464 C   0  0  0  0  0  0
  -21.4154  -29.3038   22.3711 N   0  0  0  0  0  0
  -26.4292  -37.3794   23.9410 N   0  0  0  0  0  0
  -24.6741  -31.0741   22.0990 N   0  0  0  0  0  0
  -23.4189  -28.8195   23.3022 O   0  0  0  0  0  0
  -28.3827  -26.6245   20.1398 O   0  0  0  0  0  0
  -26.5601  -34.8922   22.4685 O   0  0  0  0  0  0
  -23.5370  -32.1422   23.7461 O   0  0  0  0  0  0
  -29.3971  -21.0482   22.0428 C   0  0  0  0  0  0
  -29.9489  -20.4104   19.7836 C   0  0  0  0  0  0
  -29.7203  -20.0277   21.1208 C   0  0  0  0  0  0
  -29.2947  -22.4098   21.6581 C   0  0  0  0  0  0
  -29.4916  -22.7923   20.3019 C   0  0  0  0  0  0
  -29.8446  -21.7653   19.3773 C   0  0  0  0  0  0
  -29.9188  -24.5645   23.0333 C   0  0  0  0  0  0
  -29.7349  -23.4463   24.0297 C   0  0  0  0  0  0
  -28.8440  -17.6023   20.8498 C   0  0  0  0  0  0
  -31.2141  -17.9270   21.5097 C   0  0  0  0  0  0
  -28.4111  -24.6326   18.7412 C   0  0  0  0  0  0
  -28.9108  -16.1595   21.4200 C   0  0  0  0  0  0
  -31.2209  -16.4754   22.0733 C   0  0  0  0  0  0
  -29.8072  -18.5537   21.5817 C   0  0  0  0  0  0
  -28.9766  -23.4231   22.7209 C   0  0  0  0  0  0
  -29.3792  -24.2582   19.8490 C   0  0  1  0  0  0
  -28.1858  -25.1883   20.1212 C   0  0  1  0  0  0
  -30.1348  -22.0912   17.9209 C   0  0  0  0  0  0
  -30.2690  -15.5695   21.3842 N   0  0  0  0  0  0
  -31.4599  -12.4550   19.1331 H   0  0  0  0  0  0
  -30.3357  -11.3624   19.8710 H   0  0  0  0  0  0
  -29.7616  -11.7656   17.4560 H   0  0  0  0  0  0
  -29.6287  -13.4811   17.7580 H   0  0  0  0  0  0
  -27.8690  -11.2612   18.8651 H   0  0  0  0  0  0
  -27.3606  -12.5386   17.7916 H   0  0  0  0  0  0
  -27.6615  -14.2002   19.4639 H   0  0  0  0  0  0
  -28.7068  -12.0023   21.3483 H   0  0  0  0  0  0
  -28.4392  -13.6237   21.8688 H   0  0  0  0  0  0
  -25.2737   -9.5667   22.4775 H   0  0  0  0  0  0
  -23.9989   -7.4607   22.7471 H   0  0  0  0  0  0
  -21.0823   -8.8753   19.8951 H   0  0  0  0  0  0
  -22.3673  -10.9662   19.6179 H   0  0  0  0  0  0
  -21.1989   -7.6144   23.9716 H   0  0  0  0  0  0
  -21.1483   -6.0522   25.9081 H   0  0  0  0  0  0
  -22.0601   -2.7607   23.2849 H   0  0  0  0  0  0
  -22.4078  -11.9887   22.4806 H   0  0  0  0  0  0
  -21.1105  -13.1278   22.2625 H   0  0  0  0  0  0
  -24.6623  -15.8362   20.5138 H   0  0  0  0  0  0
  -26.2769  -15.6196   20.0679 H   0  0  0  0  0  0
  -26.7136  -32.5512   23.1146 H   0  0  0  0  0  0
  -25.0077  -33.9766   25.0475 H   0  0  0  0  0  0
  -22.6980  -31.3088   21.4100 H   0  0  0  0  0  0
  -23.3751  -35.9635   23.3297 H   0  0  0  0  0  0
  -24.3588  -36.8926   22.2054 H   0  0  0  0  0  0
  -23.7226  -37.6505   23.6655 H   0  0  0  0  0  0
  -26.0585  -31.5890   20.5981 H   0  0  0  0  0  0
  -26.8264  -30.8733   21.9869 H   0  0  0  0  0  0
  -28.1067  -29.0710   21.1630 H   0  0  0  0  0  0
  -26.0107  -25.9647   19.0059 H   0  0  0  0  0  0
  -23.9714  -27.3034   19.0297 H   0  0  0  0  0  0
  -23.7274  -30.6011   19.4052 H   0  0  0  0  0  0
  -22.7399  -29.2479   19.8659 H   0  0  0  0  0  0
  -25.1286  -36.1967   25.0827 H   0  0  0  0  0  0
  -20.9964  -28.3234   24.1424 H   0  0  0  0  0  0
  -20.5668  -26.2278   23.3603 H   0  0  0  0  0  0
  -21.6637  -26.7441   22.1203 H   0  0  0  0  0  0
  -19.6908  -25.6298   21.1234 H   0  0  0  0  0  0
  -19.6686  -27.3200   20.6746 H   0  0  0  0  0  0
  -17.4195  -26.6675   21.4023 H   0  0  0  0  0  0
  -18.0324  -26.0061   22.9010 H   0  0  0  0  0  0
  -19.7931  -30.7256   24.2285 H   0  0  0  0  0  0
  -17.5013  -31.6267   24.5158 H   0  0  0  0  0  0
  -15.5349  -30.2992   23.7645 H   0  0  0  0  0  0
  -15.8663  -28.0825   22.7061 H   0  0  0  0  0  0
  -24.5894  -30.7088   25.7806 H   0  0  0  0  0  0
  -24.8964  -32.2875   26.4949 H   0  0  0  0  0  0
  -25.8090  -30.8850   27.0213 H   0  0  0  0  0  0
  -26.2842  -29.6793   24.1167 H   0  0  0  0  0  0
  -27.4058  -29.7263   25.4576 H   0  0  0  0  0  0
  -27.8688  -30.4330   23.9270 H   0  0  0  0  0  0
  -27.2697  -33.3612   26.2065 H   0  0  0  0  0  0
  -28.3870  -32.6857   25.0302 H   0  0  0  0  0  0
  -28.0727  -31.8421   26.5391 H   0  0  0  0  0  0
  -28.2599  -38.0104   24.7516 H   0  0  0  0  0  0
  -28.1075  -36.2639   24.6280 H   0  0  0  0  0  0
  -27.2305  -37.1440   25.8869 H   0  0  0  0  0  0
  -20.9314  -29.8770   21.6941 H   0  0  0  0  0  0
  -26.0179  -38.2871   24.1419 H   0  0  0  0  0  0
  -29.2263  -20.7852   23.0781 H   0  0  0  0  0  0
  -30.2088  -19.6513   19.0585 H   0  0  0  0  0  0
  -30.8662  -24.6058   22.4987 H   0  0  0  0  0  0
  -29.4806  -25.5289   23.2834 H   0  0  0  0  0  0
  -29.1795  -23.6811   24.9356 H   0  0  0  0  0  0
  -30.5670  -22.7561   24.1572 H   0  0  0  0  0  0
  -27.8239  -17.9781   20.9404 H   0  0  0  0  0  0
  -29.0692  -17.5858   19.7828 H   0  0  0  0  0  0
  -31.5729  -17.9255   20.4794 H   0  0  0  0  0  0
  -31.9154  -18.5400   22.0775 H   0  0  0  0  0  0
  -27.6985  -23.8836   18.4027 H   0  0  0  0  0  0
  -28.7665  -25.3177   17.9743 H   0  0  0  0  0  0
  -28.1878  -15.5829   20.8695 H   0  0  0  0  0  0
  -28.5623  -16.1549   22.4537 H   0  0  0  0  0  0
  -30.9546  -16.4984   23.1309 H   0  0  0  0  0  0
  -32.2402  -16.0855   22.0511 H   0  0  0  0  0  0
  -29.5139  -18.5467   22.6330 H   0  0  0  0  0  0
  -27.9059  -23.6154   22.7675 H   0  0  0  0  0  0
  -30.3652  -24.7181   19.8292 H   0  0  0  0  0  0
  -27.3568  -24.8207   20.7248 H   0  0  0  0  0  0
  -30.6885  -21.2859   17.4372 H   0  0  0  0  0  0
  -30.7364  -22.9960   17.8295 H   0  0  0  0  0  0
  -29.2064  -22.2335   17.3676 H   0  0  0  0  0  0
  1 25  1  0  0  0
  1 30  2  0  0  0
  1 89  1  0  0  0
  2  3  1  0  0  0
  2 25  1  0  0  0
  2 90  1  0  0  0
  2 91  1  0  0  0
  3  4  1  0  0  0
  3 92  1  0  0  0
  3 93  1  0  0  0
  4  5  1  0  0  0
  4 94  1  0  0  0
  4 95  1  0  0  0
  5  6  1  0  0  0
  5 26  1  0  0  0
  5 96  1  0  0  0
  6 25  1  0  0  0
  6 97  1  0  0  0
  6 98  1  0  0  0
  7  8  2  0  0  0
  7 26  1  0  0  0
  7 29  1  0  0  0
  8  9  1  0  0  0
  8 22  1  0  0  0
  9 10  1  0  0  0
  9 27  2  0  0  0
 10 11  2  0  0  0
 10 15  1  0  0  0
 11 12  1  0  0  0
 11 99  1  0  0  0
 12 13  2  0  0  0
 12100  1  0  0  0
 13 14  1  0  0  0
 13 31  1  0  0  0
 14 15  2  0  0  0
 14101  1  0  0  0
 15102  1  0  0  0
 16 17  2  0  0  0
 16 21  1  0  0  0
 16 31  1  0  0  0
 17 18  1  0  0  0
 17103  1  0  0  0
 18 19  2  0  0  0
 18104  1  0  0  0
 19 20  1  0  0  0
 19 24  1  0  0  0
 20 21  2  0  0  0
 20105  1  0  0  0
 21 23  1  0  0  0
 22 28  1  0  0  0
 22 32  2  0  0  0
 26 27  1  0  0  0
 28106  1  0  0  0
 28107  1  0  0  0
 29108  1  0  0  0
 29109  1  0  0  0
 33 34  1  0  0  0
 33 66  1  0  0  0
 33 70  2  0  0  0
 34 36  1  0  0  0
 34 59  1  0  0  0
 34110  1  0  0  0
 35 44  2  0  0  0
 35 45  1  0  0  0
 35 68  1  0  0  0
 36 56  1  0  0  0
 36111  1  0  0  0
 37 39  1  0  0  0
 37 47  1  0  0  0
 37 66  1  0  0  0
 37112  1  0  0  0
 38 43  2  0  0  0
 38 46  1  0  0  0
 38 47  1  0  0  0
 39 64  1  0  0  0
 39 67  2  0  0  0
 40 52  1  0  0  0
 40 53  2  0  0  0
 40 58  1  0  0  0
 41113  1  0  0  0
 41114  1  0  0  0
 41115  1  0  0  0
 41 48  1  0  0  0
 42 43  1  0  0  0
 42 66  1  0  0  0
 42116  1  0  0  0
 42117  1  0  0  0
 43 44  1  0  0  0
 44118  1  0  0  0
 45 46  2  0  0  0
 45119  1  0  0  0
 46120  1  0  0  0
 47121  1  0  0  0
 47122  1  0  0  0
 48 56  1  0  0  0
 48 65  1  0  0  0
 48123  1  0  0  0
 49 50  1  0  0  0
 49 53  1  0  0  0
 49 64  1  0  0  0
 49124  1  0  0  0
 50 51  1  0  0  0
 50125  1  0  0  0
 50126  1  0  0  0
 51 52  1  0  0  0
 51127  1  0  0  0
 51128  1  0  0  0
 52129  1  0  0  0
 52130  1  0  0  0
 53 54  1  0  0  0
 54 55  2  0  0  0
 54131  1  0  0  0
 55 57  1  0  0  0
 55132  1  0  0  0
 56 69  2  0  0  0
 57 58  2  0  0  0
 57133  1  0  0  0
 58134  1  0  0  0
 59 60  1  0  0  0
 59 61  1  0  0  0
 59 62  1  0  0  0
 60135  1  0  0  0
 60136  1  0  0  0
 60137  1  0  0  0
 61138  1  0  0  0
 61139  1  0  0  0
 61140  1  0  0  0
 62141  1  0  0  0
 62142  1  0  0  0
 62143  1  0  0  0
 63 65  1  0  0  0
 63144  1  0  0  0
 63145  1  0  0  0
 63146  1  0  0  0
 64147  1  0  0  0
 65148  1  0  0  0
 68 87  1  0  0  0
 71 73  2  0  0  0
 71 74  1  0  0  0
 71149  1  0  0  0
 72 73  1  0  0  0
 72 76  2  0  0  0
 72150  1  0  0  0
 73 84  1  0  0  0
 74 75  2  0  0  0
 74 85  1  0  0  0
 75 76  1  0  0  0
 75 86  1  0  0  0
 76 88  1  0  0  0
 77 78  1  0  0  0
 77 85  1  0  0  0
 77151  1  0  0  0
 77152  1  0  0  0
 78 85  1  0  0  0
 78153  1  0  0  0
 78154  1  0  0  0
 79 82  1  0  0  0
 79 84  1  0  0  0
 79155  1  0  0  0
 79156  1  0  0  0
 80 83  1  0  0  0
 80 84  1  0  0  0
 80157  1  0  0  0
 80158  1  0  0  0
 81 86  1  0  0  0
 81 87  1  0  0  0
 81159  1  0  0  0
 81160  1  0  0  0
 82 89  1  0  0  0
 82161  1  0  0  0
 82162  1  0  0  0
 83 89  1  0  0  0
 83163  1  0  0  0
 83164  1  0  0  0
 84165  1  0  0  0
 85166  1  0  0  0
 86 87  1  0  0  0
 86167  1  0  0  0
 87168  1  0  0  0
 88169  1  0  0  0
 88170  1  0  0  0
 88171  1  0  0  0
M  ISO  4   1 100  68 101  87 101  89 100
M  END
> <chiral flag>
0

> <version>
0

> <s_m_source_file>
/data/baiqing/PycharmProjects/Reinvent-master-3.2/result/LINK_invent/BTK/process_docking_weight1_custom_sum_contain_oxygen_bond_distance_aromatic_linkinvent_7_9_3/rearranged_h_0166.sdf

> <i_m_source_file_index>
85

> <r_mmod_Potential_Energy-OPLS-2005>
222.584075927734

> <r_mmod_Stretch_Energy-OPLS-2005>
54.2472877502441

> <r_mmod_Bend_Energy-OPLS-2005>
130.196823120117

> <r_mmod_Torsional_Energy-OPLS-2005>
349.040008544922

> <r_mmod_Improper_Torsional_Energy-OPLS-2005>
2.88840842247009

> <r_mmod_Van_der_Waal_Energy-OPLS-2005>
157.328353881836

> <r_mmod_Electrostatic_Energy-OPLS-2005>
-301.118316650391

> <r_mmod_Solvation_Energy-OPLS-2005>
-192.655715942383

> <b_mmod_Minimization_Converged-OPLS-2005>
0

> <r_mmod_RMS_Derivative-OPLS-2005>
0.433304220438004

$$$$
85
                    3D
 Structure written by MMmdl.
168177  0  0  1  0            999 V2000
  -30.7223  -14.4927   20.5648 C   0  0  0  0  0  0
  -30.4238  -12.3185   19.4307 C   0  0  0  0  0  0
  -29.4989  -12.5086   18.2111 C   0  0  0  0  0  0
  -28.0197  -12.3634   18.6195 C   0  0  0  0  0  0
  -27.6581  -13.2086   19.8693 C   0  0  2  0  0  0
  -28.7045  -13.0180   20.9936 C   0  0  0  0  0  0
  -25.2458  -13.8044   20.5574 C   0  0  0  0  0  0
  -24.1782  -13.0334   20.9200 C   0  0  0  0  0  0
  -24.6393  -11.6837   20.8768 C   0  0  0  0  0  0
  -23.9071  -10.4235   21.0422 C   0  0  0  0  0  0
  -24.3614   -9.4156   21.9190 C   0  0  0  0  0  0
  -23.6270   -8.2205   22.0764 C   0  0  0  0  0  0
  -22.4254   -8.0264   21.3548 C   0  0  0  0  0  0
  -21.9902   -9.0239   20.4647 C   0  0  0  0  0  0
  -22.7251  -10.2100   20.3051 C   0  0  0  0  0  0
  -21.6844   -6.0723   22.5279 C   0  0  0  0  0  0
  -21.4014   -6.5625   23.8211 C   0  0  0  0  0  0
  -21.3643   -5.6778   24.9173 C   0  0  0  0  0  0
  -21.6034   -4.3041   24.7227 C   0  0  0  0  0  0
  -21.8822   -3.8139   23.4347 C   0  0  0  0  0  0
  -21.9194   -4.6953   22.3406 C   0  0  0  0  0  0
  -22.7807  -13.5152   21.1846 C   0  0  0  0  0  0
  -22.1667   -4.2143   21.0983 F   0  0  0  0  0  0
  -21.5612   -3.4529   25.7739 F   0  0  0  0  0  0
  -30.0386  -13.3173   20.4420 N   0  0  0  0  0  0
  -26.2984  -12.9298   20.3332 N   0  0  0  0  0  0
  -25.9327  -11.6455   20.5792 N   0  0  0  0  0  0
  -22.0433  -12.8193   22.0422 N   0  0  0  0  0  0
  -25.3872  -15.1713   20.3722 N   0  0  0  0  0  0
  -31.8561  -14.6392   20.1004 O   0  0  0  0  0  0
  -21.6613   -6.8869   21.4243 O   0  0  0  0  0  0
  -22.3511  -14.5467   20.6689 O   0  0  0  0  0  0
  -24.6144  -31.8675   23.2086 C   0  0  0  0  0  0
  -25.9043  -32.4830   23.8382 C   0  0  1  0  0  0
  -27.2496  -27.4393   20.0871 C   0  0  0  0  0  0
  -25.5907  -33.8624   24.2340 N   0  0  0  0  0  0
  -23.4023  -30.4884   21.5483 C   0  0  2  0  0  0
  -24.8496  -28.9484   20.1162 C   0  0  0  0  0  0
  -22.7410  -29.4652   22.4985 C   0  0  0  0  0  0
  -18.0281  -28.1377   22.8487 C   0  0  0  0  0  0
  -24.1476  -36.7296   23.2629 C   0  0  0  0  0  0
  -25.9287  -30.8319   21.3603 C   0  0  0  0  0  0
  -26.0057  -29.4633   20.7135 C   0  0  0  0  0  0
  -27.2006  -28.7119   20.7021 C   0  0  0  0  0  0
  -26.0674  -26.9261   19.5024 C   0  0  0  0  0  0
  -24.8739  -27.6780   19.5131 C   0  0  0  0  0  0
  -23.6111  -29.8155   20.1633 C   0  0  0  0  0  0
  -25.4096  -36.3111   24.0346 C   0  0  1  0  0  0
  -20.5871  -28.3658   23.1321 C   0  0  2  0  0  0
  -20.6771  -26.9395   22.5410 C   0  0  0  0  0  0
  -19.5743  -26.6384   21.5204 C   0  0  0  0  0  0
  -18.1927  -26.7927   22.1616 C   0  0  0  0  0  0
  -19.1534  -28.8834   23.2900 C   0  0  0  0  0  0
  -18.9458  -30.1440   23.8906 C   0  0  0  0  0  0
  -17.6459  -30.6576   24.0570 C   0  0  0  0  0  0
  -25.9023  -34.9482   23.5141 C   0  0  0  0  0  0
  -16.5354  -29.9071   23.6328 C   0  0  0  0  0  0
  -16.7274  -28.6498   23.0341 C   0  0  0  0  0  0
  -26.4466  -31.6607   25.0708 C   0  0  0  0  0  0
  -25.3738  -31.3737   26.1465 C   0  0  0  0  0  0
  -27.0290  -30.3055   24.6067 C   0  0  0  0  0  0
  -27.6041  -32.4324   25.7481 C   0  0  0  0  0  0
  -27.5593  -37.1789   24.8454 C   0  0  0  0  0  0
  -21.4142  -29.3027   22.3730 N   0  0  0  0  0  0
  -26.4281  -37.3805   23.9437 N   0  0  0  0  0  0
  -24.6670  -31.0771   22.0988 N   0  0  0  0  0  0
  -23.4187  -28.8189   23.3027 O   0  0  0  0  0  0
  -28.4582  -26.7694   20.1035 O   0  0  0  0  0  0
  -26.5566  -34.8941   22.4686 O   0  0  0  0  0  0
  -23.5341  -32.1422   23.7483 O   0  0  0  0  0  0
  -29.2526  -19.1043   20.4797 C   0  0  0  0  0  0
  -30.5200  -19.7016   20.5729 C   0  0  0  0  0  0
  -29.1089  -17.7227   20.6948 C   0  0  0  0  0  0
  -31.6004  -18.8488   20.9116 C   0  0  0  0  0  0
  -30.2426  -16.9196   20.9617 C   0  0  0  0  0  0
  -30.5746  -21.5208   18.7619 C   0  0  0  0  0  0
  -30.2536  -23.0220   18.7075 C   0  0  0  0  0  0
  -30.6889  -21.2021   20.2500 C   0  0  1  0  0  0
  -29.6587  -22.1800   20.8659 C   0  0  1  0  0  0
  -27.7243  -17.1291   20.5761 C   0  0  0  0  0  0
  -33.0162  -19.3699   21.0791 C   0  0  0  0  0  0
  -29.9166  -22.4329   22.3591 C   0  0  0  0  0  0
  -28.5290  -24.2819   20.0418 C   0  0  0  0  0  0
  -28.6936  -25.6231   19.2751 C   0  0  0  0  0  0
  -31.4556  -17.5115   21.0949 N   0  0  0  0  0  0
  -30.0211  -15.5128   21.1039 N   0  0  0  0  0  0
  -29.7586  -23.4251   20.0516 N   0  3  2  0  0  0
  -31.4688  -12.4062   19.1279 H   0  0  0  0  0  0
  -30.3181  -11.3131   19.8409 H   0  0  0  0  0  0
  -29.7451  -11.7836   17.4341 H   0  0  0  0  0  0
  -29.6650  -13.4937   17.7731 H   0  0  0  0  0  0
  -27.8322  -11.3076   18.8186 H   0  0  0  0  0  0
  -27.3728  -12.6333   17.7841 H   0  0  0  0  0  0
  -27.6916  -14.2505   19.5560 H   0  0  0  0  0  0
  -28.6849  -11.9890   21.3543 H   0  0  0  0  0  0
  -28.4594  -13.6325   21.8613 H   0  0  0  0  0  0
  -25.2758   -9.5618   22.4769 H   0  0  0  0  0  0
  -23.9961   -7.4597   22.7488 H   0  0  0  0  0  0
  -21.0830   -8.8769   19.8954 H   0  0  0  0  0  0
  -22.3725  -10.9640   19.6155 H   0  0  0  0  0  0
  -21.2021   -7.6135   23.9713 H   0  0  0  0  0  0
  -21.1448   -6.0509   25.9072 H   0  0  0  0  0  0
  -22.0620   -2.7603   23.2856 H   0  0  0  0  0  0
  -22.4001  -11.9841   22.4823 H   0  0  0  0  0  0
  -21.1057  -13.1257   22.2604 H   0  0  0  0  0  0
  -24.5869  -15.7922   20.4271 H   0  0  0  0  0  0
  -26.1799  -15.5914   19.9107 H   0  0  0  0  0  0
  -26.7103  -32.5552   23.1138 H   0  0  0  0  0  0
  -25.0129  -33.9779   25.0534 H   0  0  0  0  0  0
  -22.6906  -31.3041   21.4067 H   0  0  0  0  0  0
  -23.3766  -35.9592   23.3256 H   0  0  0  0  0  0
  -24.3585  -36.8942   22.2051 H   0  0  0  0  0  0
  -23.7182  -37.6477   23.6649 H   0  0  0  0  0  0
  -26.0338  -31.5940   20.5863 H   0  0  0  0  0  0
  -26.8202  -30.8945   21.9731 H   0  0  0  0  0  0
  -28.0940  -29.1101   21.1631 H   0  0  0  0  0  0
  -26.0401  -25.9470   19.0480 H   0  0  0  0  0  0
  -23.9803  -27.2734   19.0583 H   0  0  0  0  0  0
  -23.7176  -30.5856   19.3980 H   0  0  0  0  0  0
  -22.7370  -29.2316   19.8716 H   0  0  0  0  0  0
  -25.1257  -36.1977   25.0835 H   0  0  0  0  0  0
  -20.9967  -28.3222   24.1440 H   0  0  0  0  0  0
  -20.5678  -26.2253   23.3589 H   0  0  0  0  0  0
  -21.6640  -26.7441   22.1210 H   0  0  0  0  0  0
  -19.6900  -25.6298   21.1218 H   0  0  0  0  0  0
  -19.6686  -27.3198   20.6739 H   0  0  0  0  0  0
  -17.4196  -26.6693   21.4017 H   0  0  0  0  0  0
  -18.0319  -26.0073   22.9014 H   0  0  0  0  0  0
  -19.7927  -30.7260   24.2286 H   0  0  0  0  0  0
  -17.5009  -31.6260   24.5156 H   0  0  0  0  0  0
  -15.5354  -30.2973   23.7640 H   0  0  0  0  0  0
  -15.8677  -28.0817   22.7044 H   0  0  0  0  0  0
  -24.5885  -30.7106   25.7823 H   0  0  0  0  0  0
  -24.8953  -32.2908   26.4910 H   0  0  0  0  0  0
  -25.8093  -30.8910   27.0221 H   0  0  0  0  0  0
  -26.2828  -29.6843   24.1102 H   0  0  0  0  0  0
  -27.4060  -29.7268   25.4509 H   0  0  0  0  0  0
  -27.8656  -30.4385   23.9205 H   0  0  0  0  0  0
  -27.2662  -33.3633   26.2046 H   0  0  0  0  0  0
  -28.3862  -32.6875   25.0320 H   0  0  0  0  0  0
  -28.0680  -31.8453   26.5418 H   0  0  0  0  0  0
  -28.2555  -38.0141   24.7599 H   0  0  0  0  0  0
  -28.1152  -36.2689   24.6147 H   0  0  0  0  0  0
  -27.2338  -37.1288   25.8858 H   0  0  0  0  0  0
  -20.9292  -29.8754   21.6963 H   0  0  0  0  0  0
  -26.0178  -38.2873   24.1487 H   0  0  0  0  0  0
  -28.3854  -19.6920   20.2163 H   0  0  0  0  0  0
  -31.4731  -21.2586   18.2025 H   0  0  0  0  0  0
  -29.7435  -20.9693   18.3199 H   0  0  0  0  0  0
  -29.5302  -23.2232   17.9156 H   0  0  0  0  0  0
  -31.1515  -23.5977   18.4772 H   0  0  0  0  0  0
  -31.6748  -21.5328   20.5789 H   0  0  0  0  0  0
  -28.6488  -21.7917   20.7341 H   0  0  0  0  0  0
  -26.9532  -17.9006   20.5663 H   0  0  0  0  0  0
  -27.5153  -16.4687   21.4180 H   0  0  0  0  0  0
  -27.6536  -16.5726   19.6427 H   0  0  0  0  0  0
  -33.3633  -19.8487   20.1635 H   0  0  0  0  0  0
  -33.7161  -18.5689   21.3213 H   0  0  0  0  0  0
  -33.0601  -20.0990   21.8886 H   0  0  0  0  0  0
  -30.9063  -22.8561   22.5337 H   0  0  0  0  0  0
  -29.8581  -21.4988   22.9195 H   0  0  0  0  0  0
  -29.1792  -23.1127   22.7854 H   0  0  0  0  0  0
  -27.6982  -23.7213   19.6107 H   0  0  0  0  0  0
  -28.2423  -24.4983   21.0709 H   0  0  0  0  0  0
  -28.1000  -25.6349   18.3608 H   0  0  0  0  0  0
  -29.7219  -25.7281   18.9292 H   0  0  0  0  0  0
  -29.0951  -15.2552   21.3991 H   0  0  0  0  0  0
  -30.5027  -23.9713   20.4631 H   0  0  0  0  0  0
  1 25  1  0  0  0
  1 30  2  0  0  0
  1 86  1  0  0  0
  2  3  1  0  0  0
  2 25  1  0  0  0
  2 88  1  0  0  0
  2 89  1  0  0  0
  3  4  1  0  0  0
  3 90  1  0  0  0
  3 91  1  0  0  0
  4  5  1  0  0  0
  4 92  1  0  0  0
  4 93  1  0  0  0
  5  6  1  0  0  0
  5 26  1  0  0  0
  5 94  1  0  0  0
  6 25  1  0  0  0
  6 95  1  0  0  0
  6 96  1  0  0  0
  7  8  2  0  0  0
  7 26  1  0  0  0
  7 29  1  0  0  0
  8  9  1  0  0  0
  8 22  1  0  0  0
  9 10  1  0  0  0
  9 27  2  0  0  0
 10 11  2  0  0  0
 10 15  1  0  0  0
 11 12  1  0  0  0
 11 97  1  0  0  0
 12 13  2  0  0  0
 12 98  1  0  0  0
 13 14  1  0  0  0
 13 31  1  0  0  0
 14 15  2  0  0  0
 14 99  1  0  0  0
 15100  1  0  0  0
 16 17  2  0  0  0
 16 21  1  0  0  0
 16 31  1  0  0  0
 17 18  1  0  0  0
 17101  1  0  0  0
 18 19  2  0  0  0
 18102  1  0  0  0
 19 20  1  0  0  0
 19 24  1  0  0  0
 20 21  2  0  0  0
 20103  1  0  0  0
 21 23  1  0  0  0
 22 28  1  0  0  0
 22 32  2  0  0  0
 26 27  1  0  0  0
 28104  1  0  0  0
 28105  1  0  0  0
 29106  1  0  0  0
 29107  1  0  0  0
 33 34  1  0  0  0
 33 66  1  0  0  0
 33 70  2  0  0  0
 34 36  1  0  0  0
 34 59  1  0  0  0
 34108  1  0  0  0
 35 44  2  0  0  0
 35 45  1  0  0  0
 35 68  1  0  0  0
 36 56  1  0  0  0
 36109  1  0  0  0
 37 39  1  0  0  0
 37 47  1  0  0  0
 37 66  1  0  0  0
 37110  1  0  0  0
 38 43  2  0  0  0
 38 46  1  0  0  0
 38 47  1  0  0  0
 39 64  1  0  0  0
 39 67  2  0  0  0
 40 52  1  0  0  0
 40 53  2  0  0  0
 40 58  1  0  0  0
 41111  1  0  0  0
 41112  1  0  0  0
 41113  1  0  0  0
 41 48  1  0  0  0
 42 43  1  0  0  0
 42 66  1  0  0  0
 42114  1  0  0  0
 42115  1  0  0  0
 43 44  1  0  0  0
 44116  1  0  0  0
 45 46  2  0  0  0
 45117  1  0  0  0
 46118  1  0  0  0
 47119  1  0  0  0
 47120  1  0  0  0
 48 56  1  0  0  0
 48 65  1  0  0  0
 48121  1  0  0  0
 49 50  1  0  0  0
 49 53  1  0  0  0
 49 64  1  0  0  0
 49122  1  0  0  0
 50 51  1  0  0  0
 50123  1  0  0  0
 50124  1  0  0  0
 51 52  1  0  0  0
 51125  1  0  0  0
 51126  1  0  0  0
 52127  1  0  0  0
 52128  1  0  0  0
 53 54  1  0  0  0
 54 55  2  0  0  0
 54129  1  0  0  0
 55 57  1  0  0  0
 55130  1  0  0  0
 56 69  2  0  0  0
 57 58  2  0  0  0
 57131  1  0  0  0
 58132  1  0  0  0
 59 60  1  0  0  0
 59 61  1  0  0  0
 59 62  1  0  0  0
 60133  1  0  0  0
 60134  1  0  0  0
 60135  1  0  0  0
 61136  1  0  0  0
 61137  1  0  0  0
 61138  1  0  0  0
 62139  1  0  0  0
 62140  1  0  0  0
 62141  1  0  0  0
 63 65  1  0  0  0
 63142  1  0  0  0
 63143  1  0  0  0
 63144  1  0  0  0
 64145  1  0  0  0
 65146  1  0  0  0
 68 84  1  0  0  0
 71 72  2  0  0  0
 71 73  1  0  0  0
 71147  1  0  0  0
 72 74  1  0  0  0
 72 78  1  0  0  0
 73 75  2  0  0  0
 73 80  1  0  0  0
 74 81  1  0  0  0
 74 85  2  0  0  0
 75 85  1  0  0  0
 75 86  1  0  0  0
 76 77  1  0  0  0
 76 78  1  0  0  0
 76148  1  0  0  0
 76149  1  0  0  0
 77 87  1  0  0  0
 77150  1  0  0  0
 77151  1  0  0  0
 78 79  1  0  0  0
 78152  1  0  0  0
 79 82  1  0  0  0
 79 87  1  0  0  0
 79153  1  0  0  0
 80154  1  0  0  0
 80155  1  0  0  0
 80156  1  0  0  0
 81157  1  0  0  0
 81158  1  0  0  0
 81159  1  0  0  0
 82160  1  0  0  0
 82161  1  0  0  0
 82162  1  0  0  0
 83 84  1  0  0  0
 83163  1  0  0  0
 83164  1  0  0  0
 83 87  1  0  0  0
 84165  1  0  0  0
 84166  1  0  0  0
 86167  1  0  0  0
 87168  1  0  0  0
M  CHG  1  87   1
M  ISO  4   1 100  68 101  84 101  86 100
M  END
> <chiral flag>
0

> <version>
0

> <s_m_source_file>
/data/baiqing/PycharmProjects/Reinvent-master-3.2/result/LINK_invent/BTK/process_docking_weight1_custom_sum_contain_oxygen_bond_distance_aromatic_linkinvent_7_9_3/rearranged_h_0166.sdf

> <i_m_source_file_index>
86

> <r_mmod_Potential_Energy-OPLS-2005>
-223.119003295898

> <r_mmod_Stretch_Energy-OPLS-2005>
40.5530891418457

> <r_mmod_Bend_Energy-OPLS-2005>
135.436080932617

> <r_mmod_Torsional_Energy-OPLS-2005>
285.306518554688

> <r_mmod_Improper_Torsional_Energy-OPLS-2005>
5.08273315429688

> <r_mmod_Van_der_Waal_Energy-OPLS-2005>
153.320068359375

> <r_mmod_Electrostatic_Energy-OPLS-2005>
-400.921752929688

> <r_mmod_Solvation_Energy-OPLS-2005>
-456.997436523438

> <b_mmod_Minimization_Converged-OPLS-2005>
0

> <r_mmod_RMS_Derivative-OPLS-2005>
1.62418186664581

$$$$
86
                    3D
 Structure written by MMmdl.
172181  0  0  1  0            999 V2000
  -30.7229  -14.4615   20.6009 C   0  0  0  0  0  0
  -30.4202  -12.3137   19.4198 C   0  0  0  0  0  0
  -29.4912  -12.5120   18.2052 C   0  0  0  0  0  0
  -28.0134  -12.3710   18.6179 C   0  0  0  0  0  0
  -27.6606  -13.2099   19.8753 C   0  0  2  0  0  0
  -28.7028  -12.9934   20.9957 C   0  0  0  0  0  0
  -25.2573  -13.8171   20.5681 C   0  0  0  0  0  0
  -24.1832  -13.0439   20.9170 C   0  0  0  0  0  0
  -24.6394  -11.6906   20.8721 C   0  0  0  0  0  0
  -23.9066  -10.4294   21.0398 C   0  0  0  0  0  0
  -24.3618   -9.4207   21.9175 C   0  0  0  0  0  0
  -23.6291   -8.2244   22.0747 C   0  0  0  0  0  0
  -22.4271   -8.0282   21.3544 C   0  0  0  0  0  0
  -21.9913   -9.0253   20.4639 C   0  0  0  0  0  0
  -22.7238  -10.2132   20.3045 C   0  0  0  0  0  0
  -21.6850   -6.0733   22.5277 C   0  0  0  0  0  0
  -21.4017   -6.5639   23.8211 C   0  0  0  0  0  0
  -21.3660   -5.6790   24.9171 C   0  0  0  0  0  0
  -21.6046   -4.3054   24.7227 C   0  0  0  0  0  0
  -21.8822   -3.8142   23.4346 C   0  0  0  0  0  0
  -21.9195   -4.6957   22.3398 C   0  0  0  0  0  0
  -22.7855  -13.5228   21.1840 C   0  0  0  0  0  0
  -22.1663   -4.2143   21.0974 F   0  0  0  0  0  0
  -21.5629   -3.4539   25.7745 F   0  0  0  0  0  0
  -30.0344  -13.2972   20.4451 N   0  0  0  0  0  0
  -26.3018  -12.9345   20.3369 N   0  0  0  0  0  0
  -25.9324  -11.6502   20.5763 N   0  0  0  0  0  0
  -22.0504  -12.8214   22.0398 N   0  0  0  0  0  0
  -25.4283  -15.1892   20.4095 N   0  0  0  0  0  0
  -31.8291  -14.6569   20.0902 O   0  0  0  0  0  0
  -21.6635   -6.8877   21.4240 O   0  0  0  0  0  0
  -22.3535  -14.5535   20.6694 O   0  0  0  0  0  0
  -24.6146  -31.8680   23.2112 C   0  0  0  0  0  0
  -25.9039  -32.4815   23.8407 C   0  0  1  0  0  0
  -27.2270  -27.4151   20.0985 C   0  0  0  0  0  0
  -25.5895  -33.8620   24.2332 N   0  0  0  0  0  0
  -23.4026  -30.4942   21.5524 C   0  0  2  0  0  0
  -24.8467  -28.9619   20.1139 C   0  0  0  0  0  0
  -22.7398  -29.4671   22.4987 C   0  0  0  0  0  0
  -18.0271  -28.1370   22.8487 C   0  0  0  0  0  0
  -24.1492  -36.7324   23.2643 C   0  0  0  0  0  0
  -25.9347  -30.8264   21.3689 C   0  0  0  0  0  0
  -26.0089  -29.4615   20.7126 C   0  0  0  0  0  0
  -27.1998  -28.6967   20.7014 C   0  0  0  0  0  0
  -26.0423  -26.9415   19.4822 C   0  0  0  0  0  0
  -24.8593  -27.7014   19.4958 C   0  0  0  0  0  0
  -23.6105  -29.8311   20.1659 C   0  0  0  0  0  0
  -25.4113  -36.3113   24.0341 C   0  0  1  0  0  0
  -20.5861  -28.3663   23.1307 C   0  0  2  0  0  0
  -20.6762  -26.9404   22.5408 C   0  0  0  0  0  0
  -19.5746  -26.6381   21.5203 C   0  0  0  0  0  0
  -18.1919  -26.7916   22.1610 C   0  0  0  0  0  0
  -19.1521  -28.8831   23.2895 C   0  0  0  0  0  0
  -18.9453  -30.1434   23.8910 C   0  0  0  0  0  0
  -17.6460  -30.6581   24.0561 C   0  0  0  0  0  0
  -25.9039  -34.9478   23.5137 C   0  0  0  0  0  0
  -16.5348  -29.9084   23.6330 C   0  0  0  0  0  0
  -16.7263  -28.6499   23.0357 C   0  0  0  0  0  0
  -26.4474  -31.6592   25.0729 C   0  0  0  0  0  0
  -25.3739  -31.3668   26.1470 C   0  0  0  0  0  0
  -27.0321  -30.3033   24.6117 C   0  0  0  0  0  0
  -27.6054  -32.4314   25.7479 C   0  0  0  0  0  0
  -27.5590  -37.1810   24.8466 C   0  0  0  0  0  0
  -21.4130  -29.3033   22.3713 N   0  0  0  0  0  0
  -26.4305  -37.3790   23.9409 N   0  0  0  0  0  0
  -24.6689  -31.0777   22.1014 N   0  0  0  0  0  0
  -23.4168  -28.8203   23.3021 O   0  0  0  0  0  0
  -28.3933  -26.6664   20.1410 O   0  0  0  0  0  0
  -26.5608  -34.8921   22.4702 O   0  0  0  0  0  0
  -23.5343  -32.1459   23.7494 O   0  0  0  0  0  0
  -29.7262  -19.1080   22.0991 C   0  0  0  0  0  0
  -28.5490  -18.1437   24.4457 C   0  0  0  0  0  0
  -29.0429  -20.0214   22.9498 C   0  0  0  0  0  0
  -29.8359  -17.7225   22.4132 C   0  0  0  0  0  0
  -28.4296  -19.5077   24.1241 C   0  0  0  0  0  0
  -29.2684  -17.2547   23.6280 C   0  0  0  0  0  0
  -30.1488  -22.3215   23.3516 C   0  0  0  0  0  0
  -30.1946  -23.6698   22.6099 C   0  0  0  0  0  0
  -29.0079  -21.5471   22.6858 C   0  0  1  0  0  0
  -29.0241  -22.1185   21.2519 C   0  0  1  0  0  0
  -27.6538  -20.3926   25.0905 C   0  0  0  0  0  0
  -29.4327  -15.8276   24.1292 C   0  0  0  0  0  0
  -27.7521  -21.8065   20.4455 C   0  0  0  0  0  0
  -30.6334  -16.7991   21.4727 C   0  0  0  0  0  0
  -29.5329  -24.4488   20.3161 C   0  0  0  0  0  0
  -28.3078  -25.2615   19.8227 C   0  0  0  0  0  0
  -30.0891  -15.4466   21.2626 N   0  0  0  0  0  0
  -29.2214  -23.5789   21.4932 N   0  3  2  0  0  0
  -31.4638  -12.4121   19.1150 H   0  0  0  0  0  0
  -30.3216  -11.3028   19.8175 H   0  0  0  0  0  0
  -29.7307  -11.7892   17.4238 H   0  0  0  0  0  0
  -29.6581  -13.4992   17.7702 H   0  0  0  0  0  0
  -27.8228  -11.3148   18.8114 H   0  0  0  0  0  0
  -27.3631  -12.6484   17.7876 H   0  0  0  0  0  0
  -27.7047  -14.2579   19.5781 H   0  0  0  0  0  0
  -28.6795  -11.9587   21.3403 H   0  0  0  0  0  0
  -28.4586  -13.5951   21.8708 H   0  0  0  0  0  0
  -25.2766   -9.5684   22.4742 H   0  0  0  0  0  0
  -24.0003   -7.4640   22.7469 H   0  0  0  0  0  0
  -21.0843   -8.8764   19.8945 H   0  0  0  0  0  0
  -22.3693  -10.9665   19.6148 H   0  0  0  0  0  0
  -21.2008   -7.6148   23.9715 H   0  0  0  0  0  0
  -21.1481   -6.0518   25.9076 H   0  0  0  0  0  0
  -22.0601   -2.7605   23.2847 H   0  0  0  0  0  0
  -22.4132  -11.9873   22.4772 H   0  0  0  0  0  0
  -21.1118  -13.1220   22.2609 H   0  0  0  0  0  0
  -24.6628  -15.8441   20.5230 H   0  0  0  0  0  0
  -26.2860  -15.6322   20.1049 H   0  0  0  0  0  0
  -26.7096  -32.5510   23.1159 H   0  0  0  0  0  0
  -25.0016  -33.9795   25.0454 H   0  0  0  0  0  0
  -22.6920  -31.3121   21.4161 H   0  0  0  0  0  0
  -23.3754  -35.9658   23.3301 H   0  0  0  0  0  0
  -24.3590  -36.8957   22.2061 H   0  0  0  0  0  0
  -23.7255  -37.6530   23.6664 H   0  0  0  0  0  0
  -26.0563  -31.5921   20.6011 H   0  0  0  0  0  0
  -26.8199  -30.8739   21.9925 H   0  0  0  0  0  0
  -28.0953  -29.0776   21.1736 H   0  0  0  0  0  0
  -26.0000  -25.9847   18.9828 H   0  0  0  0  0  0
  -23.9654  -27.3120   19.0282 H   0  0  0  0  0  0
  -23.7163  -30.6078   19.4068 H   0  0  0  0  0  0
  -22.7328  -29.2529   19.8714 H   0  0  0  0  0  0
  -25.1285  -36.1986   25.0834 H   0  0  0  0  0  0
  -20.9957  -28.3242   24.1427 H   0  0  0  0  0  0
  -20.5666  -26.2278   23.3598 H   0  0  0  0  0  0
  -21.6640  -26.7438   22.1221 H   0  0  0  0  0  0
  -19.6920  -25.6295   21.1226 H   0  0  0  0  0  0
  -19.6692  -27.3189   20.6736 H   0  0  0  0  0  0
  -17.4195  -26.6669   21.4001 H   0  0  0  0  0  0
  -18.0316  -26.0043   22.8992 H   0  0  0  0  0  0
  -19.7937  -30.7228   24.2300 H   0  0  0  0  0  0
  -17.5028  -31.6271   24.5149 H   0  0  0  0  0  0
  -15.5353  -30.2997   23.7652 H   0  0  0  0  0  0
  -15.8655  -28.0819   22.7084 H   0  0  0  0  0  0
  -24.5959  -30.6955   25.7809 H   0  0  0  0  0  0
  -24.8860  -32.2795   26.4897 H   0  0  0  0  0  0
  -25.8113  -30.8872   27.0237 H   0  0  0  0  0  0
  -26.2876  -29.6752   24.1206 H   0  0  0  0  0  0
  -27.4141  -29.7299   25.4577 H   0  0  0  0  0  0
  -27.8681  -30.4364   23.9246 H   0  0  0  0  0  0
  -27.2706  -33.3627   26.2064 H   0  0  0  0  0  0
  -28.3852  -32.6863   25.0283 H   0  0  0  0  0  0
  -28.0733  -31.8427   26.5383 H   0  0  0  0  0  0
  -28.2599  -38.0113   24.7523 H   0  0  0  0  0  0
  -28.1105  -36.2648   24.6287 H   0  0  0  0  0  0
  -27.2305  -37.1456   25.8868 H   0  0  0  0  0  0
  -20.9279  -29.8770   21.6951 H   0  0  0  0  0  0
  -26.0200  -38.2877   24.1392 H   0  0  0  0  0  0
  -30.2031  -19.4761   21.2015 H   0  0  0  0  0  0
  -28.1010  -17.7743   25.3589 H   0  0  0  0  0  0
  -30.0057  -22.4420   24.4257 H   0  0  0  0  0  0
  -31.0941  -21.7977   23.2050 H   0  0  0  0  0  0
  -31.2062  -23.8400   22.2383 H   0  0  0  0  0  0
  -29.9409  -24.5042   23.2648 H   0  0  0  0  0  0
  -28.0782  -21.9210   23.1130 H   0  0  0  0  0  0
  -29.8959  -21.7364   20.7178 H   0  0  0  0  0  0
  -27.3310  -19.8384   25.9724 H   0  0  0  0  0  0
  -26.7572  -20.7899   24.6139 H   0  0  0  0  0  0
  -28.2623  -21.2250   25.4423 H   0  0  0  0  0  0
  -29.3134  -15.7767   25.2120 H   0  0  0  0  0  0
  -30.4246  -15.4336   23.9066 H   0  0  0  0  0  0
  -28.6809  -15.1760   23.6857 H   0  0  0  0  0  0
  -26.8557  -22.1997   20.9249 H   0  0  0  0  0  0
  -27.6203  -20.7296   20.3376 H   0  0  0  0  0  0
  -27.8075  -22.2240   19.4396 H   0  0  0  0  0  0
  -31.6443  -16.7144   21.8768 H   0  0  0  0  0  0
  -30.7349  -17.2783   20.4980 H   0  0  0  0  0  0
  -30.3370  -25.1471   20.5524 H   0  0  0  0  0  0
  -29.9144  -23.8273   19.5050 H   0  0  0  0  0  0
  -27.4027  -24.8165   20.2391 H   0  0  0  0  0  0
  -28.2337  -25.1699   18.7382 H   0  0  0  0  0  0
  -29.1717  -15.2515   21.6304 H   0  0  0  0  0  0
  -28.3565  -23.9243   21.8850 H   0  0  0  0  0  0
  1 25  1  0  0  0
  1 30  2  0  0  0
  1 87  1  0  0  0
  2  3  1  0  0  0
  2 25  1  0  0  0
  2 89  1  0  0  0
  2 90  1  0  0  0
  3  4  1  0  0  0
  3 91  1  0  0  0
  3 92  1  0  0  0
  4  5  1  0  0  0
  4 93  1  0  0  0
  4 94  1  0  0  0
  5  6  1  0  0  0
  5 26  1  0  0  0
  5 95  1  0  0  0
  6 25  1  0  0  0
  6 96  1  0  0  0
  6 97  1  0  0  0
  7  8  2  0  0  0
  7 26  1  0  0  0
  7 29  1  0  0  0
  8  9  1  0  0  0
  8 22  1  0  0  0
  9 10  1  0  0  0
  9 27  2  0  0  0
 10 11  2  0  0  0
 10 15  1  0  0  0
 11 12  1  0  0  0
 11 98  1  0  0  0
 12 13  2  0  0  0
 12 99  1  0  0  0
 13 14  1  0  0  0
 13 31  1  0  0  0
 14 15  2  0  0  0
 14100  1  0  0  0
 15101  1  0  0  0
 16 17  2  0  0  0
 16 21  1  0  0  0
 16 31  1  0  0  0
 17 18  1  0  0  0
 17102  1  0  0  0
 18 19  2  0  0  0
 18103  1  0  0  0
 19 20  1  0  0  0
 19 24  1  0  0  0
 20 21  2  0  0  0
 20104  1  0  0  0
 21 23  1  0  0  0
 22 28  1  0  0  0
 22 32  2  0  0  0
 26 27  1  0  0  0
 28105  1  0  0  0
 28106  1  0  0  0
 29107  1  0  0  0
 29108  1  0  0  0
 33 34  1  0  0  0
 33 66  1  0  0  0
 33 70  2  0  0  0
 34 36  1  0  0  0
 34 59  1  0  0  0
 34109  1  0  0  0
 35 44  2  0  0  0
 35 45  1  0  0  0
 35 68  1  0  0  0
 36 56  1  0  0  0
 36110  1  0  0  0
 37 39  1  0  0  0
 37 47  1  0  0  0
 37 66  1  0  0  0
 37111  1  0  0  0
 38 43  2  0  0  0
 38 46  1  0  0  0
 38 47  1  0  0  0
 39 64  1  0  0  0
 39 67  2  0  0  0
 40 52  1  0  0  0
 40 53  2  0  0  0
 40 58  1  0  0  0
 41112  1  0  0  0
 41113  1  0  0  0
 41114  1  0  0  0
 41 48  1  0  0  0
 42 43  1  0  0  0
 42 66  1  0  0  0
 42115  1  0  0  0
 42116  1  0  0  0
 43 44  1  0  0  0
 44117  1  0  0  0
 45 46  2  0  0  0
 45118  1  0  0  0
 46119  1  0  0  0
 47120  1  0  0  0
 47121  1  0  0  0
 48 56  1  0  0  0
 48 65  1  0  0  0
 48122  1  0  0  0
 49 50  1  0  0  0
 49 53  1  0  0  0
 49 64  1  0  0  0
 49123  1  0  0  0
 50 51  1  0  0  0
 50124  1  0  0  0
 50125  1  0  0  0
 51 52  1  0  0  0
 51126  1  0  0  0
 51127  1  0  0  0
 52128  1  0  0  0
 52129  1  0  0  0
 53 54  1  0  0  0
 54 55  2  0  0  0
 54130  1  0  0  0
 55 57  1  0  0  0
 55131  1  0  0  0
 56 69  2  0  0  0
 57 58  2  0  0  0
 57132  1  0  0  0
 58133  1  0  0  0
 59 60  1  0  0  0
 59 61  1  0  0  0
 59 62  1  0  0  0
 60134  1  0  0  0
 60135  1  0  0  0
 60136  1  0  0  0
 61137  1  0  0  0
 61138  1  0  0  0
 61139  1  0  0  0
 62140  1  0  0  0
 62141  1  0  0  0
 62142  1  0  0  0
 63 65  1  0  0  0
 63143  1  0  0  0
 63144  1  0  0  0
 63145  1  0  0  0
 64146  1  0  0  0
 65147  1  0  0  0
 68 86  1  0  0  0
 71 73  2  0  0  0
 71 74  1  0  0  0
 71148  1  0  0  0
 72 75  2  0  0  0
 72 76  1  0  0  0
 72149  1  0  0  0
 73 75  1  0  0  0
 73 79  1  0  0  0
 74 76  2  0  0  0
 74 84  1  0  0  0
 75 81  1  0  0  0
 76 82  1  0  0  0
 77 78  1  0  0  0
 77 79  1  0  0  0
 77150  1  0  0  0
 77151  1  0  0  0
 78 88  1  0  0  0
 78152  1  0  0  0
 78153  1  0  0  0
 79 80  1  0  0  0
 79154  1  0  0  0
 80 83  1  0  0  0
 80 88  1  0  0  0
 80155  1  0  0  0
 81156  1  0  0  0
 81157  1  0  0  0
 81158  1  0  0  0
 82159  1  0  0  0
 82160  1  0  0  0
 82161  1  0  0  0
 83162  1  0  0  0
 83163  1  0  0  0
 83164  1  0  0  0
 84 87  1  0  0  0
 84165  1  0  0  0
 84166  1  0  0  0
 85 86  1  0  0  0
 85167  1  0  0  0
 85168  1  0  0  0
 85 88  1  0  0  0
 86169  1  0  0  0
 86170  1  0  0  0
 87171  1  0  0  0
 88172  1  0  0  0
M  CHG  1  88   1
M  ISO  4   1 100  68 101  86 101  87 100
M  END
> <chiral flag>
0

> <version>
0

> <s_m_source_file>
/data/baiqing/PycharmProjects/Reinvent-master-3.2/result/LINK_invent/BTK/process_docking_weight1_custom_sum_contain_oxygen_bond_distance_aromatic_linkinvent_7_9_3/rearranged_h_0166.sdf

> <i_m_source_file_index>
87

> <r_mmod_Potential_Energy-OPLS-2005>
-104.443702697754

> <r_mmod_Stretch_Energy-OPLS-2005>
43.76513671875

> <r_mmod_Bend_Energy-OPLS-2005>
140.318359375

> <r_mmod_Torsional_Energy-OPLS-2005>
271.735809326172

> <r_mmod_Improper_Torsional_Energy-OPLS-2005>
2.69694972038269

> <r_mmod_Van_der_Waal_Energy-OPLS-2005>
155.809753417969

> <r_mmod_Electrostatic_Energy-OPLS-2005>
-318.090972900391

> <r_mmod_Solvation_Energy-OPLS-2005>
-414.393920898438

> <b_mmod_Minimization_Converged-OPLS-2005>
0

> <r_mmod_RMS_Derivative-OPLS-2005>
1.40379130840302

$$$$
87
                    3D
 Structure written by MMmdl.
167176  0  0  1  0            999 V2000
  -30.6258  -14.7675   20.4895 C   0  0  0  0  0  0
  -30.4370  -12.4860   19.4697 C   0  0  0  0  0  0
  -29.5041  -12.5228   18.2388 C   0  0  0  0  0  0
  -28.0305  -12.3499   18.6530 C   0  0  0  0  0  0
  -27.6439  -13.2377   19.8654 C   0  0  2  0  0  0
  -28.6957  -13.1493   20.9927 C   0  0  0  0  0  0
  -25.2498  -13.8221   20.5719 C   0  0  0  0  0  0
  -24.1799  -13.0441   20.9231 C   0  0  0  0  0  0
  -24.6416  -11.6932   20.8795 C   0  0  0  0  0  0
  -23.9107  -10.4299   21.0431 C   0  0  0  0  0  0
  -24.3644   -9.4202   21.9204 C   0  0  0  0  0  0
  -23.6302   -8.2241   22.0769 C   0  0  0  0  0  0
  -22.4288   -8.0295   21.3555 C   0  0  0  0  0  0
  -21.9937   -9.0276   20.4658 C   0  0  0  0  0  0
  -22.7289  -10.2144   20.3076 C   0  0  0  0  0  0
  -21.6851   -6.0754   22.5280 C   0  0  0  0  0  0
  -21.4018   -6.5656   23.8215 C   0  0  0  0  0  0
  -21.3645   -5.6808   24.9173 C   0  0  0  0  0  0
  -21.6037   -4.3068   24.7228 C   0  0  0  0  0  0
  -21.8818   -3.8168   23.4350 C   0  0  0  0  0  0
  -21.9190   -4.6975   22.3406 C   0  0  0  0  0  0
  -22.7814  -13.5208   21.1849 C   0  0  0  0  0  0
  -22.1651   -4.2165   21.0988 F   0  0  0  0  0  0
  -21.5618   -3.4555   25.7737 F   0  0  0  0  0  0
  -29.9845  -13.5431   20.4086 N   0  0  0  0  0  0
  -26.2955  -12.9445   20.3396 N   0  0  0  0  0  0
  -25.9356  -11.6578   20.5854 N   0  0  0  0  0  0
  -22.0452  -12.8218   22.0418 N   0  0  0  0  0  0
  -25.4134  -15.1939   20.4060 N   0  0  0  0  0  0
  -31.7983  -14.8397   20.1050 O   0  0  0  0  0  0
  -21.6641   -6.8893   21.4243 O   0  0  0  0  0  0
  -22.3495  -14.5496   20.6671 O   0  0  0  0  0  0
  -24.6327  -31.8541   23.1966 C   0  0  0  0  0  0
  -25.9147  -32.4748   23.8327 C   0  0  1  0  0  0
  -27.2259  -27.2482   20.1434 C   0  0  0  0  0  0
  -25.5938  -33.8543   24.2258 N   0  0  0  0  0  0
  -23.4306  -30.4674   21.5439 C   0  0  2  0  0  0
  -24.8849  -28.9213   20.1052 C   0  0  0  0  0  0
  -22.7502  -29.4543   22.4977 C   0  0  0  0  0  0
  -18.0255  -28.1370   22.8509 C   0  0  0  0  0  0
  -24.1451  -36.7263   23.2648 C   0  0  0  0  0  0
  -25.9761  -30.7607   21.3845 C   0  0  0  0  0  0
  -26.0489  -29.3818   20.7290 C   0  0  0  0  0  0
  -27.2146  -28.5494   20.7553 C   0  0  0  0  0  0
  -26.0500  -26.8770   19.4524 C   0  0  0  0  0  0
  -24.8895  -27.6769   19.4589 C   0  0  0  0  0  0
  -23.6486  -29.7988   20.1606 C   0  0  0  0  0  0
  -25.4081  -36.3043   24.0337 C   0  0  1  0  0  0
  -20.5866  -28.3647   23.1324 C   0  0  2  0  0  0
  -20.6763  -26.9381   22.5418 C   0  0  0  0  0  0
  -19.5733  -26.6363   21.5230 C   0  0  0  0  0  0
  -18.1890  -26.7931   22.1609 C   0  0  0  0  0  0
  -19.1517  -28.8837   23.2891 C   0  0  0  0  0  0
  -18.9443  -30.1455   23.8884 C   0  0  0  0  0  0
  -17.6448  -30.6601   24.0536 C   0  0  0  0  0  0
  -25.9027  -34.9422   23.5083 C   0  0  0  0  0  0
  -16.5333  -29.9081   23.6356 C   0  0  0  0  0  0
  -16.7244  -28.6481   23.0413 C   0  0  0  0  0  0
  -26.4508  -31.6614   25.0739 C   0  0  0  0  0  0
  -25.3710  -31.3768   26.1445 C   0  0  0  0  0  0
  -27.0472  -30.3054   24.6293 C   0  0  0  0  0  0
  -27.5996  -32.4447   25.7545 C   0  0  0  0  0  0
  -27.5573  -37.1753   24.8472 C   0  0  0  0  0  0
  -21.4211  -29.2987   22.3724 N   0  0  0  0  0  0
  -26.4260  -37.3746   23.9443 N   0  0  0  0  0  0
  -24.6980  -31.0465   22.0975 N   0  0  0  0  0  0
  -23.4202  -28.8087   23.3078 O   0  0  0  0  0  0
  -28.3106  -26.3477   20.2969 O   0  0  0  0  0  0
  -26.5580  -34.8905   22.4637 O   0  0  0  0  0  0
  -23.5469  -32.1419   23.7212 O   0  0  0  0  0  0
  -26.7964  -21.9682   21.5319 C   0  0  0  0  0  0
  -27.6146  -20.8678   21.2422 C   0  0  0  0  0  0
  -27.1197  -23.2790   21.1282 C   0  0  0  0  0  0
  -28.3020  -23.5514   20.3805 C   0  0  0  0  0  0
  -29.1962  -22.3885   20.1730 C   0  0  0  0  0  0
  -28.8499  -21.0204   20.5871 C   0  0  0  0  0  0
  -29.0562  -17.8773   21.9379 C   0  0  0  0  0  0
  -29.0637  -16.3244   21.7912 C   0  0  0  0  0  0
  -30.2221  -17.2917   19.9970 C   0  0  0  0  0  0
  -29.2496  -18.4391   20.5215 C   0  0  2  0  0  0
  -26.1112  -24.3515   21.4916 C   0  0  0  0  0  0
  -30.6235  -21.9446   18.0890 C   0  0  0  0  0  0
  -31.7496  -22.1354   20.3641 C   0  0  0  0  0  0
  -28.4296  -24.9929   19.6429 C   0  0  0  0  0  0
  -30.5622  -22.5781   19.4881 C   0  0  0  0  0  0
  -29.8922  -15.9546   20.6311 N   0  0  0  0  0  0
  -29.6773  -19.8711   20.3706 O   0  0  0  0  0  0
  -31.4690  -12.6312   19.1461 H   0  0  0  0  0  0
  -30.4182  -11.5091   19.9540 H   0  0  0  0  0  0
  -29.7882  -11.7485   17.5259 H   0  0  0  0  0  0
  -29.6222  -13.4757   17.7215 H   0  0  0  0  0  0
  -27.8732  -11.2991   18.8971 H   0  0  0  0  0  0
  -27.3760  -12.5644   17.8079 H   0  0  0  0  0  0
  -27.6437  -14.2655   19.5023 H   0  0  0  0  0  0
  -28.7498  -12.1340   21.3877 H   0  0  0  0  0  0
  -28.4275  -13.7753   21.8403 H   0  0  0  0  0  0
  -25.2776   -9.5654   22.4793 H   0  0  0  0  0  0
  -23.9993   -7.4630   22.7499 H   0  0  0  0  0  0
  -21.0869   -8.8823   19.8970 H   0  0  0  0  0  0
  -22.3769  -10.9691   19.6195 H   0  0  0  0  0  0
  -21.2034   -7.6166   23.9724 H   0  0  0  0  0  0
  -21.1451   -6.0540   25.9074 H   0  0  0  0  0  0
  -22.0615   -2.7628   23.2856 H   0  0  0  0  0  0
  -22.4069  -11.9897   22.4835 H   0  0  0  0  0  0
  -21.1065  -13.1251   22.2595 H   0  0  0  0  0  0
  -24.6358  -15.8396   20.4928 H   0  0  0  0  0  0
  -26.2557  -15.6341   20.0576 H   0  0  0  0  0  0
  -26.7236  -32.5395   23.1089 H   0  0  0  0  0  0
  -25.0141  -33.9678   25.0445 H   0  0  0  0  0  0
  -22.7247  -31.2855   21.3909 H   0  0  0  0  0  0
  -23.3717  -35.9584   23.3270 H   0  0  0  0  0  0
  -24.3538  -36.8935   22.2069 H   0  0  0  0  0  0
  -23.7193  -37.6437   23.6715 H   0  0  0  0  0  0
  -26.1207  -31.5196   20.6138 H   0  0  0  0  0  0
  -26.8535  -30.8106   22.0174 H   0  0  0  0  0  0
  -28.0896  -28.8756   21.3019 H   0  0  0  0  0  0
  -25.9681  -25.9274   18.9501 H   0  0  0  0  0  0
  -23.9964  -27.3166   18.9686 H   0  0  0  0  0  0
  -23.7537  -30.5694   19.3971 H   0  0  0  0  0  0
  -22.7734  -29.2177   19.8688 H   0  0  0  0  0  0
  -25.1249  -36.1860   25.0830 H   0  0  0  0  0  0
  -20.9922  -28.3184   24.1460 H   0  0  0  0  0  0
  -20.5711  -26.2210   23.3574 H   0  0  0  0  0  0
  -21.6616  -26.7447   22.1167 H   0  0  0  0  0  0
  -19.6882  -25.6269   21.1261 H   0  0  0  0  0  0
  -19.6701  -27.3162   20.6757 H   0  0  0  0  0  0
  -17.4177  -26.6720   21.3978 H   0  0  0  0  0  0
  -18.0230  -26.0063   22.8990 H   0  0  0  0  0  0
  -19.7920  -30.7265   24.2258 H   0  0  0  0  0  0
  -17.4998  -31.6294   24.5108 H   0  0  0  0  0  0
  -15.5335  -30.2968   23.7727 H   0  0  0  0  0  0
  -15.8624  -28.0779   22.7229 H   0  0  0  0  0  0
  -24.5824  -30.7201   25.7761 H   0  0  0  0  0  0
  -24.8951  -32.2939   26.4924 H   0  0  0  0  0  0
  -25.7982  -30.8886   27.0207 H   0  0  0  0  0  0
  -26.3176  -29.6699   24.1256 H   0  0  0  0  0  0
  -27.4122  -29.7414   25.4883 H   0  0  0  0  0  0
  -27.9006  -30.4370   23.9634 H   0  0  0  0  0  0
  -27.2557  -33.3786   26.2016 H   0  0  0  0  0  0
  -28.3865  -32.6998   25.0433 H   0  0  0  0  0  0
  -28.0601  -31.8666   26.5561 H   0  0  0  0  0  0
  -28.2538  -38.0103   24.7611 H   0  0  0  0  0  0
  -28.1147  -36.2640   24.6210 H   0  0  0  0  0  0
  -27.2307  -37.1301   25.8879 H   0  0  0  0  0  0
  -20.9406  -29.8692   21.6908 H   0  0  0  0  0  0
  -26.0129  -38.2805   24.1486 H   0  0  0  0  0  0
  -25.8693  -21.7834   22.0577 H   0  0  0  0  0  0
  -27.2634  -19.9010   21.5579 H   0  0  0  0  0  0
  -29.8827  -18.1918   22.5763 H   0  0  0  0  0  0
  -28.1447  -18.2142   22.4272 H   0  0  0  0  0  0
  -28.0441  -15.9818   21.6133 H   0  0  0  0  0  0
  -29.4224  -15.8531   22.7076 H   0  0  0  0  0  0
  -31.2501  -17.5447   20.2646 H   0  0  0  0  0  0
  -30.1968  -17.2229   18.9086 H   0  0  0  0  0  0
  -28.3051  -18.3304   19.9852 H   0  0  0  0  0  0
  -25.4384  -24.0262   22.2862 H   0  0  0  0  0  0
  -25.4841  -24.5771   20.6323 H   0  0  0  0  0  0
  -26.6016  -25.2509   21.8584 H   0  0  0  0  0  0
  -29.8391  -22.3369   17.4431 H   0  0  0  0  0  0
  -30.5212  -20.8604   18.1184 H   0  0  0  0  0  0
  -31.5788  -22.1672   17.6145 H   0  0  0  0  0  0
  -31.7366  -22.6367   21.3327 H   0  0  0  0  0  0
  -32.6937  -22.3884   19.8821 H   0  0  0  0  0  0
  -31.7700  -21.0621   20.5440 H   0  0  0  0  0  0
  -27.7689  -24.9295   18.7833 H   0  0  0  0  0  0
  -29.3948  -25.0751   19.1626 H   0  0  0  0  0  0
  -30.7500  -23.6334   19.3489 H   0  0  0  0  0  0
  1 25  1  0  0  0
  1 30  2  0  0  0
  1 86  1  0  0  0
  2  3  1  0  0  0
  2 25  1  0  0  0
  2 88  1  0  0  0
  2 89  1  0  0  0
  3  4  1  0  0  0
  3 90  1  0  0  0
  3 91  1  0  0  0
  4  5  1  0  0  0
  4 92  1  0  0  0
  4 93  1  0  0  0
  5  6  1  0  0  0
  5 26  1  0  0  0
  5 94  1  0  0  0
  6 25  1  0  0  0
  6 95  1  0  0  0
  6 96  1  0  0  0
  7  8  2  0  0  0
  7 26  1  0  0  0
  7 29  1  0  0  0
  8  9  1  0  0  0
  8 22  1  0  0  0
  9 10  1  0  0  0
  9 27  2  0  0  0
 10 11  2  0  0  0
 10 15  1  0  0  0
 11 12  1  0  0  0
 11 97  1  0  0  0
 12 13  2  0  0  0
 12 98  1  0  0  0
 13 14  1  0  0  0
 13 31  1  0  0  0
 14 15  2  0  0  0
 14 99  1  0  0  0
 15100  1  0  0  0
 16 17  2  0  0  0
 16 21  1  0  0  0
 16 31  1  0  0  0
 17 18  1  0  0  0
 17101  1  0  0  0
 18 19  2  0  0  0
 18102  1  0  0  0
 19 20  1  0  0  0
 19 24  1  0  0  0
 20 21  2  0  0  0
 20103  1  0  0  0
 21 23  1  0  0  0
 22 28  1  0  0  0
 22 32  2  0  0  0
 26 27  1  0  0  0
 28104  1  0  0  0
 28105  1  0  0  0
 29106  1  0  0  0
 29107  1  0  0  0
 33 34  1  0  0  0
 33 66  1  0  0  0
 33 70  2  0  0  0
 34 36  1  0  0  0
 34 59  1  0  0  0
 34108  1  0  0  0
 35 44  2  0  0  0
 35 45  1  0  0  0
 35 68  1  0  0  0
 36 56  1  0  0  0
 36109  1  0  0  0
 37 39  1  0  0  0
 37 47  1  0  0  0
 37 66  1  0  0  0
 37110  1  0  0  0
 38 43  2  0  0  0
 38 46  1  0  0  0
 38 47  1  0  0  0
 39 64  1  0  0  0
 39 67  2  0  0  0
 40 52  1  0  0  0
 40 53  2  0  0  0
 40 58  1  0  0  0
 41111  1  0  0  0
 41112  1  0  0  0
 41113  1  0  0  0
 41 48  1  0  0  0
 42 43  1  0  0  0
 42 66  1  0  0  0
 42114  1  0  0  0
 42115  1  0  0  0
 43 44  1  0  0  0
 44116  1  0  0  0
 45 46  2  0  0  0
 45117  1  0  0  0
 46118  1  0  0  0
 47119  1  0  0  0
 47120  1  0  0  0
 48 56  1  0  0  0
 48 65  1  0  0  0
 48121  1  0  0  0
 49 50  1  0  0  0
 49 53  1  0  0  0
 49 64  1  0  0  0
 49122  1  0  0  0
 50 51  1  0  0  0
 50123  1  0  0  0
 50124  1  0  0  0
 51 52  1  0  0  0
 51125  1  0  0  0
 51126  1  0  0  0
 52127  1  0  0  0
 52128  1  0  0  0
 53 54  1  0  0  0
 54 55  2  0  0  0
 54129  1  0  0  0
 55 57  1  0  0  0
 55130  1  0  0  0
 56 69  2  0  0  0
 57 58  2  0  0  0
 57131  1  0  0  0
 58132  1  0  0  0
 59 60  1  0  0  0
 59 61  1  0  0  0
 59 62  1  0  0  0
 60133  1  0  0  0
 60134  1  0  0  0
 60135  1  0  0  0
 61136  1  0  0  0
 61137  1  0  0  0
 61138  1  0  0  0
 62139  1  0  0  0
 62140  1  0  0  0
 62141  1  0  0  0
 63 65  1  0  0  0
 63142  1  0  0  0
 63143  1  0  0  0
 63144  1  0  0  0
 64145  1  0  0  0
 65146  1  0  0  0
 68 84  1  0  0  0
 71 72  2  0  0  0
 71 73  1  0  0  0
 71147  1  0  0  0
 72 76  1  0  0  0
 72148  1  0  0  0
 73 74  2  0  0  0
 73 81  1  0  0  0
 74 75  1  0  0  0
 74 84  1  0  0  0
 75 76  2  0  0  0
 75 85  1  0  0  0
 76 87  1  0  0  0
 77 78  1  0  0  0
 77 80  1  0  0  0
 77149  1  0  0  0
 77150  1  0  0  0
 78 86  1  0  0  0
 78151  1  0  0  0
 78152  1  0  0  0
 79 80  1  0  0  0
 79 86  1  0  0  0
 79153  1  0  0  0
 79154  1  0  0  0
 80 87  1  0  0  0
 80155  1  0  0  0
 81156  1  0  0  0
 81157  1  0  0  0
 81158  1  0  0  0
 82159  1  0  0  0
 82160  1  0  0  0
 82161  1  0  0  0
 82 85  1  0  0  0
 83 85  1  0  0  0
 83162  1  0  0  0
 83163  1  0  0  0
 83164  1  0  0  0
 84165  1  0  0  0
 84166  1  0  0  0
 85167  1  0  0  0
M  ISO  4   1 100  68 101  84 101  86 100
M  END
> <chiral flag>
0

> <version>
0

> <s_m_source_file>
/data/baiqing/PycharmProjects/Reinvent-master-3.2/result/LINK_invent/BTK/process_docking_weight1_custom_sum_contain_oxygen_bond_distance_aromatic_linkinvent_7_9_3/rearranged_h_0166.sdf

> <i_m_source_file_index>
88

> <r_mmod_Potential_Energy-OPLS-2005>
445.102508544922

> <r_mmod_Stretch_Energy-OPLS-2005>
144.614837646484

> <r_mmod_Bend_Energy-OPLS-2005>
237.845397949219

> <r_mmod_Torsional_Energy-OPLS-2005>
321.868011474609

> <r_mmod_Improper_Torsional_Energy-OPLS-2005>
13.5015563964844

> <r_mmod_Van_der_Waal_Energy-OPLS-2005>
142.275604248047

> <r_mmod_Electrostatic_Energy-OPLS-2005>
-315.895812988281

> <r_mmod_Solvation_Energy-OPLS-2005>
-195.266326904297

> <b_mmod_Minimization_Converged-OPLS-2005>
0

> <r_mmod_RMS_Derivative-OPLS-2005>
3.21500563621521

$$$$
88
                    3D
 Structure written by MMmdl.
190200  0  0  1  0            999 V2000
  -30.7344  -14.5553   20.5357 C   0  0  0  0  0  0
  -30.4128  -12.3551   19.4391 C   0  0  0  0  0  0
  -29.4892  -12.4905   18.2132 C   0  0  0  0  0  0
  -28.0189  -12.3095   18.6339 C   0  0  0  0  0  0
  -27.6413  -13.1856   19.8537 C   0  0  2  0  0  0
  -28.6959  -13.1036   20.9841 C   0  0  0  0  0  0
  -25.2569  -13.8079   20.5721 C   0  0  0  0  0  0
  -24.1808  -13.0391   20.9207 C   0  0  0  0  0  0
  -24.6338  -11.6850   20.8772 C   0  0  0  0  0  0
  -23.9010  -10.4261   21.0430 C   0  0  0  0  0  0
  -24.3579   -9.4188   21.9202 C   0  0  0  0  0  0
  -23.6269   -8.2218   22.0765 C   0  0  0  0  0  0
  -22.4257   -8.0251   21.3546 C   0  0  0  0  0  0
  -21.9877   -9.0226   20.4657 C   0  0  0  0  0  0
  -22.7191  -10.2113   20.3074 C   0  0  0  0  0  0
  -21.6849   -6.0721   22.5281 C   0  0  0  0  0  0
  -21.4009   -6.5630   23.8210 C   0  0  0  0  0  0
  -21.3655   -5.6790   24.9174 C   0  0  0  0  0  0
  -21.6046   -4.3055   24.7230 C   0  0  0  0  0  0
  -21.8821   -3.8142   23.4357 C   0  0  0  0  0  0
  -21.9193   -4.6950   22.3409 C   0  0  0  0  0  0
  -22.7849  -13.5222   21.1861 C   0  0  0  0  0  0
  -22.1665   -4.2137   21.0988 F   0  0  0  0  0  0
  -21.5627   -3.4539   25.7747 F   0  0  0  0  0  0
  -30.0187  -13.3948   20.4092 N   0  0  0  0  0  0
  -26.2940  -12.9174   20.3345 N   0  0  0  0  0  0
  -25.9251  -11.6376   20.5808 N   0  0  0  0  0  0
  -22.0471  -12.8230   22.0414 N   0  0  0  0  0  0
  -25.4317  -15.1799   20.4146 N   0  0  0  0  0  0
  -31.8974  -14.6400   20.1319 O   0  0  0  0  0  0
  -21.6629   -6.8849   21.4236 O   0  0  0  0  0  0
  -22.3562  -14.5538   20.6711 O   0  0  0  0  0  0
  -24.6165  -31.8670   23.2087 C   0  0  0  0  0  0
  -25.9054  -32.4820   23.8390 C   0  0  1  0  0  0
  -27.2334  -27.4135   20.1043 C   0  0  0  0  0  0
  -25.5900  -33.8612   24.2324 N   0  0  0  0  0  0
  -23.4072  -30.4909   21.5491 C   0  0  2  0  0  0
  -24.8565  -28.9614   20.1085 C   0  0  0  0  0  0
  -22.7431  -29.4653   22.4974 C   0  0  0  0  0  0
  -18.0275  -28.1360   22.8485 C   0  0  0  0  0  0
  -24.1496  -36.7316   23.2634 C   0  0  0  0  0  0
  -25.9387  -30.8299   21.3645 C   0  0  0  0  0  0
  -26.0192  -29.4643   20.7075 C   0  0  0  0  0  0
  -27.2139  -28.7009   20.6976 C   0  0  0  0  0  0
  -26.0569  -26.9446   19.4760 C   0  0  0  0  0  0
  -24.8729  -27.7037   19.4847 C   0  0  0  0  0  0
  -23.6166  -29.8275   20.1624 C   0  0  0  0  0  0
  -25.4116  -36.3111   24.0335 C   0  0  1  0  0  0
  -20.5870  -28.3660   23.1297 C   0  0  2  0  0  0
  -20.6772  -26.9391   22.5411 C   0  0  0  0  0  0
  -19.5761  -26.6375   21.5201 C   0  0  0  0  0  0
  -18.1929  -26.7906   22.1609 C   0  0  0  0  0  0
  -19.1525  -28.8827   23.2883 C   0  0  0  0  0  0
  -18.9460  -30.1428   23.8904 C   0  0  0  0  0  0
  -17.6466  -30.6572   24.0558 C   0  0  0  0  0  0
  -25.9047  -34.9476   23.5133 C   0  0  0  0  0  0
  -16.5352  -29.9083   23.6317 C   0  0  0  0  0  0
  -16.7265  -28.6491   23.0344 C   0  0  0  0  0  0
  -26.4472  -31.6598   25.0722 C   0  0  0  0  0  0
  -25.3726  -31.3719   26.1470 C   0  0  0  0  0  0
  -27.0307  -30.3041   24.6102 C   0  0  0  0  0  0
  -27.6066  -32.4297   25.7471 C   0  0  0  0  0  0
  -27.5595  -37.1793   24.8452 C   0  0  0  0  0  0
  -21.4156  -29.3023   22.3705 N   0  0  0  0  0  0
  -26.4302  -37.3796   23.9407 N   0  0  0  0  0  0
  -24.6722  -31.0764   22.0987 N   0  0  0  0  0  0
  -23.4192  -28.8184   23.3014 O   0  0  0  0  0  0
  -28.3588  -26.6068   20.1641 O   0  0  0  0  0  0
  -26.5618  -34.8930   22.4704 O   0  0  0  0  0  0
  -23.5349  -32.1425   23.7474 O   0  0  0  0  0  0
  -32.8388  -18.2657   18.6859 C   0  0  0  0  0  0
  -31.8295  -19.1334   19.1623 C   0  0  0  0  0  0
  -31.7274  -20.4423   18.5521 C   0  0  0  0  0  0
  -32.6730  -20.7139   17.4968 C   0  0  0  0  0  0
  -33.6768  -19.7669   17.1804 C   0  0  0  0  0  0
  -29.9075  -17.5425   19.4287 C   0  0  0  0  0  0
  -31.6124  -17.6927   21.3421 C   0  0  0  0  0  0
  -29.1851  -16.4868   20.2873 C   0  0  0  0  0  0
  -30.7948  -16.5548   22.0230 C   0  0  0  0  0  0
  -28.5340  -22.5065   19.5376 C   0  0  0  0  0  0
  -30.8777  -18.4770   20.1952 C   0  0  0  0  0  0
  -30.6573  -21.5521   18.8741 C   0  0  1  0  0  0
  -29.1602  -21.2088   18.9651 C   0  0  2  0  0  0
  -30.8565  -22.5594   20.0421 C   0  0  1  0  0  0
  -32.6225  -21.9915   16.6475 C   0  0  0  0  0  0
  -34.7502  -19.9960   16.1286 C   0  0  0  0  0  0
  -28.5259  -20.7701   17.6337 C   0  0  0  0  0  0
  -32.2284  -24.6382   19.2066 C   0  0  0  0  0  0
  -32.7424  -23.5980   21.4658 C   0  0  0  0  0  0
  -29.3312  -24.3897   21.0271 C   0  0  0  0  0  0
  -28.1014  -25.3215   20.7855 C   0  0  0  0  0  0
  -32.2110  -23.3379   20.0425 C   0  0  0  0  0  0
  -33.7520  -18.5694   17.7618 N   0  0  0  0  0  0
  -30.1207  -15.6563   21.0655 N   0  0  0  0  0  0
  -29.6416  -23.4278   19.9178 N   0  3  2  0  0  0
  -31.4569  -12.4366   19.1320 H   0  0  0  0  0  0
  -30.3114  -11.3654   19.8876 H   0  0  0  0  0  0
  -29.7535  -11.7537   17.4537 H   0  0  0  0  0  0
  -29.6269  -13.4702   17.7518 H   0  0  0  0  0  0
  -27.8652  -11.2566   18.8707 H   0  0  0  0  0  0
  -27.3583  -12.5319   17.7951 H   0  0  0  0  0  0
  -27.6081  -14.1882   19.4579 H   0  0  0  0  0  0
  -28.7008  -12.1096   21.4321 H   0  0  0  0  0  0
  -28.4464  -13.7967   21.7896 H   0  0  0  0  0  0
  -25.2715   -9.5676   22.4779 H   0  0  0  0  0  0
  -23.9984   -7.4612   22.7485 H   0  0  0  0  0  0
  -21.0807   -8.8741   19.8967 H   0  0  0  0  0  0
  -22.3640  -10.9657   19.6198 H   0  0  0  0  0  0
  -21.1997   -7.6140   23.9705 H   0  0  0  0  0  0
  -21.1475   -6.0527   25.9077 H   0  0  0  0  0  0
  -22.0604   -2.7602   23.2868 H   0  0  0  0  0  0
  -22.4068  -11.9870   22.4786 H   0  0  0  0  0  0
  -21.1106  -13.1299   22.2637 H   0  0  0  0  0  0
  -24.6688  -15.8376   20.5313 H   0  0  0  0  0  0
  -26.2921  -15.6204   20.1156 H   0  0  0  0  0  0
  -26.7132  -32.5535   23.1158 H   0  0  0  0  0  0
  -24.9999  -33.9763   25.0433 H   0  0  0  0  0  0
  -22.6956  -31.3078   21.4106 H   0  0  0  0  0  0
  -23.3761  -35.9643   23.3276 H   0  0  0  0  0  0
  -24.3590  -36.8963   22.2051 H   0  0  0  0  0  0
  -23.7240  -37.6505   23.6680 H   0  0  0  0  0  0
  -26.0550  -31.5994   20.5999 H   0  0  0  0  0  0
  -26.8225  -30.8799   21.9878 H   0  0  0  0  0  0
  -28.1069  -29.0802   21.1736 H   0  0  0  0  0  0
  -26.0422  -25.9878   18.9739 H   0  0  0  0  0  0
  -23.9832  -27.3166   19.0057 H   0  0  0  0  0  0
  -23.7207  -30.6047   19.4035 H   0  0  0  0  0  0
  -22.7407  -29.2466   19.8691 H   0  0  0  0  0  0
  -25.1287  -36.1982   25.0825 H   0  0  0  0  0  0
  -20.9947  -28.3245   24.1428 H   0  0  0  0  0  0
  -20.5673  -26.2271   23.3603 H   0  0  0  0  0  0
  -21.6647  -26.7446   22.1207 H   0  0  0  0  0  0
  -19.6939  -25.6294   21.1223 H   0  0  0  0  0  0
  -19.6711  -27.3192   20.6730 H   0  0  0  0  0  0
  -17.4204  -26.6633   21.4003 H   0  0  0  0  0  0
  -18.0338  -26.0042   22.9003 H   0  0  0  0  0  0
  -19.7944  -30.7206   24.2302 H   0  0  0  0  0  0
  -17.5039  -31.6259   24.5145 H   0  0  0  0  0  0
  -15.5358  -30.2987   23.7646 H   0  0  0  0  0  0
  -15.8656  -28.0813   22.7063 H   0  0  0  0  0  0
  -24.5884  -30.7087   25.7806 H   0  0  0  0  0  0
  -24.8922  -32.2876   26.4935 H   0  0  0  0  0  0
  -25.8043  -30.8872   27.0234 H   0  0  0  0  0  0
  -26.2854  -29.6778   24.1187 H   0  0  0  0  0  0
  -27.4108  -29.7302   25.4561 H   0  0  0  0  0  0
  -27.8677  -30.4360   23.9235 H   0  0  0  0  0  0
  -27.2743  -33.3629   26.2036 H   0  0  0  0  0  0
  -28.3886  -32.6794   25.0287 H   0  0  0  0  0  0
  -28.0726  -31.8415   26.5392 H   0  0  0  0  0  0
  -28.2585  -38.0117   24.7553 H   0  0  0  0  0  0
  -28.1116  -36.2647   24.6221 H   0  0  0  0  0  0
  -27.2311  -37.1382   25.8852 H   0  0  0  0  0  0
  -20.9325  -29.8761   21.6935 H   0  0  0  0  0  0
  -26.0195  -38.2875   24.1412 H   0  0  0  0  0  0
  -32.9110  -17.2409   19.0135 H   0  0  0  0  0  0
  -29.1715  -18.1386   18.8905 H   0  0  0  0  0  0
  -30.4511  -16.9986   18.6553 H   0  0  0  0  0  0
  -32.5326  -17.2192   21.0130 H   0  0  0  0  0  0
  -31.9440  -18.4063   22.0989 H   0  0  0  0  0  0
  -28.6071  -15.8963   19.5934 H   0  0  0  0  0  0
  -28.4670  -16.9648   20.9555 H   0  0  0  0  0  0
  -30.0426  -16.9925   22.6810 H   0  0  0  0  0  0
  -31.4504  -15.9730   22.6745 H   0  0  0  0  0  0
  -27.9249  -22.2598   20.4091 H   0  0  0  0  0  0
  -27.8787  -22.9940   18.8146 H   0  0  0  0  0  0
  -30.3099  -19.2430   20.7138 H   0  0  0  0  0  0
  -30.6563  -22.2073   18.0130 H   0  0  0  0  0  0
  -28.9760  -20.4306   19.6971 H   0  0  0  0  0  0
  -30.7867  -21.9840   20.9677 H   0  0  0  0  0  0
  -32.8551  -22.8674   17.2462 H   0  0  0  0  0  0
  -31.6460  -22.1155   16.1770 H   0  0  0  0  0  0
  -33.3228  -22.0082   15.8156 H   0  0  0  0  0  0
  -34.3115  -20.0135   15.1303 H   0  0  0  0  0  0
  -35.5015  -19.2060   16.1410 H   0  0  0  0  0  0
  -35.2747  -20.9356   16.3040 H   0  0  0  0  0  0
  -28.6530  -21.5281   16.8599 H   0  0  0  0  0  0
  -27.4564  -20.5951   17.7541 H   0  0  0  0  0  0
  -28.9714  -19.8464   17.2656 H   0  0  0  0  0  0
  -31.7478  -24.5232   18.2352 H   0  0  0  0  0  0
  -33.2551  -24.9571   19.0215 H   0  0  0  0  0  0
  -31.7396  -25.4678   19.7168 H   0  0  0  0  0  0
  -32.8077  -22.6741   22.0405 H   0  0  0  0  0  0
  -32.1175  -24.2902   22.0277 H   0  0  0  0  0  0
  -33.7457  -24.0250   21.4355 H   0  0  0  0  0  0
  -29.1427  -23.7953   21.9224 H   0  0  0  0  0  0
  -30.1861  -25.0177   21.2643 H   0  0  0  0  0  0
  -27.6810  -25.5448   21.7677 H   0  0  0  0  0  0
  -27.3219  -24.7708   20.2639 H   0  0  0  0  0  0
  -32.9504  -22.6720   19.5980 H   0  0  0  0  0  0
  -29.8138  -23.9976   19.1007 H   0  0  0  0  0  0
  1 25  1  0  0  0
  1 30  2  0  0  0
  1 94  1  0  0  0
  2  3  1  0  0  0
  2 25  1  0  0  0
  2 96  1  0  0  0
  2 97  1  0  0  0
  3  4  1  0  0  0
  3 98  1  0  0  0
  3 99  1  0  0  0
  4  5  1  0  0  0
  4100  1  0  0  0
  4101  1  0  0  0
  5  6  1  0  0  0
  5 26  1  0  0  0
  5102  1  0  0  0
  6 25  1  0  0  0
  6103  1  0  0  0
  6104  1  0  0  0
  7  8  2  0  0  0
  7 26  1  0  0  0
  7 29  1  0  0  0
  8  9  1  0  0  0
  8 22  1  0  0  0
  9 10  1  0  0  0
  9 27  2  0  0  0
 10 11  2  0  0  0
 10 15  1  0  0  0
 11 12  1  0  0  0
 11105  1  0  0  0
 12 13  2  0  0  0
 12106  1  0  0  0
 13 14  1  0  0  0
 13 31  1  0  0  0
 14 15  2  0  0  0
 14107  1  0  0  0
 15108  1  0  0  0
 16 17  2  0  0  0
 16 21  1  0  0  0
 16 31  1  0  0  0
 17 18  1  0  0  0
 17109  1  0  0  0
 18 19  2  0  0  0
 18110  1  0  0  0
 19 20  1  0  0  0
 19 24  1  0  0  0
 20 21  2  0  0  0
 20111  1  0  0  0
 21 23  1  0  0  0
 22 28  1  0  0  0
 22 32  2  0  0  0
 26 27  1  0  0  0
 28112  1  0  0  0
 28113  1  0  0  0
 29114  1  0  0  0
 29115  1  0  0  0
 33 34  1  0  0  0
 33 66  1  0  0  0
 33 70  2  0  0  0
 34 36  1  0  0  0
 34 59  1  0  0  0
 34116  1  0  0  0
 35 44  2  0  0  0
 35 45  1  0  0  0
 35 68  1  0  0  0
 36 56  1  0  0  0
 36117  1  0  0  0
 37 39  1  0  0  0
 37 47  1  0  0  0
 37 66  1  0  0  0
 37118  1  0  0  0
 38 43  2  0  0  0
 38 46  1  0  0  0
 38 47  1  0  0  0
 39 64  1  0  0  0
 39 67  2  0  0  0
 40 52  1  0  0  0
 40 53  2  0  0  0
 40 58  1  0  0  0
 41119  1  0  0  0
 41120  1  0  0  0
 41121  1  0  0  0
 41 48  1  0  0  0
 42 43  1  0  0  0
 42 66  1  0  0  0
 42122  1  0  0  0
 42123  1  0  0  0
 43 44  1  0  0  0
 44124  1  0  0  0
 45 46  2  0  0  0
 45125  1  0  0  0
 46126  1  0  0  0
 47127  1  0  0  0
 47128  1  0  0  0
 48 56  1  0  0  0
 48 65  1  0  0  0
 48129  1  0  0  0
 49 50  1  0  0  0
 49 53  1  0  0  0
 49 64  1  0  0  0
 49130  1  0  0  0
 50 51  1  0  0  0
 50131  1  0  0  0
 50132  1  0  0  0
 51 52  1  0  0  0
 51133  1  0  0  0
 51134  1  0  0  0
 52135  1  0  0  0
 52136  1  0  0  0
 53 54  1  0  0  0
 54 55  2  0  0  0
 54137  1  0  0  0
 55 57  1  0  0  0
 55138  1  0  0  0
 56 69  2  0  0  0
 57 58  2  0  0  0
 57139  1  0  0  0
 58140  1  0  0  0
 59 60  1  0  0  0
 59 61  1  0  0  0
 59 62  1  0  0  0
 60141  1  0  0  0
 60142  1  0  0  0
 60143  1  0  0  0
 61144  1  0  0  0
 61145  1  0  0  0
 61146  1  0  0  0
 62147  1  0  0  0
 62148  1  0  0  0
 62149  1  0  0  0
 63 65  1  0  0  0
 63150  1  0  0  0
 63151  1  0  0  0
 63152  1  0  0  0
 64153  1  0  0  0
 65154  1  0  0  0
 68 91  1  0  0  0
 71 72  2  0  0  0
 71 93  1  0  0  0
 71155  1  0  0  0
 72 73  1  0  0  0
 72 81  1  0  0  0
 73 74  2  0  0  0
 73 82  1  0  0  0
 74 75  1  0  0  0
 74 85  1  0  0  0
 75 86  1  0  0  0
 75 93  2  0  0  0
 76 78  1  0  0  0
 76 81  1  0  0  0
 76156  1  0  0  0
 76157  1  0  0  0
 77 79  1  0  0  0
 77 81  1  0  0  0
 77158  1  0  0  0
 77159  1  0  0  0
 78 94  1  0  0  0
 78160  1  0  0  0
 78161  1  0  0  0
 79 94  1  0  0  0
 79162  1  0  0  0
 79163  1  0  0  0
 80 83  1  0  0  0
 80 95  1  0  0  0
 80164  1  0  0  0
 80165  1  0  0  0
 81166  1  0  0  0
 82 83  1  0  0  0
 82 84  1  0  0  0
 82167  1  0  0  0
 83 87  1  0  0  0
 83168  1  0  0  0
 84 92  1  0  0  0
 84 95  1  0  0  0
 84169  1  0  0  0
 85170  1  0  0  0
 85171  1  0  0  0
 85172  1  0  0  0
 86173  1  0  0  0
 86174  1  0  0  0
 86175  1  0  0  0
 87176  1  0  0  0
 87177  1  0  0  0
 87178  1  0  0  0
 88179  1  0  0  0
 88180  1  0  0  0
 88181  1  0  0  0
 88 92  1  0  0  0
 89 92  1  0  0  0
 89182  1  0  0  0
 89183  1  0  0  0
 89184  1  0  0  0
 90 91  1  0  0  0
 90185  1  0  0  0
 90186  1  0  0  0
 90 95  1  0  0  0
 91187  1  0  0  0
 91188  1  0  0  0
 92189  1  0  0  0
 95190  1  0  0  0
M  CHG  1  95   1
M  ISO  4   1 100  68 101  91 101  94 100
M  END
> <chiral flag>
0

> <version>
0

> <s_m_source_file>
/data/baiqing/PycharmProjects/Reinvent-master-3.2/result/LINK_invent/BTK/process_docking_weight1_custom_sum_contain_oxygen_bond_distance_aromatic_linkinvent_7_9_3/rearranged_h_0166.sdf

> <i_m_source_file_index>
89

> <r_mmod_Potential_Energy-OPLS-2005>
209.47590637207

> <r_mmod_Stretch_Energy-OPLS-2005>
67.0468826293945

> <r_mmod_Bend_Energy-OPLS-2005>
205.459976196289

> <r_mmod_Torsional_Energy-OPLS-2005>
434.605865478516

> <r_mmod_Improper_Torsional_Energy-OPLS-2005>
5.30974054336548

> <r_mmod_Van_der_Waal_Energy-OPLS-2005>
171.650863647461

> <r_mmod_Electrostatic_Energy-OPLS-2005>
-274.404266357422

> <r_mmod_Solvation_Energy-OPLS-2005>
-428.867401123047

> <b_mmod_Minimization_Converged-OPLS-2005>
0

> <r_mmod_RMS_Derivative-OPLS-2005>
1.82685923576355

$$$$
89
                    3D
 Structure written by MMmdl.
173182  0  0  1  0            999 V2000
  -30.7098  -14.6158   20.5486 C   0  0  0  0  0  0
  -30.4127  -12.3977   19.4583 C   0  0  0  0  0  0
  -29.4939  -12.4955   18.2239 C   0  0  0  0  0  0
  -28.0244  -12.3079   18.6400 C   0  0  0  0  0  0
  -27.6419  -13.1995   19.8462 C   0  0  2  0  0  0
  -28.6864  -13.1004   20.9878 C   0  0  0  0  0  0
  -25.2522  -13.8125   20.5643 C   0  0  0  0  0  0
  -24.1805  -13.0413   20.9201 C   0  0  0  0  0  0
  -24.6367  -11.6881   20.8762 C   0  0  0  0  0  0
  -23.9048  -10.4269   21.0427 C   0  0  0  0  0  0
  -24.3611   -9.4185   21.9195 C   0  0  0  0  0  0
  -23.6289   -8.2222   22.0759 C   0  0  0  0  0  0
  -22.4270   -8.0268   21.3546 C   0  0  0  0  0  0
  -21.9903   -9.0244   20.4650 C   0  0  0  0  0  0
  -22.7229  -10.2122   20.3070 C   0  0  0  0  0  0
  -21.6848   -6.0729   22.5281 C   0  0  0  0  0  0
  -21.4012   -6.5638   23.8213 C   0  0  0  0  0  0
  -21.3656   -5.6792   24.9177 C   0  0  0  0  0  0
  -21.6044   -4.3055   24.7230 C   0  0  0  0  0  0
  -21.8823   -3.8145   23.4351 C   0  0  0  0  0  0
  -21.9192   -4.6957   22.3404 C   0  0  0  0  0  0
  -22.7836  -13.5213   21.1865 C   0  0  0  0  0  0
  -22.1663   -4.2143   21.0981 F   0  0  0  0  0  0
  -21.5621   -3.4537   25.7743 F   0  0  0  0  0  0
  -29.9974  -13.4446   20.4240 N   0  0  0  0  0  0
  -26.2920  -12.9277   20.3240 N   0  0  0  0  0  0
  -25.9277  -11.6457   20.5758 N   0  0  0  0  0  0
  -22.0485  -12.8212   22.0427 N   0  0  0  0  0  0
  -25.4188  -15.1841   20.3998 N   0  0  0  0  0  0
  -31.8587  -14.6653   20.0978 O   0  0  0  0  0  0
  -21.6630   -6.8868   21.4242 O   0  0  0  0  0  0
  -22.3522  -14.5512   20.6697 O   0  0  0  0  0  0
  -24.6202  -31.8621   23.2048 C   0  0  0  0  0  0
  -25.9077  -32.4788   23.8358 C   0  0  1  0  0  0
  -27.2337  -27.3631   20.1030 C   0  0  0  0  0  0
  -25.5910  -33.8591   24.2288 N   0  0  0  0  0  0
  -23.4122  -30.4848   21.5458 C   0  0  2  0  0  0
  -24.8590  -28.9422   20.1098 C   0  0  0  0  0  0
  -22.7443  -29.4631   22.4951 C   0  0  0  0  0  0
  -18.0279  -28.1383   22.8490 C   0  0  0  0  0  0
  -24.1488  -36.7302   23.2637 C   0  0  0  0  0  0
  -25.9477  -30.8045   21.3697 C   0  0  0  0  0  0
  -26.0219  -29.4342   20.7137 C   0  0  0  0  0  0
  -27.2068  -28.6506   20.7098 C   0  0  0  0  0  0
  -26.0428  -26.8985   19.4995 C   0  0  0  0  0  0
  -24.8679  -27.6764   19.4994 C   0  0  0  0  0  0
  -23.6248  -29.8177   20.1603 C   0  0  0  0  0  0
  -25.4110  -36.3092   24.0330 C   0  0  1  0  0  0
  -20.5875  -28.3683   23.1300 C   0  0  2  0  0  0
  -20.6769  -26.9405   22.5429 C   0  0  0  0  0  0
  -19.5752  -26.6383   21.5219 C   0  0  0  0  0  0
  -18.1924  -26.7930   22.1620 C   0  0  0  0  0  0
  -19.1530  -28.8848   23.2893 C   0  0  0  0  0  0
  -18.9458  -30.1452   23.8909 C   0  0  0  0  0  0
  -17.6457  -30.6588   24.0569 C   0  0  0  0  0  0
  -25.9046  -34.9461   23.5111 C   0  0  0  0  0  0
  -16.5349  -29.9092   23.6324 C   0  0  0  0  0  0
  -16.7267  -28.6507   23.0348 C   0  0  0  0  0  0
  -26.4481  -31.6591   25.0719 C   0  0  0  0  0  0
  -25.3731  -31.3725   26.1460 C   0  0  0  0  0  0
  -27.0309  -30.3015   24.6150 C   0  0  0  0  0  0
  -27.6054  -32.4320   25.7476 C   0  0  0  0  0  0
  -27.5587  -37.1794   24.8452 C   0  0  0  0  0  0
  -21.4163  -29.3037   22.3691 N   0  0  0  0  0  0
  -26.4286  -37.3790   23.9416 N   0  0  0  0  0  0
  -24.6785  -31.0665   22.0976 N   0  0  0  0  0  0
  -23.4187  -28.8177   23.3019 O   0  0  0  0  0  0
  -28.3856  -26.5797   20.1717 O   0  0  0  0  0  0
  -26.5618  -34.8919   22.4680 O   0  0  0  0  0  0
  -23.5381  -32.1404   23.7404 O   0  0  0  0  0  0
  -28.0172  -23.0160   19.0232 C   0  0  0  0  0  0
  -28.7513  -23.9989   19.7265 C   0  0  0  0  0  0
  -28.2857  -21.6249   19.1339 C   0  0  0  0  0  0
  -29.7277  -23.5245   20.6542 C   0  0  0  0  0  0
  -30.0288  -22.1188   20.7534 C   0  0  0  0  0  0
  -29.3293  -21.1501   19.9727 C   0  0  0  0  0  0
  -28.7387  -17.6719   20.3713 C   0  0  0  0  0  0
  -31.1181  -18.0975   20.9184 C   0  0  0  0  0  0
  -28.8444  -16.3320   21.1771 C   0  0  0  0  0  0
  -31.1114  -16.7734   21.7420 C   0  0  0  0  0  0
  -29.7311  -18.7859   20.8061 C   0  0  0  0  0  0
  -30.5166  -24.5295   21.4858 C   0  0  0  0  0  0
  -31.1902  -21.6303   21.6108 C   0  0  0  0  0  0
  -27.8326  -20.8319   16.7711 C   0  0  0  0  0  0
  -25.9807  -20.7602   18.5134 C   0  0  0  0  0  0
  -28.6264  -25.4859   19.2386 C   0  0  0  0  0  0
  -27.4930  -20.6536   18.2589 C   0  0  0  0  0  0
  -30.2048  -15.7412   21.1817 N   0  0  0  0  0  0
  -29.7832  -19.8328   19.7968 O   0  0  0  0  0  0
  -31.4552  -12.4855   19.1497 H   0  0  0  0  0  0
  -30.3332  -11.4106   19.9163 H   0  0  0  0  0  0
  -29.7706  -11.7420   17.4855 H   0  0  0  0  0  0
  -29.6231  -13.4645   17.7389 H   0  0  0  0  0  0
  -27.8820  -11.2570   18.8955 H   0  0  0  0  0  0
  -27.3639  -12.5089   17.7958 H   0  0  0  0  0  0
  -27.6378  -14.2030   19.4296 H   0  0  0  0  0  0
  -28.7094  -12.0868   21.3904 H   0  0  0  0  0  0
  -28.4271  -13.7367   21.8341 H   0  0  0  0  0  0
  -25.2761   -9.5652   22.4768 H   0  0  0  0  0  0
  -23.9989   -7.4612   22.7480 H   0  0  0  0  0  0
  -21.0834   -8.8780   19.8955 H   0  0  0  0  0  0
  -22.3702  -10.9674   19.6187 H   0  0  0  0  0  0
  -21.2011   -7.6147   23.9711 H   0  0  0  0  0  0
  -21.1471   -6.0524   25.9077 H   0  0  0  0  0  0
  -22.0607   -2.7609   23.2856 H   0  0  0  0  0  0
  -22.4111  -11.9878   22.4828 H   0  0  0  0  0  0
  -21.1098  -13.1231   22.2628 H   0  0  0  0  0  0
  -24.6484  -15.8341   20.5086 H   0  0  0  0  0  0
  -26.2612  -15.6244   20.0546 H   0  0  0  0  0  0
  -26.7148  -32.5474   23.1110 H   0  0  0  0  0  0
  -25.0041  -33.9742   25.0420 H   0  0  0  0  0  0
  -22.7038  -31.3038   21.4047 H   0  0  0  0  0  0
  -23.3756  -35.9629   23.3286 H   0  0  0  0  0  0
  -24.3579  -36.8938   22.2054 H   0  0  0  0  0  0
  -23.7235  -37.6495   23.6669 H   0  0  0  0  0  0
  -26.0730  -31.5690   20.6018 H   0  0  0  0  0  0
  -26.8307  -30.8543   21.9953 H   0  0  0  0  0  0
  -28.1010  -29.0236   21.1900 H   0  0  0  0  0  0
  -25.9869  -25.9155   19.0561 H   0  0  0  0  0  0
  -23.9701  -27.2859   19.0403 H   0  0  0  0  0  0
  -23.7401  -30.5942   19.4033 H   0  0  0  0  0  0
  -22.7459  -29.2446   19.8602 H   0  0  0  0  0  0
  -25.1286  -36.1941   25.0823 H   0  0  0  0  0  0
  -20.9967  -28.3268   24.1421 H   0  0  0  0  0  0
  -20.5658  -26.2293   23.3631 H   0  0  0  0  0  0
  -21.6643  -26.7438   22.1232 H   0  0  0  0  0  0
  -19.6912  -25.6299   21.1241 H   0  0  0  0  0  0
  -19.6690  -27.3199   20.6750 H   0  0  0  0  0  0
  -17.4202  -26.6697   21.4009 H   0  0  0  0  0  0
  -18.0304  -26.0064   22.9003 H   0  0  0  0  0  0
  -19.7935  -30.7262   24.2286 H   0  0  0  0  0  0
  -17.5015  -31.6264   24.5179 H   0  0  0  0  0  0
  -15.5349  -30.3001   23.7636 H   0  0  0  0  0  0
  -15.8668  -28.0825   22.7058 H   0  0  0  0  0  0
  -24.5917  -30.7052   25.7809 H   0  0  0  0  0  0
  -24.8904  -32.2886   26.4869 H   0  0  0  0  0  0
  -25.8073  -30.8932   27.0242 H   0  0  0  0  0  0
  -26.2865  -29.6772   24.1192 H   0  0  0  0  0  0
  -27.4031  -29.7262   25.4638 H   0  0  0  0  0  0
  -27.8726  -30.4297   23.9340 H   0  0  0  0  0  0
  -27.2673  -33.3619   26.2057 H   0  0  0  0  0  0
  -28.3851  -32.6881   25.0290 H   0  0  0  0  0  0
  -28.0735  -31.8442   26.5381 H   0  0  0  0  0  0
  -28.2583  -38.0115   24.7547 H   0  0  0  0  0  0
  -28.1109  -36.2654   24.6214 H   0  0  0  0  0  0
  -27.2321  -37.1369   25.8857 H   0  0  0  0  0  0
  -20.9329  -29.8755   21.6903 H   0  0  0  0  0  0
  -26.0168  -38.2856   24.1461 H   0  0  0  0  0  0
  -27.2810  -23.3430   18.3027 H   0  0  0  0  0  0
  -27.7208  -18.0569   20.4400 H   0  0  0  0  0  0
  -28.9006  -17.4480   19.3162 H   0  0  0  0  0  0
  -31.4912  -17.8829   19.9165 H   0  0  0  0  0  0
  -31.8390  -18.7808   21.3631 H   0  0  0  0  0  0
  -28.0998  -15.6576   20.7929 H   0  0  0  0  0  0
  -28.5475  -16.5093   22.2125 H   0  0  0  0  0  0
  -30.8037  -16.9886   22.7664 H   0  0  0  0  0  0
  -32.1338  -16.4018   21.8354 H   0  0  0  0  0  0
  -29.4323  -19.1917   21.7740 H   0  0  0  0  0  0
  -30.0371  -25.5032   21.5414 H   0  0  0  0  0  0
  -31.5152  -24.6697   21.0705 H   0  0  0  0  0  0
  -30.6109  -24.1906   22.5176 H   0  0  0  0  0  0
  -31.8385  -22.4185   21.9864 H   0  0  0  0  0  0
  -31.8311  -20.9805   21.0168 H   0  0  0  0  0  0
  -30.8199  -21.0657   22.4664 H   0  0  0  0  0  0
  -28.9009  -20.6992   16.5962 H   0  0  0  0  0  0
  -27.5562  -21.8214   16.4064 H   0  0  0  0  0  0
  -27.3083  -20.0969   16.1598 H   0  0  0  0  0  0
  -25.7499  -20.5931   19.5662 H   0  0  0  0  0  0
  -25.4353  -20.0120   17.9374 H   0  0  0  0  0  0
  -25.5854  -21.7375   18.2364 H   0  0  0  0  0  0
  -27.9698  -25.5382   18.3710 H   0  0  0  0  0  0
  -29.6030  -25.7120   18.8096 H   0  0  0  0  0  0
  -27.7703  -19.6347   18.5232 H   0  0  0  0  0  0
  1 25  1  0  0  0
  1 30  2  0  0  0
  1 88  1  0  0  0
  2  3  1  0  0  0
  2 25  1  0  0  0
  2 90  1  0  0  0
  2 91  1  0  0  0
  3  4  1  0  0  0
  3 92  1  0  0  0
  3 93  1  0  0  0
  4  5  1  0  0  0
  4 94  1  0  0  0
  4 95  1  0  0  0
  5  6  1  0  0  0
  5 26  1  0  0  0
  5 96  1  0  0  0
  6 25  1  0  0  0
  6 97  1  0  0  0
  6 98  1  0  0  0
  7  8  2  0  0  0
  7 26  1  0  0  0
  7 29  1  0  0  0
  8  9  1  0  0  0
  8 22  1  0  0  0
  9 10  1  0  0  0
  9 27  2  0  0  0
 10 11  2  0  0  0
 10 15  1  0  0  0
 11 12  1  0  0  0
 11 99  1  0  0  0
 12 13  2  0  0  0
 12100  1  0  0  0
 13 14  1  0  0  0
 13 31  1  0  0  0
 14 15  2  0  0  0
 14101  1  0  0  0
 15102  1  0  0  0
 16 17  2  0  0  0
 16 21  1  0  0  0
 16 31  1  0  0  0
 17 18  1  0  0  0
 17103  1  0  0  0
 18 19  2  0  0  0
 18104  1  0  0  0
 19 20  1  0  0  0
 19 24  1  0  0  0
 20 21  2  0  0  0
 20105  1  0  0  0
 21 23  1  0  0  0
 22 28  1  0  0  0
 22 32  2  0  0  0
 26 27  1  0  0  0
 28106  1  0  0  0
 28107  1  0  0  0
 29108  1  0  0  0
 29109  1  0  0  0
 33 34  1  0  0  0
 33 66  1  0  0  0
 33 70  2  0  0  0
 34 36  1  0  0  0
 34 59  1  0  0  0
 34110  1  0  0  0
 35 44  2  0  0  0
 35 45  1  0  0  0
 35 68  1  0  0  0
 36 56  1  0  0  0
 36111  1  0  0  0
 37 39  1  0  0  0
 37 47  1  0  0  0
 37 66  1  0  0  0
 37112  1  0  0  0
 38 43  2  0  0  0
 38 46  1  0  0  0
 38 47  1  0  0  0
 39 64  1  0  0  0
 39 67  2  0  0  0
 40 52  1  0  0  0
 40 53  2  0  0  0
 40 58  1  0  0  0
 41113  1  0  0  0
 41114  1  0  0  0
 41115  1  0  0  0
 41 48  1  0  0  0
 42 43  1  0  0  0
 42 66  1  0  0  0
 42116  1  0  0  0
 42117  1  0  0  0
 43 44  1  0  0  0
 44118  1  0  0  0
 45 46  2  0  0  0
 45119  1  0  0  0
 46120  1  0  0  0
 47121  1  0  0  0
 47122  1  0  0  0
 48 56  1  0  0  0
 48 65  1  0  0  0
 48123  1  0  0  0
 49 50  1  0  0  0
 49 53  1  0  0  0
 49 64  1  0  0  0
 49124  1  0  0  0
 50 51  1  0  0  0
 50125  1  0  0  0
 50126  1  0  0  0
 51 52  1  0  0  0
 51127  1  0  0  0
 51128  1  0  0  0
 52129  1  0  0  0
 52130  1  0  0  0
 53 54  1  0  0  0
 54 55  2  0  0  0
 54131  1  0  0  0
 55 57  1  0  0  0
 55132  1  0  0  0
 56 69  2  0  0  0
 57 58  2  0  0  0
 57133  1  0  0  0
 58134  1  0  0  0
 59 60  1  0  0  0
 59 61  1  0  0  0
 59 62  1  0  0  0
 60135  1  0  0  0
 60136  1  0  0  0
 60137  1  0  0  0
 61138  1  0  0  0
 61139  1  0  0  0
 61140  1  0  0  0
 62141  1  0  0  0
 62142  1  0  0  0
 62143  1  0  0  0
 63 65  1  0  0  0
 63144  1  0  0  0
 63145  1  0  0  0
 63146  1  0  0  0
 64147  1  0  0  0
 65148  1  0  0  0
 68 86  1  0  0  0
 71 72  2  0  0  0
 71 73  1  0  0  0
 71149  1  0  0  0
 72 74  1  0  0  0
 72 86  1  0  0  0
 73 76  2  0  0  0
 73 87  1  0  0  0
 74 75  2  0  0  0
 74 82  1  0  0  0
 75 76  1  0  0  0
 75 83  1  0  0  0
 76 89  1  0  0  0
 77 79  1  0  0  0
 77 81  1  0  0  0
 77150  1  0  0  0
 77151  1  0  0  0
 78 80  1  0  0  0
 78 81  1  0  0  0
 78152  1  0  0  0
 78153  1  0  0  0
 79 88  1  0  0  0
 79154  1  0  0  0
 79155  1  0  0  0
 80 88  1  0  0  0
 80156  1  0  0  0
 80157  1  0  0  0
 81 89  1  0  0  0
 81158  1  0  0  0
 82159  1  0  0  0
 82160  1  0  0  0
 82161  1  0  0  0
 83162  1  0  0  0
 83163  1  0  0  0
 83164  1  0  0  0
 84165  1  0  0  0
 84166  1  0  0  0
 84167  1  0  0  0
 84 87  1  0  0  0
 85 87  1  0  0  0
 85168  1  0  0  0
 85169  1  0  0  0
 85170  1  0  0  0
 86171  1  0  0  0
 86172  1  0  0  0
 87173  1  0  0  0
M  ISO  4   1 100  68 101  86 101  88 100
M  END
> <chiral flag>
0

> <version>
0

> <s_m_source_file>
/data/baiqing/PycharmProjects/Reinvent-master-3.2/result/LINK_invent/BTK/process_docking_weight1_custom_sum_contain_oxygen_bond_distance_aromatic_linkinvent_7_9_3/rearranged_h_0166.sdf

> <i_m_source_file_index>
90

> <r_mmod_Potential_Energy-OPLS-2005>
302.359069824219

> <r_mmod_Stretch_Energy-OPLS-2005>
71.7957077026367

> <r_mmod_Bend_Energy-OPLS-2005>
178.247055053711

> <r_mmod_Torsional_Energy-OPLS-2005>
347.092468261719

> <r_mmod_Improper_Torsional_Energy-OPLS-2005>
6.23506689071655

> <r_mmod_Van_der_Waal_Energy-OPLS-2005>
159.609878540039

> <r_mmod_Electrostatic_Energy-OPLS-2005>
-302.387329101562

> <r_mmod_Solvation_Energy-OPLS-2005>
-196.094314575195

> <b_mmod_Minimization_Converged-OPLS-2005>
0

> <r_mmod_RMS_Derivative-OPLS-2005>
0.927625417709351

$$$$
90
                    3D
 Structure written by MMmdl.
187197  0  0  1  0            999 V2000
  -30.8850  -14.2444   20.8029 C   0  0  0  0  0  0
  -30.4085  -12.2716   19.4169 C   0  0  0  0  0  0
  -29.5146  -12.5893   18.2090 C   0  0  0  0  0  0
  -28.0339  -12.4126   18.5776 C   0  0  0  0  0  0
  -27.6715  -13.2099   19.8514 C   0  0  2  0  0  0
  -28.6842  -12.9863   20.9892 C   0  0  0  0  0  0
  -25.2646  -13.8201   20.5534 C   0  0  0  0  0  0
  -24.1897  -13.0462   20.9047 C   0  0  0  0  0  0
  -24.6424  -11.6929   20.8533 C   0  0  0  0  0  0
  -23.9063  -10.4335   21.0262 C   0  0  0  0  0  0
  -24.3642   -9.4296   21.9092 C   0  0  0  0  0  0
  -23.6325   -8.2338   22.0743 C   0  0  0  0  0  0
  -22.4304   -8.0318   21.3557 C   0  0  0  0  0  0
  -21.9887   -9.0261   20.4638 C   0  0  0  0  0  0
  -22.7193  -10.2141   20.2977 C   0  0  0  0  0  0
  -21.6905   -6.0753   22.5281 C   0  0  0  0  0  0
  -21.4039   -6.5650   23.8201 C   0  0  0  0  0  0
  -21.3655   -5.6801   24.9157 C   0  0  0  0  0  0
  -21.6031   -4.3070   24.7216 C   0  0  0  0  0  0
  -21.8832   -3.8162   23.4345 C   0  0  0  0  0  0
  -21.9218   -4.6975   22.3404 C   0  0  0  0  0  0
  -22.7924  -13.5269   21.1735 C   0  0  0  0  0  0
  -22.1697   -4.2157   21.0986 F   0  0  0  0  0  0
  -21.5599   -3.4556   25.7723 F   0  0  0  0  0  0
  -30.0776  -13.1797   20.5309 N   0  0  0  0  0  0
  -26.3073  -12.9353   20.3085 N   0  0  0  0  0  0
  -25.9339  -11.6510   20.5454 N   0  0  0  0  0  0
  -22.0554  -12.8285   22.0314 N   0  0  0  0  0  0
  -25.4322  -15.1916   20.4057 N   0  0  0  0  0  0
  -31.6586  -14.6896   19.9448 O   0  0  0  0  0  0
  -21.6692   -6.8896   21.4259 O   0  0  0  0  0  0
  -22.3603  -14.5549   20.6553 O   0  0  0  0  0  0
  -24.6027  -31.8741   23.2140 C   0  0  0  0  0  0
  -25.8952  -32.4843   23.8416 C   0  0  1  0  0  0
  -27.2380  -27.4904   20.1049 C   0  0  0  0  0  0
  -25.5836  -33.8648   24.2332 N   0  0  0  0  0  0
  -23.3881  -30.4910   21.5556 C   0  0  2  0  0  0
  -24.8455  -28.9665   20.1132 C   0  0  0  0  0  0
  -22.7352  -29.4646   22.5073 C   0  0  0  0  0  0
  -18.0253  -28.1336   22.8487 C   0  0  0  0  0  0
  -24.1495  -36.7324   23.2621 C   0  0  0  0  0  0
  -25.9075  -30.8559   21.3660 C   0  0  0  0  0  0
  -25.9940  -29.4903   20.7232 C   0  0  0  0  0  0
  -27.1901  -28.7491   20.7378 C   0  0  0  0  0  0
  -26.0980  -26.9902   19.4460 C   0  0  0  0  0  0
  -24.8900  -27.7143   19.4713 C   0  0  0  0  0  0
  -23.5945  -29.8154   20.1704 C   0  0  0  0  0  0
  -25.4095  -36.3115   24.0332 C   0  0  1  0  0  0
  -20.5831  -28.3613   23.1357 C   0  0  2  0  0  0
  -20.6752  -26.9357   22.5450 C   0  0  0  0  0  0
  -19.5752  -26.6364   21.5211 C   0  0  0  0  0  0
  -18.1910  -26.7896   22.1574 C   0  0  0  0  0  0
  -19.1500  -28.8796   23.2913 C   0  0  0  0  0  0
  -18.9413  -30.1414   23.8900 C   0  0  0  0  0  0
  -17.6410  -30.6560   24.0540 C   0  0  0  0  0  0
  -25.9019  -34.9484   23.5125 C   0  0  0  0  0  0
  -16.5307  -29.9031   23.6337 C   0  0  0  0  0  0
  -16.7233  -28.6449   23.0341 C   0  0  0  0  0  0
  -26.4457  -31.6578   25.0707 C   0  0  0  0  0  0
  -25.3746  -31.3702   26.1471 C   0  0  0  0  0  0
  -27.0201  -30.2975   24.6059 C   0  0  0  0  0  0
  -27.6091  -32.4250   25.7430 C   0  0  0  0  0  0
  -27.5596  -37.1747   24.8424 C   0  0  0  0  0  0
  -21.4096  -29.2980   22.3788 N   0  0  0  0  0  0
  -26.4268  -37.3791   23.9439 N   0  0  0  0  0  0
  -24.6486  -31.0886   22.1029 N   0  0  0  0  0  0
  -23.4158  -28.8202   23.3080 O   0  0  0  0  0  0
  -28.3752  -26.7340   20.1228 O   0  0  0  0  0  0
  -26.5612  -34.8909   22.4702 O   0  0  0  0  0  0
  -23.5227  -32.1502   23.7573 O   0  0  0  0  0  0
  -29.4856  -19.1589   22.3035 C   0  0  0  0  0  0
  -29.3023  -18.2754   23.3906 C   0  0  0  0  0  0
  -28.7717  -20.3657   22.1881 C   0  0  0  0  0  0
  -28.3109  -18.6139   24.3589 C   0  0  0  0  0  0
  -27.5024  -19.7766   24.1828 C   0  0  0  0  0  0
  -27.7629  -20.6895   23.1231 C   0  0  0  0  0  0
  -29.3073  -15.7032   23.3213 C   0  0  0  0  0  0
  -31.4222  -16.9513   22.5729 C   0  0  0  0  0  0
  -30.1953  -14.4427   23.2706 C   0  0  0  0  0  0
  -32.1100  -15.5697   22.4864 C   0  0  0  0  0  0
  -27.3122  -23.0023   23.9493 C   0  0  0  0  0  0
  -25.9408  -22.0499   22.0880 C   0  0  0  0  0  0
  -26.7277  -24.3432   23.4291 C   0  0  0  0  0  0
  -30.1610  -16.9871   23.4999 C   0  0  0  0  0  0
  -26.0357  -23.3658   21.2541 C   0  0  1  0  0  0
  -29.1630  -21.3095   21.0632 C   0  0  0  0  0  0
  -28.0854  -17.7501   25.6019 C   0  0  0  0  0  0
  -26.3394  -20.0347   25.1372 C   0  0  0  0  0  0
  -24.6466  -23.8688   20.8377 C   0  0  0  0  0  0
  -28.1877  -24.6806   21.4179 C   0  0  0  0  0  0
  -28.6508  -26.1537   21.4022 C   0  0  0  0  0  0
  -27.0687  -21.9120   23.0064 N   0  0  0  0  0  0
  -31.0875  -14.5840   22.1138 N   0  0  0  0  0  0
  -26.7969  -24.4647   21.9412 N   0  3  2  0  0  0
  -31.4593  -12.3455   19.1287 H   0  0  0  0  0  0
  -30.2669  -11.2383   19.7371 H   0  0  0  0  0  0
  -29.7789  -11.9627   17.3540 H   0  0  0  0  0  0
  -29.6998  -13.6218   17.8993 H   0  0  0  0  0  0
  -27.8312  -11.3500   18.7180 H   0  0  0  0  0  0
  -27.4141  -12.7409   17.7426 H   0  0  0  0  0  0
  -27.7245  -14.2643   19.5825 H   0  0  0  0  0  0
  -28.5855  -11.9941   21.4276 H   0  0  0  0  0  0
  -28.3675  -13.6971   21.7421 H   0  0  0  0  0  0
  -25.2788   -9.5845   22.4635 H   0  0  0  0  0  0
  -24.0057   -7.4777   22.7510 H   0  0  0  0  0  0
  -21.0794   -8.8719   19.9003 H   0  0  0  0  0  0
  -22.3570  -10.9641   19.6084 H   0  0  0  0  0  0
  -21.2052   -7.6158   23.9690 H   0  0  0  0  0  0
  -21.1447   -6.0543   25.9048 H   0  0  0  0  0  0
  -22.0610   -2.7630   23.2836 H   0  0  0  0  0  0
  -22.4167  -12.0011   22.4821 H   0  0  0  0  0  0
  -21.1125  -13.1274   22.2353 H   0  0  0  0  0  0
  -24.6541  -15.8352   20.4966 H   0  0  0  0  0  0
  -26.2899  -15.6465   20.1203 H   0  0  0  0  0  0
  -26.7018  -32.5636   23.1186 H   0  0  0  0  0  0
  -24.9913  -33.9839   25.0421 H   0  0  0  0  0  0
  -22.6677  -31.3011   21.4213 H   0  0  0  0  0  0
  -23.3756  -35.9646   23.3221 H   0  0  0  0  0  0
  -24.3617  -36.8998   22.2051 H   0  0  0  0  0  0
  -23.7230  -37.6491   23.6691 H   0  0  0  0  0  0
  -26.0117  -31.6256   20.5998 H   0  0  0  0  0  0
  -26.7913  -30.9123   21.9886 H   0  0  0  0  0  0
  -28.0704  -29.1435   21.2286 H   0  0  0  0  0  0
  -26.1603  -26.0554   18.9103 H   0  0  0  0  0  0
  -24.0173  -27.3160   18.9731 H   0  0  0  0  0  0
  -23.6686  -30.5859   19.4021 H   0  0  0  0  0  0
  -22.7321  -29.2056   19.8964 H   0  0  0  0  0  0
  -25.1261  -36.1961   25.0823 H   0  0  0  0  0  0
  -20.9872  -28.3184   24.1496 H   0  0  0  0  0  0
  -20.5648  -26.2189   23.3613 H   0  0  0  0  0  0
  -21.6646  -26.7433   22.1266 H   0  0  0  0  0  0
  -19.6924  -25.6280   21.1217 H   0  0  0  0  0  0
  -19.6733  -27.3206   20.6770 H   0  0  0  0  0  0
  -17.4211  -26.6662   21.3956 H   0  0  0  0  0  0
  -18.0284  -26.0026   22.8963 H   0  0  0  0  0  0
  -19.7893  -30.7240   24.2274 H   0  0  0  0  0  0
  -17.4955  -31.6252   24.5096 H   0  0  0  0  0  0
  -15.5284  -30.2882   23.7698 H   0  0  0  0  0  0
  -15.8647  -28.0759   22.7019 H   0  0  0  0  0  0
  -24.5943  -30.7038   25.7773 H   0  0  0  0  0  0
  -24.8962  -32.2889   26.4876 H   0  0  0  0  0  0
  -25.8101  -30.8888   27.0236 H   0  0  0  0  0  0
  -26.2676  -29.6804   24.1139 H   0  0  0  0  0  0
  -27.3916  -29.7173   25.4517 H   0  0  0  0  0  0
  -27.8581  -30.4192   23.9184 H   0  0  0  0  0  0
  -27.2728  -33.3517   26.2078 H   0  0  0  0  0  0
  -28.3825  -32.6822   25.0182 H   0  0  0  0  0  0
  -28.0842  -31.8342   26.5267 H   0  0  0  0  0  0
  -28.2516  -38.0139   24.7601 H   0  0  0  0  0  0
  -28.1168  -36.2678   24.6031 H   0  0  0  0  0  0
  -27.2388  -37.1151   25.8837 H   0  0  0  0  0  0
  -20.9238  -29.8593   21.6973 H   0  0  0  0  0  0
  -26.0170  -38.2854   24.1503 H   0  0  0  0  0  0
  -30.2063  -18.9592   21.5265 H   0  0  0  0  0  0
  -28.5808  -15.5906   24.1245 H   0  0  0  0  0  0
  -28.7255  -15.7912   22.4035 H   0  0  0  0  0  0
  -31.1483  -17.1742   21.5453 H   0  0  0  0  0  0
  -32.1394  -17.7120   22.8878 H   0  0  0  0  0  0
  -29.6408  -13.5091   23.2973 H   0  0  0  0  0  0
  -30.7740  -14.3755   24.1940 H   0  0  0  0  0  0
  -32.5827  -15.2918   23.4298 H   0  0  0  0  0  0
  -32.9358  -15.5985   21.7703 H   0  0  0  0  0  0
  -26.9040  -22.7729   24.9343 H   0  0  0  0  0  0
  -28.3906  -23.1046   24.0757 H   0  0  0  0  0  0
  -25.8560  -21.1801   21.4355 H   0  0  0  0  0  0
  -25.0327  -22.0642   22.6935 H   0  0  0  0  0  0
  -27.1905  -25.1931   23.9288 H   0  0  0  0  0  0
  -25.6696  -24.3881   23.7001 H   0  0  0  0  0  0
  -30.5659  -16.9644   24.5119 H   0  0  0  0  0  0
  -26.5341  -23.1157   20.3175 H   0  0  0  0  0  0
  -29.5997  -20.7698   20.2228 H   0  0  0  0  0  0
  -29.8969  -22.0281   21.4300 H   0  0  0  0  0  0
  -28.3108  -21.8535   20.6732 H   0  0  0  0  0  0
  -28.9361  -17.1291   25.8747 H   0  0  0  0  0  0
  -27.2205  -17.1002   25.4597 H   0  0  0  0  0  0
  -27.9008  -18.3757   26.4762 H   0  0  0  0  0  0
  -25.8888  -19.1025   25.4807 H   0  0  0  0  0  0
  -25.5346  -20.5879   24.6548 H   0  0  0  0  0  0
  -26.6783  -20.5985   26.0053 H   0  0  0  0  0  0
  -24.0957  -24.2919   21.6776 H   0  0  0  0  0  0
  -24.0430  -23.0628   20.4187 H   0  0  0  0  0  0
  -24.7214  -24.6377   20.0712 H   0  0  0  0  0  0
  -28.8810  -24.0995   22.0226 H   0  0  0  0  0  0
  -28.3055  -24.2968   20.4060 H   0  0  0  0  0  0
  -28.2339  -26.7224   22.2373 H   0  0  0  0  0  0
  -29.7337  -26.1979   21.5301 H   0  0  0  0  0  0
  -26.2836  -25.3026   21.7104 H   0  0  0  0  0  0
  1 25  1  0  0  0
  1 30  2  0  0  0
  1 93  1  0  0  0
  2  3  1  0  0  0
  2 25  1  0  0  0
  2 95  1  0  0  0
  2 96  1  0  0  0
  3  4  1  0  0  0
  3 97  1  0  0  0
  3 98  1  0  0  0
  4  5  1  0  0  0
  4 99  1  0  0  0
  4100  1  0  0  0
  5  6  1  0  0  0
  5 26  1  0  0  0
  5101  1  0  0  0
  6 25  1  0  0  0
  6102  1  0  0  0
  6103  1  0  0  0
  7  8  2  0  0  0
  7 26  1  0  0  0
  7 29  1  0  0  0
  8  9  1  0  0  0
  8 22  1  0  0  0
  9 10  1  0  0  0
  9 27  2  0  0  0
 10 11  2  0  0  0
 10 15  1  0  0  0
 11 12  1  0  0  0
 11104  1  0  0  0
 12 13  2  0  0  0
 12105  1  0  0  0
 13 14  1  0  0  0
 13 31  1  0  0  0
 14 15  2  0  0  0
 14106  1  0  0  0
 15107  1  0  0  0
 16 17  2  0  0  0
 16 21  1  0  0  0
 16 31  1  0  0  0
 17 18  1  0  0  0
 17108  1  0  0  0
 18 19  2  0  0  0
 18109  1  0  0  0
 19 20  1  0  0  0
 19 24  1  0  0  0
 20 21  2  0  0  0
 20110  1  0  0  0
 21 23  1  0  0  0
 22 28  1  0  0  0
 22 32  2  0  0  0
 26 27  1  0  0  0
 28111  1  0  0  0
 28112  1  0  0  0
 29113  1  0  0  0
 29114  1  0  0  0
 33 34  1  0  0  0
 33 66  1  0  0  0
 33 70  2  0  0  0
 34 36  1  0  0  0
 34 59  1  0  0  0
 34115  1  0  0  0
 35 44  2  0  0  0
 35 45  1  0  0  0
 35 68  1  0  0  0
 36 56  1  0  0  0
 36116  1  0  0  0
 37 39  1  0  0  0
 37 47  1  0  0  0
 37 66  1  0  0  0
 37117  1  0  0  0
 38 43  2  0  0  0
 38 46  1  0  0  0
 38 47  1  0  0  0
 39 64  1  0  0  0
 39 67  2  0  0  0
 40 52  1  0  0  0
 40 53  2  0  0  0
 40 58  1  0  0  0
 41118  1  0  0  0
 41119  1  0  0  0
 41120  1  0  0  0
 41 48  1  0  0  0
 42 43  1  0  0  0
 42 66  1  0  0  0
 42121  1  0  0  0
 42122  1  0  0  0
 43 44  1  0  0  0
 44123  1  0  0  0
 45 46  2  0  0  0
 45124  1  0  0  0
 46125  1  0  0  0
 47126  1  0  0  0
 47127  1  0  0  0
 48 56  1  0  0  0
 48 65  1  0  0  0
 48128  1  0  0  0
 49 50  1  0  0  0
 49 53  1  0  0  0
 49 64  1  0  0  0
 49129  1  0  0  0
 50 51  1  0  0  0
 50130  1  0  0  0
 50131  1  0  0  0
 51 52  1  0  0  0
 51132  1  0  0  0
 51133  1  0  0  0
 52134  1  0  0  0
 52135  1  0  0  0
 53 54  1  0  0  0
 54 55  2  0  0  0
 54136  1  0  0  0
 55 57  1  0  0  0
 55137  1  0  0  0
 56 69  2  0  0  0
 57 58  2  0  0  0
 57138  1  0  0  0
 58139  1  0  0  0
 59 60  1  0  0  0
 59 61  1  0  0  0
 59 62  1  0  0  0
 60140  1  0  0  0
 60141  1  0  0  0
 60142  1  0  0  0
 61143  1  0  0  0
 61144  1  0  0  0
 61145  1  0  0  0
 62146  1  0  0  0
 62147  1  0  0  0
 62148  1  0  0  0
 63 65  1  0  0  0
 63149  1  0  0  0
 63150  1  0  0  0
 63151  1  0  0  0
 64152  1  0  0  0
 65153  1  0  0  0
 68 91  1  0  0  0
 71 72  2  0  0  0
 71 73  1  0  0  0
 71154  1  0  0  0
 72 74  1  0  0  0
 72 84  1  0  0  0
 73 76  2  0  0  0
 73 86  1  0  0  0
 74 75  2  0  0  0
 74 87  1  0  0  0
 75 76  1  0  0  0
 75 88  1  0  0  0
 76 92  1  0  0  0
 77 79  1  0  0  0
 77 84  1  0  0  0
 77155  1  0  0  0
 77156  1  0  0  0
 78 80  1  0  0  0
 78 84  1  0  0  0
 78157  1  0  0  0
 78158  1  0  0  0
 79 93  1  0  0  0
 79159  1  0  0  0
 79160  1  0  0  0
 80 93  1  0  0  0
 80161  1  0  0  0
 80162  1  0  0  0
 81 83  1  0  0  0
 81 92  1  0  0  0
 81163  1  0  0  0
 81164  1  0  0  0
 82 85  1  0  0  0
 82 92  1  0  0  0
 82165  1  0  0  0
 82166  1  0  0  0
 83 94  1  0  0  0
 83167  1  0  0  0
 83168  1  0  0  0
 84169  1  0  0  0
 85 89  1  0  0  0
 85 94  1  0  0  0
 85170  1  0  0  0
 86171  1  0  0  0
 86172  1  0  0  0
 86173  1  0  0  0
 87174  1  0  0  0
 87175  1  0  0  0
 87176  1  0  0  0
 88177  1  0  0  0
 88178  1  0  0  0
 88179  1  0  0  0
 89180  1  0  0  0
 89181  1  0  0  0
 89182  1  0  0  0
 90 91  1  0  0  0
 90183  1  0  0  0
 90184  1  0  0  0
 90 94  1  0  0  0
 91185  1  0  0  0
 91186  1  0  0  0
 94187  1  0  0  0
M  CHG  1  94   1
M  ISO  4   1 100  68 101  91 101  93 100
M  END
> <chiral flag>
0

> <version>
0

> <s_m_source_file>
/data/baiqing/PycharmProjects/Reinvent-master-3.2/result/LINK_invent/BTK/process_docking_weight1_custom_sum_contain_oxygen_bond_distance_aromatic_linkinvent_7_9_3/rearranged_h_0166.sdf

> <i_m_source_file_index>
91

> <r_mmod_Potential_Energy-OPLS-2005>
235.40299987793

> <r_mmod_Stretch_Energy-OPLS-2005>
50.7860069274902

> <r_mmod_Bend_Energy-OPLS-2005>
144.543899536133

> <r_mmod_Torsional_Energy-OPLS-2005>
436.287902832031

> <r_mmod_Improper_Torsional_Energy-OPLS-2005>
10.6020908355713

> <r_mmod_Van_der_Waal_Energy-OPLS-2005>
191.785354614258

> <r_mmod_Electrostatic_Energy-OPLS-2005>
-239.216613769531

> <r_mmod_Solvation_Energy-OPLS-2005>
-376.503509521484

> <b_mmod_Minimization_Converged-OPLS-2005>
0

> <r_mmod_RMS_Derivative-OPLS-2005>
5.05911254882812

$$$$
91
                    3D
 Structure written by MMmdl.
176186  0  0  1  0            999 V2000
  -30.7025  -14.5419   20.6291 C   0  0  0  0  0  0
  -30.4320  -12.3768   19.4313 C   0  0  0  0  0  0
  -29.4982  -12.5196   18.2115 C   0  0  0  0  0  0
  -28.0258  -12.3309   18.6219 C   0  0  0  0  0  0
  -27.6580  -13.1841   19.8595 C   0  0  2  0  0  0
  -28.7005  -12.9877   20.9912 C   0  0  0  0  0  0
  -25.2590  -13.8114   20.5588 C   0  0  0  0  0  0
  -24.1838  -13.0426   20.9142 C   0  0  0  0  0  0
  -24.6382  -11.6886   20.8713 C   0  0  0  0  0  0
  -23.9037  -10.4298   21.0409 C   0  0  0  0  0  0
  -24.3608   -9.4227   21.9183 C   0  0  0  0  0  0
  -23.6296   -8.2261   22.0760 C   0  0  0  0  0  0
  -22.4282   -8.0286   21.3546 C   0  0  0  0  0  0
  -21.9904   -9.0261   20.4657 C   0  0  0  0  0  0
  -22.7223  -10.2142   20.3064 C   0  0  0  0  0  0
  -21.6858   -6.0745   22.5286 C   0  0  0  0  0  0
  -21.4016   -6.5639   23.8222 C   0  0  0  0  0  0
  -21.3647   -5.6787   24.9172 C   0  0  0  0  0  0
  -21.6041   -4.3055   24.7216 C   0  0  0  0  0  0
  -21.8830   -3.8152   23.4335 C   0  0  0  0  0  0
  -21.9190   -4.6978   22.3400 C   0  0  0  0  0  0
  -22.7872  -13.5265   21.1798 C   0  0  0  0  0  0
  -22.1664   -4.2167   21.0976 F   0  0  0  0  0  0
  -21.5629   -3.4531   25.7721 F   0  0  0  0  0  0
  -30.0159  -13.3636   20.4553 N   0  0  0  0  0  0
  -26.2995  -12.9236   20.3252 N   0  0  0  0  0  0
  -25.9283  -11.6429   20.5720 N   0  0  0  0  0  0
  -22.0471  -12.8308   22.0367 N   0  0  0  0  0  0
  -25.4291  -15.1835   20.3946 N   0  0  0  0  0  0
  -31.8097  -14.6849   20.0984 O   0  0  0  0  0  0
  -21.6651   -6.8889   21.4250 O   0  0  0  0  0  0
  -22.3556  -14.5557   20.6616 O   0  0  0  0  0  0
  -24.6173  -31.8626   23.2085 C   0  0  0  0  0  0
  -25.9035  -32.4808   23.8388 C   0  0  1  0  0  0
  -27.2140  -27.3667   20.1223 C   0  0  0  0  0  0
  -25.5863  -33.8607   24.2298 N   0  0  0  0  0  0
  -23.4103  -30.4883   21.5491 C   0  0  2  0  0  0
  -24.8570  -28.9498   20.1150 C   0  0  0  0  0  0
  -22.7448  -29.4612   22.4953 C   0  0  0  0  0  0
  -18.0271  -28.1391   22.8481 C   0  0  0  0  0  0
  -24.1491  -36.7315   23.2643 C   0  0  0  0  0  0
  -25.9464  -30.8104   21.3718 C   0  0  0  0  0  0
  -26.0204  -29.4399   20.7208 C   0  0  0  0  0  0
  -27.2046  -28.6581   20.7165 C   0  0  0  0  0  0
  -26.0340  -26.9152   19.4932 C   0  0  0  0  0  0
  -24.8636  -27.6930   19.4909 C   0  0  0  0  0  0
  -23.6240  -29.8237   20.1633 C   0  0  0  0  0  0
  -25.4117  -36.3118   24.0334 C   0  0  1  0  0  0
  -20.5866  -28.3666   23.1319 C   0  0  2  0  0  0
  -20.6750  -26.9395   22.5424 C   0  0  0  0  0  0
  -19.5738  -26.6387   21.5207 C   0  0  0  0  0  0
  -18.1914  -26.7935   22.1612 C   0  0  0  0  0  0
  -19.1524  -28.8844   23.2896 C   0  0  0  0  0  0
  -18.9439  -30.1447   23.8918 C   0  0  0  0  0  0
  -17.6443  -30.6596   24.0562 C   0  0  0  0  0  0
  -25.9030  -34.9476   23.5127 C   0  0  0  0  0  0
  -16.5336  -29.9096   23.6329 C   0  0  0  0  0  0
  -16.7257  -28.6515   23.0341 C   0  0  0  0  0  0
  -26.4450  -31.6607   25.0733 C   0  0  0  0  0  0
  -25.3684  -31.3734   26.1467 C   0  0  0  0  0  0
  -27.0258  -30.3041   24.6122 C   0  0  0  0  0  0
  -27.6061  -32.4305   25.7449 C   0  0  0  0  0  0
  -27.5597  -37.1819   24.8460 C   0  0  0  0  0  0
  -21.4168  -29.3027   22.3714 N   0  0  0  0  0  0
  -26.4308  -37.3804   23.9408 N   0  0  0  0  0  0
  -24.6770  -31.0678   22.1014 N   0  0  0  0  0  0
  -23.4212  -28.8123   23.2988 O   0  0  0  0  0  0
  -28.3573  -26.5826   20.1453 O   0  0  0  0  0  0
  -26.5604  -34.8929   22.4705 O   0  0  0  0  0  0
  -23.5351  -32.1387   23.7448 O   0  0  0  0  0  0
  -29.2022  -20.3636   20.0860 C   0  0  0  0  0  0
  -29.6320  -22.4054   21.9163 C   0  0  0  0  0  0
  -29.5183  -19.9950   21.4128 C   0  0  0  0  0  0
  -29.3929  -22.7908   20.5678 C   0  0  0  0  0  0
  -29.6951  -21.0536   22.3424 C   0  0  0  0  0  0
  -29.1006  -21.7159   19.6660 C   0  0  0  0  0  0
  -31.3057  -26.0944   20.1679 C   0  0  0  0  0  0
  -30.8635  -25.8516   18.7248 C   0  0  0  0  0  0
  -30.6767  -24.9708   21.0014 C   0  0  0  0  0  0
  -30.0945  -24.5276   18.7442 C   0  0  0  0  0  0
  -28.7026  -17.5223   21.0819 C   0  0  0  0  0  0
  -31.0699  -17.9210   21.7320 C   0  0  0  0  0  0
  -28.8494  -16.0612   21.5833 C   0  0  0  0  0  0
  -31.1515  -16.4326   22.1946 C   0  0  0  0  0  0
  -29.6388  -18.4958   21.8282 C   0  0  0  0  0  0
  -29.5406  -24.3151   20.1739 C   0  0  0  0  0  0
  -29.9676  -20.7734   23.8130 C   0  0  0  0  0  0
  -28.6491  -21.9196   18.2284 C   0  0  0  0  0  0
  -28.2127  -25.1417   20.3513 C   0  0  0  0  0  0
  -30.2268  -15.5285   21.4691 N   0  0  0  0  0  0
  -31.4707  -12.4982   19.1167 H   0  0  0  0  0  0
  -30.3731  -11.3644   19.8346 H   0  0  0  0  0  0
  -29.7690  -11.7979   17.4399 H   0  0  0  0  0  0
  -29.6309  -13.5047   17.7621 H   0  0  0  0  0  0
  -27.8764  -11.2741   18.8460 H   0  0  0  0  0  0
  -27.3653  -12.5652   17.7854 H   0  0  0  0  0  0
  -27.6883  -14.2084   19.4934 H   0  0  0  0  0  0
  -28.7153  -11.9410   21.3002 H   0  0  0  0  0  0
  -28.4458  -13.5277   21.9006 H   0  0  0  0  0  0
  -25.2762   -9.5717   22.4727 H   0  0  0  0  0  0
  -24.0009   -7.4668   22.7488 H   0  0  0  0  0  0
  -21.0826   -8.8796   19.8975 H   0  0  0  0  0  0
  -22.3689  -10.9678   19.6170 H   0  0  0  0  0  0
  -21.2027   -7.6144   23.9726 H   0  0  0  0  0  0
  -21.1444   -6.0508   25.9075 H   0  0  0  0  0  0
  -22.0613   -2.7614   23.2823 H   0  0  0  0  0  0
  -22.4053  -11.9996   22.4826 H   0  0  0  0  0  0
  -21.1090  -13.1387   22.2525 H   0  0  0  0  0  0
  -24.6625  -15.8384   20.5122 H   0  0  0  0  0  0
  -26.2762  -15.6208   20.0600 H   0  0  0  0  0  0
  -26.7098  -32.5510   23.1146 H   0  0  0  0  0  0
  -24.9971  -33.9761   25.0406 H   0  0  0  0  0  0
  -22.7002  -31.3066   21.4096 H   0  0  0  0  0  0
  -23.3752  -35.9647   23.3308 H   0  0  0  0  0  0
  -24.3578  -36.8929   22.2056 H   0  0  0  0  0  0
  -23.7234  -37.6522   23.6648 H   0  0  0  0  0  0
  -26.0610  -31.5704   20.5976 H   0  0  0  0  0  0
  -26.8338  -30.8678   21.9913 H   0  0  0  0  0  0
  -28.1040  -29.0257   21.1912 H   0  0  0  0  0  0
  -25.9924  -25.9643   18.9846 H   0  0  0  0  0  0
  -23.9728  -27.3203   19.0048 H   0  0  0  0  0  0
  -23.7461  -30.5986   19.4072 H   0  0  0  0  0  0
  -22.7470  -29.2506   19.8585 H   0  0  0  0  0  0
  -25.1301  -36.1998   25.0824 H   0  0  0  0  0  0
  -20.9944  -28.3228   24.1446 H   0  0  0  0  0  0
  -20.5644  -26.2255   23.3601 H   0  0  0  0  0  0
  -21.6618  -26.7427   22.1226 H   0  0  0  0  0  0
  -19.6889  -25.6295   21.1234 H   0  0  0  0  0  0
  -19.6703  -27.3206   20.6744 H   0  0  0  0  0  0
  -17.4179  -26.6681   21.4018 H   0  0  0  0  0  0
  -18.0320  -26.0088   22.9022 H   0  0  0  0  0  0
  -19.7913  -30.7248   24.2317 H   0  0  0  0  0  0
  -17.4998  -31.6284   24.5154 H   0  0  0  0  0  0
  -15.5335  -30.3002   23.7650 H   0  0  0  0  0  0
  -15.8650  -28.0853   22.7038 H   0  0  0  0  0  0
  -24.5861  -30.7084   25.7790 H   0  0  0  0  0  0
  -24.8845  -32.2883   26.4898 H   0  0  0  0  0  0
  -25.7997  -30.8909   27.0243 H   0  0  0  0  0  0
  -26.2799  -29.6828   24.1154 H   0  0  0  0  0  0
  -27.3985  -29.7274   25.4595 H   0  0  0  0  0  0
  -27.8662  -30.4350   23.9298 H   0  0  0  0  0  0
  -27.2742  -33.3618   26.2049 H   0  0  0  0  0  0
  -28.3829  -32.6839   25.0218 H   0  0  0  0  0  0
  -28.0763  -31.8395   26.5321 H   0  0  0  0  0  0
  -28.2631  -38.0110   24.7512 H   0  0  0  0  0  0
  -28.1081  -36.2640   24.6278 H   0  0  0  0  0  0
  -27.2304  -37.1460   25.8862 H   0  0  0  0  0  0
  -20.9321  -29.8773   21.6964 H   0  0  0  0  0  0
  -26.0203  -38.2885   24.1424 H   0  0  0  0  0  0
  -29.0274  -19.5889   19.3546 H   0  0  0  0  0  0
  -29.7989  -23.1728   22.6586 H   0  0  0  0  0  0
  -30.9588  -27.0697   20.5121 H   0  0  0  0  0  0
  -32.3923  -26.0907   20.2608 H   0  0  0  0  0  0
  -31.7012  -25.8269   18.0280 H   0  0  0  0  0  0
  -30.2074  -26.6602   18.3977 H   0  0  0  0  0  0
  -30.3436  -25.3198   21.9794 H   0  0  0  0  0  0
  -31.4667  -24.2393   21.1807 H   0  0  0  0  0  0
  -30.8038  -23.7327   18.5083 H   0  0  0  0  0  0
  -29.3187  -24.5225   17.9780 H   0  0  0  0  0  0
  -27.6702  -17.8423   21.2234 H   0  0  0  0  0  0
  -28.8928  -17.5417   20.0090 H   0  0  0  0  0  0
  -31.4363  -18.0069   20.7090 H   0  0  0  0  0  0
  -31.7405  -18.5228   22.3473 H   0  0  0  0  0  0
  -28.1279  -15.4873   21.0292 H   0  0  0  0  0  0
  -28.5380  -15.9956   22.6269 H   0  0  0  0  0  0
  -30.9052  -16.3765   23.2563 H   0  0  0  0  0  0
  -32.1850  -16.0857   22.1302 H   0  0  0  0  0  0
  -29.3374  -18.4330   22.8728 H   0  0  0  0  0  0
  -30.1577  -21.6901   24.3725 H   0  0  0  0  0  0
  -30.8395  -20.1306   23.9344 H   0  0  0  0  0  0
  -29.1076  -20.2831   24.2725 H   0  0  0  0  0  0
  -28.0845  -21.0527   17.8824 H   0  0  0  0  0  0
  -29.5000  -22.0343   17.5570 H   0  0  0  0  0  0
  -27.9830  -22.7741   18.1322 H   0  0  0  0  0  0
  -27.8229  -24.9937   21.3597 H   0  0  0  0  0  0
  -27.4813  -24.7001   19.6792 H   0  0  0  0  0  0
  1 25  1  0  0  0
  1 30  2  0  0  0
  1 90  1  0  0  0
  2  3  1  0  0  0
  2 25  1  0  0  0
  2 91  1  0  0  0
  2 92  1  0  0  0
  3  4  1  0  0  0
  3 93  1  0  0  0
  3 94  1  0  0  0
  4  5  1  0  0  0
  4 95  1  0  0  0
  4 96  1  0  0  0
  5  6  1  0  0  0
  5 26  1  0  0  0
  5 97  1  0  0  0
  6 25  1  0  0  0
  6 98  1  0  0  0
  6 99  1  0  0  0
  7  8  2  0  0  0
  7 26  1  0  0  0
  7 29  1  0  0  0
  8  9  1  0  0  0
  8 22  1  0  0  0
  9 10  1  0  0  0
  9 27  2  0  0  0
 10 11  2  0  0  0
 10 15  1  0  0  0
 11 12  1  0  0  0
 11100  1  0  0  0
 12 13  2  0  0  0
 12101  1  0  0  0
 13 14  1  0  0  0
 13 31  1  0  0  0
 14 15  2  0  0  0
 14102  1  0  0  0
 15103  1  0  0  0
 16 17  2  0  0  0
 16 21  1  0  0  0
 16 31  1  0  0  0
 17 18  1  0  0  0
 17104  1  0  0  0
 18 19  2  0  0  0
 18105  1  0  0  0
 19 20  1  0  0  0
 19 24  1  0  0  0
 20 21  2  0  0  0
 20106  1  0  0  0
 21 23  1  0  0  0
 22 28  1  0  0  0
 22 32  2  0  0  0
 26 27  1  0  0  0
 28107  1  0  0  0
 28108  1  0  0  0
 29109  1  0  0  0
 29110  1  0  0  0
 33 34  1  0  0  0
 33 66  1  0  0  0
 33 70  2  0  0  0
 34 36  1  0  0  0
 34 59  1  0  0  0
 34111  1  0  0  0
 35 44  2  0  0  0
 35 45  1  0  0  0
 35 68  1  0  0  0
 36 56  1  0  0  0
 36112  1  0  0  0
 37 39  1  0  0  0
 37 47  1  0  0  0
 37 66  1  0  0  0
 37113  1  0  0  0
 38 43  2  0  0  0
 38 46  1  0  0  0
 38 47  1  0  0  0
 39 64  1  0  0  0
 39 67  2  0  0  0
 40 52  1  0  0  0
 40 53  2  0  0  0
 40 58  1  0  0  0
 41114  1  0  0  0
 41115  1  0  0  0
 41116  1  0  0  0
 41 48  1  0  0  0
 42 43  1  0  0  0
 42 66  1  0  0  0
 42117  1  0  0  0
 42118  1  0  0  0
 43 44  1  0  0  0
 44119  1  0  0  0
 45 46  2  0  0  0
 45120  1  0  0  0
 46121  1  0  0  0
 47122  1  0  0  0
 47123  1  0  0  0
 48 56  1  0  0  0
 48 65  1  0  0  0
 48124  1  0  0  0
 49 50  1  0  0  0
 49 53  1  0  0  0
 49 64  1  0  0  0
 49125  1  0  0  0
 50 51  1  0  0  0
 50126  1  0  0  0
 50127  1  0  0  0
 51 52  1  0  0  0
 51128  1  0  0  0
 51129  1  0  0  0
 52130  1  0  0  0
 52131  1  0  0  0
 53 54  1  0  0  0
 54 55  2  0  0  0
 54132  1  0  0  0
 55 57  1  0  0  0
 55133  1  0  0  0
 56 69  2  0  0  0
 57 58  2  0  0  0
 57134  1  0  0  0
 58135  1  0  0  0
 59 60  1  0  0  0
 59 61  1  0  0  0
 59 62  1  0  0  0
 60136  1  0  0  0
 60137  1  0  0  0
 60138  1  0  0  0
 61139  1  0  0  0
 61140  1  0  0  0
 61141  1  0  0  0
 62142  1  0  0  0
 62143  1  0  0  0
 62144  1  0  0  0
 63 65  1  0  0  0
 63145  1  0  0  0
 63146  1  0  0  0
 63147  1  0  0  0
 64148  1  0  0  0
 65149  1  0  0  0
 68 89  1  0  0  0
 71 73  2  0  0  0
 71 76  1  0  0  0
 71150  1  0  0  0
 72 74  1  0  0  0
 72 75  2  0  0  0
 72151  1  0  0  0
 73 75  1  0  0  0
 73 85  1  0  0  0
 74 76  2  0  0  0
 74 86  1  0  0  0
 75 87  1  0  0  0
 76 88  1  0  0  0
 77 78  1  0  0  0
 77 79  1  0  0  0
 77152  1  0  0  0
 77153  1  0  0  0
 78 80  1  0  0  0
 78154  1  0  0  0
 78155  1  0  0  0
 79 86  1  0  0  0
 79156  1  0  0  0
 79157  1  0  0  0
 80 86  1  0  0  0
 80158  1  0  0  0
 80159  1  0  0  0
 81 83  1  0  0  0
 81 85  1  0  0  0
 81160  1  0  0  0
 81161  1  0  0  0
 82 84  1  0  0  0
 82 85  1  0  0  0
 82162  1  0  0  0
 82163  1  0  0  0
 83 90  1  0  0  0
 83164  1  0  0  0
 83165  1  0  0  0
 84 90  1  0  0  0
 84166  1  0  0  0
 84167  1  0  0  0
 85168  1  0  0  0
 86 89  1  0  0  0
 87169  1  0  0  0
 87170  1  0  0  0
 87171  1  0  0  0
 88172  1  0  0  0
 88173  1  0  0  0
 88174  1  0  0  0
 89175  1  0  0  0
 89176  1  0  0  0
M  ISO  4   1 100  68 101  89 101  90 100
M  END
> <chiral flag>
0

> <version>
0

> <s_m_source_file>
/data/baiqing/PycharmProjects/Reinvent-master-3.2/result/LINK_invent/BTK/process_docking_weight1_custom_sum_contain_oxygen_bond_distance_aromatic_linkinvent_7_9_3/rearranged_h_0166.sdf

> <i_m_source_file_index>
92

> <r_mmod_Potential_Energy-OPLS-2005>
332.988098144531

> <r_mmod_Stretch_Energy-OPLS-2005>
66.5925750732422

> <r_mmod_Bend_Energy-OPLS-2005>
161.372192382812

> <r_mmod_Torsional_Energy-OPLS-2005>
370.115295410156

> <r_mmod_Improper_Torsional_Energy-OPLS-2005>
2.95672178268433

> <r_mmod_Van_der_Waal_Energy-OPLS-2005>
173.538330078125

> <r_mmod_Electrostatic_Energy-OPLS-2005>
-278.424621582031

> <r_mmod_Solvation_Energy-OPLS-2005>
-187.769653320312

> <b_mmod_Minimization_Converged-OPLS-2005>
0

> <r_mmod_RMS_Derivative-OPLS-2005>
3.18236470222473

$$$$
92
                    3D
 Structure written by MMmdl.
168178  0  0  1  0            999 V2000
  -30.6080  -14.6920   20.5092 C   0  0  0  0  0  0
  -30.4179  -12.4268   19.4774 C   0  0  0  0  0  0
  -29.5050  -12.5085   18.2341 C   0  0  0  0  0  0
  -28.0317  -12.3297   18.6431 C   0  0  0  0  0  0
  -27.6392  -13.2213   19.8533 C   0  0  2  0  0  0
  -28.6712  -13.1336   20.9967 C   0  0  0  0  0  0
  -25.2472  -13.8055   20.5480 C   0  0  0  0  0  0
  -24.1770  -13.0384   20.9153 C   0  0  0  0  0  0
  -24.6353  -11.6851   20.8757 C   0  0  0  0  0  0
  -23.9023  -10.4266   21.0449 C   0  0  0  0  0  0
  -24.3590   -9.4177   21.9222 C   0  0  0  0  0  0
  -23.6272   -8.2206   22.0761 C   0  0  0  0  0  0
  -22.4262   -8.0256   21.3525 C   0  0  0  0  0  0
  -21.9898   -9.0236   20.4639 C   0  0  0  0  0  0
  -22.7211  -10.2132   20.3075 C   0  0  0  0  0  0
  -21.6845   -6.0727   22.5274 C   0  0  0  0  0  0
  -21.4003   -6.5638   23.8216 C   0  0  0  0  0  0
  -21.3649   -5.6797   24.9184 C   0  0  0  0  0  0
  -21.6036   -4.3064   24.7239 C   0  0  0  0  0  0
  -21.8818   -3.8146   23.4373 C   0  0  0  0  0  0
  -21.9187   -4.6955   22.3418 C   0  0  0  0  0  0
  -22.7819  -13.5215   21.1814 C   0  0  0  0  0  0
  -22.1684   -4.2145   21.0999 F   0  0  0  0  0  0
  -21.5613   -3.4543   25.7759 F   0  0  0  0  0  0
  -29.9748  -13.4786   20.4222 N   0  0  0  0  0  0
  -26.2900  -12.9278   20.3216 N   0  0  0  0  0  0
  -25.9273  -11.6449   20.5738 N   0  0  0  0  0  0
  -22.0471  -12.8212   22.0377 N   0  0  0  0  0  0
  -25.4201  -15.1661   20.3532 N   0  0  0  0  0  0
  -31.7922  -14.7865   20.1589 O   0  0  0  0  0  0
  -21.6615   -6.8858   21.4235 O   0  0  0  0  0  0
  -22.3525  -14.5524   20.6653 O   0  0  0  0  0  0
  -24.6215  -31.8602   23.2048 C   0  0  0  0  0  0
  -25.9084  -32.4767   23.8349 C   0  0  1  0  0  0
  -27.2376  -27.3212   20.1578 C   0  0  0  0  0  0
  -25.5919  -33.8575   24.2258 N   0  0  0  0  0  0
  -23.4161  -30.4815   21.5452 C   0  0  2  0  0  0
  -24.8717  -28.9265   20.1234 C   0  0  0  0  0  0
  -22.7459  -29.4624   22.4972 C   0  0  0  0  0  0
  -18.0279  -28.1353   22.8523 C   0  0  0  0  0  0
  -24.1504  -36.7303   23.2644 C   0  0  0  0  0  0
  -25.9557  -30.7906   21.3767 C   0  0  0  0  0  0
  -26.0333  -29.4125   20.7363 C   0  0  0  0  0  0
  -27.2185  -28.6215   20.7432 C   0  0  0  0  0  0
  -26.0660  -26.8930   19.4999 C   0  0  0  0  0  0
  -24.8906  -27.6709   19.4937 C   0  0  0  0  0  0
  -23.6358  -29.8057   20.1639 C   0  0  0  0  0  0
  -25.4113  -36.3069   24.0321 C   0  0  1  0  0  0
  -20.5883  -28.3697   23.1322 C   0  0  2  0  0  0
  -20.6764  -26.9426   22.5442 C   0  0  0  0  0  0
  -19.5743  -26.6407   21.5242 C   0  0  0  0  0  0
  -18.1922  -26.7890   22.1665 C   0  0  0  0  0  0
  -19.1523  -28.8839   23.2906 C   0  0  0  0  0  0
  -18.9429  -30.1467   23.8875 C   0  0  0  0  0  0
  -17.6425  -30.6576   24.0520 C   0  0  0  0  0  0
  -25.9047  -34.9441   23.5077 C   0  0  0  0  0  0
  -16.5324  -29.9066   23.6292 C   0  0  0  0  0  0
  -16.7259  -28.6466   23.0369 C   0  0  0  0  0  0
  -26.4488  -31.6580   25.0692 C   0  0  0  0  0  0
  -25.3739  -31.3733   26.1423 C   0  0  0  0  0  0
  -27.0315  -30.2996   24.6137 C   0  0  0  0  0  0
  -27.6031  -32.4329   25.7480 C   0  0  0  0  0  0
  -27.5573  -37.1796   24.8454 C   0  0  0  0  0  0
  -21.4172  -29.3043   22.3706 N   0  0  0  0  0  0
  -26.4283  -37.3754   23.9399 N   0  0  0  0  0  0
  -24.6822  -31.0628   22.0990 N   0  0  0  0  0  0
  -23.4179  -28.8196   23.3090 O   0  0  0  0  0  0
  -28.3919  -26.5297   20.1136 O   0  0  0  0  0  0
  -26.5636  -34.8892   22.4654 O   0  0  0  0  0  0
  -23.5387  -32.1400   23.7414 O   0  0  0  0  0  0
  -26.6123  -21.6792   21.4433 C   0  0  0  0  0  0
  -28.6902  -21.5676   20.7522 C   0  0  0  0  0  0
  -27.6638  -22.5001   20.9476 C   0  0  0  0  0  0
  -26.9775  -20.3682   21.5483 C   0  0  0  0  0  0
  -25.2720  -18.4258   21.1353 C   0  0  0  0  0  0
  -24.5823  -19.4380   22.0107 C   0  0  0  0  0  0
  -28.9285  -18.1195   19.6908 C   0  0  0  0  0  0
  -28.9468  -17.8558   22.0945 C   0  0  0  0  0  0
  -29.8795  -16.8607   19.5697 C   0  0  0  0  0  0
  -29.8763  -16.5826   21.9649 C   0  0  0  0  0  0
  -26.0914  -19.2812   22.0623 C   0  0  0  0  0  0
  -29.1213  -18.9463   20.9885 C   0  0  0  0  0  0
  -26.3283  -24.5192   21.7290 C   0  0  0  0  0  0
  -28.5420  -25.1704   20.7137 C   0  0  0  0  0  0
  -27.4037  -24.0619   20.7098 C   0  0  1  0  0  0
  -28.2939  -20.2344   21.1025 N   0  0  0  0  0  0
  -29.8379  -15.8465   20.6695 N   0  0  0  0  0  0
  -31.4654  -12.5356   19.1888 H   0  0  0  0  0  0
  -30.3370  -11.4445   19.9465 H   0  0  0  0  0  0
  -29.7869  -11.7460   17.5052 H   0  0  0  0  0  0
  -29.6321  -13.4726   17.7387 H   0  0  0  0  0  0
  -27.8909  -11.2779   18.8991 H   0  0  0  0  0  0
  -27.3742  -12.5318   17.7955 H   0  0  0  0  0  0
  -27.6453  -14.2498   19.4905 H   0  0  0  0  0  0
  -28.6881  -12.1310   21.4285 H   0  0  0  0  0  0
  -28.4032  -13.8152   21.8064 H   0  0  0  0  0  0
  -25.2747   -9.5646   22.4801 H   0  0  0  0  0  0
  -23.9964   -7.4598   22.7488 H   0  0  0  0  0  0
  -21.0827   -8.8747   19.8966 H   0  0  0  0  0  0
  -22.3655  -10.9675   19.6194 H   0  0  0  0  0  0
  -21.1983   -7.6146   23.9708 H   0  0  0  0  0  0
  -21.1484   -6.0540   25.9085 H   0  0  0  0  0  0
  -22.0596   -2.7603   23.2872 H   0  0  0  0  0  0
  -22.4131  -11.9869   22.4724 H   0  0  0  0  0  0
  -21.1127  -13.1295   22.2688 H   0  0  0  0  0  0
  -24.6379  -15.8084   20.3727 H   0  0  0  0  0  0
  -26.2607  -15.5730   19.9644 H   0  0  0  0  0  0
  -26.7156  -32.5417   23.1107 H   0  0  0  0  0  0
  -25.0030  -33.9770   25.0374 H   0  0  0  0  0  0
  -22.7074  -31.3001   21.3963 H   0  0  0  0  0  0
  -23.3753  -35.9655   23.3313 H   0  0  0  0  0  0
  -24.3611  -36.8924   22.2064 H   0  0  0  0  0  0
  -23.7284  -37.6511   23.6669 H   0  0  0  0  0  0
  -26.0725  -31.5456   20.5984 H   0  0  0  0  0  0
  -26.8413  -30.8530   21.9984 H   0  0  0  0  0  0
  -28.1151  -29.0021   21.2137 H   0  0  0  0  0  0
  -26.0537  -25.9441   18.9911 H   0  0  0  0  0  0
  -24.0084  -27.3011   18.9914 H   0  0  0  0  0  0
  -23.7530  -30.5765   19.4025 H   0  0  0  0  0  0
  -22.7553  -29.2333   19.8670 H   0  0  0  0  0  0
  -25.1310  -36.1924   25.0815 H   0  0  0  0  0  0
  -20.9959  -28.3314   24.1452 H   0  0  0  0  0  0
  -20.5687  -26.2252   23.3604 H   0  0  0  0  0  0
  -21.6613  -26.7528   22.1168 H   0  0  0  0  0  0
  -19.6913  -25.6336   21.1249 H   0  0  0  0  0  0
  -19.6653  -27.3268   20.6806 H   0  0  0  0  0  0
  -17.4201  -26.6565   21.4076 H   0  0  0  0  0  0
  -18.0406  -26.0047   22.9096 H   0  0  0  0  0  0
  -19.7878  -30.7354   24.2216 H   0  0  0  0  0  0
  -17.4949  -31.6266   24.5084 H   0  0  0  0  0  0
  -15.5314  -30.2968   23.7600 H   0  0  0  0  0  0
  -15.8659  -28.0791   22.7108 H   0  0  0  0  0  0
  -24.5893  -30.7102   25.7777 H   0  0  0  0  0  0
  -24.8944  -32.2909   26.4838 H   0  0  0  0  0  0
  -25.8061  -30.8913   27.0202 H   0  0  0  0  0  0
  -26.2876  -29.6772   24.1134 H   0  0  0  0  0  0
  -27.4005  -29.7201   25.4626 H   0  0  0  0  0  0
  -27.8758  -30.4296   23.9350 H   0  0  0  0  0  0
  -27.2602  -33.3622   26.2053 H   0  0  0  0  0  0
  -28.3838  -32.6922   25.0314 H   0  0  0  0  0  0
  -28.0695  -31.8452   26.5409 H   0  0  0  0  0  0
  -28.2567  -38.0112   24.7455 H   0  0  0  0  0  0
  -28.1077  -36.2621   24.6312 H   0  0  0  0  0  0
  -27.2276  -37.1471   25.8855 H   0  0  0  0  0  0
  -20.9350  -29.8679   21.6851 H   0  0  0  0  0  0
  -26.0168  -38.2827   24.1396 H   0  0  0  0  0  0
  -25.6218  -22.0170   21.7116 H   0  0  0  0  0  0
  -29.6933  -21.7220   20.3749 H   0  0  0  0  0  0
  -25.3406  -18.6291   20.0683 H   0  0  0  0  0  0
  -25.1308  -17.3913   21.4206 H   0  0  0  0  0  0
  -24.0107  -19.0617   22.8570 H   0  0  0  0  0  0
  -24.1495  -20.3032   21.5090 H   0  0  0  0  0  0
  -27.8923  -17.7864   19.6237 H   0  0  0  0  0  0
  -29.0841  -18.7693   18.8284 H   0  0  0  0  0  0
  -29.0880  -18.3164   23.0717 H   0  0  0  0  0  0
  -27.9287  -17.4730   22.0843 H   0  0  0  0  0  0
  -29.6553  -16.3488   18.6320 H   0  0  0  0  0  0
  -30.9071  -17.2189   19.4693 H   0  0  0  0  0  0
  -29.6089  -15.8872   22.7641 H   0  0  0  0  0  0
  -30.9068  -16.8844   22.1558 H   0  0  0  0  0  0
  -26.4698  -18.8577   22.9904 H   0  0  0  0  0  0
  -30.1640  -19.2698   21.0203 H   0  0  0  0  0  0
  -26.5672  -24.1537   22.7293 H   0  0  0  0  0  0
  -25.3331  -24.1632   21.4622 H   0  0  0  0  0  0
  -26.2472  -25.5974   21.8300 H   0  0  0  0  0  0
  -29.4002  -24.7449   20.1927 H   0  0  0  0  0  0
  -28.8854  -25.3087   21.7388 H   0  0  0  0  0  0
  -26.9719  -24.0946   19.7112 H   0  0  0  0  0  0
  1 25  1  0  0  0
  1 30  2  0  0  0
  1 87  1  0  0  0
  2  3  1  0  0  0
  2 25  1  0  0  0
  2 88  1  0  0  0
  2 89  1  0  0  0
  3  4  1  0  0  0
  3 90  1  0  0  0
  3 91  1  0  0  0
  4  5  1  0  0  0
  4 92  1  0  0  0
  4 93  1  0  0  0
  5  6  1  0  0  0
  5 26  1  0  0  0
  5 94  1  0  0  0
  6 25  1  0  0  0
  6 95  1  0  0  0
  6 96  1  0  0  0
  7  8  2  0  0  0
  7 26  1  0  0  0
  7 29  1  0  0  0
  8  9  1  0  0  0
  8 22  1  0  0  0
  9 10  1  0  0  0
  9 27  2  0  0  0
 10 11  2  0  0  0
 10 15  1  0  0  0
 11 12  1  0  0  0
 11 97  1  0  0  0
 12 13  2  0  0  0
 12 98  1  0  0  0
 13 14  1  0  0  0
 13 31  1  0  0  0
 14 15  2  0  0  0
 14 99  1  0  0  0
 15100  1  0  0  0
 16 17  2  0  0  0
 16 21  1  0  0  0
 16 31  1  0  0  0
 17 18  1  0  0  0
 17101  1  0  0  0
 18 19  2  0  0  0
 18102  1  0  0  0
 19 20  1  0  0  0
 19 24  1  0  0  0
 20 21  2  0  0  0
 20103  1  0  0  0
 21 23  1  0  0  0
 22 28  1  0  0  0
 22 32  2  0  0  0
 26 27  1  0  0  0
 28104  1  0  0  0
 28105  1  0  0  0
 29106  1  0  0  0
 29107  1  0  0  0
 33 34  1  0  0  0
 33 66  1  0  0  0
 33 70  2  0  0  0
 34 36  1  0  0  0
 34 59  1  0  0  0
 34108  1  0  0  0
 35 44  2  0  0  0
 35 45  1  0  0  0
 35 68  1  0  0  0
 36 56  1  0  0  0
 36109  1  0  0  0
 37 39  1  0  0  0
 37 47  1  0  0  0
 37 66  1  0  0  0
 37110  1  0  0  0
 38 43  2  0  0  0
 38 46  1  0  0  0
 38 47  1  0  0  0
 39 64  1  0  0  0
 39 67  2  0  0  0
 40 52  1  0  0  0
 40 53  2  0  0  0
 40 58  1  0  0  0
 41111  1  0  0  0
 41112  1  0  0  0
 41113  1  0  0  0
 41 48  1  0  0  0
 42 43  1  0  0  0
 42 66  1  0  0  0
 42114  1  0  0  0
 42115  1  0  0  0
 43 44  1  0  0  0
 44116  1  0  0  0
 45 46  2  0  0  0
 45117  1  0  0  0
 46118  1  0  0  0
 47119  1  0  0  0
 47120  1  0  0  0
 48 56  1  0  0  0
 48 65  1  0  0  0
 48121  1  0  0  0
 49 50  1  0  0  0
 49 53  1  0  0  0
 49 64  1  0  0  0
 49122  1  0  0  0
 50 51  1  0  0  0
 50123  1  0  0  0
 50124  1  0  0  0
 51 52  1  0  0  0
 51125  1  0  0  0
 51126  1  0  0  0
 52127  1  0  0  0
 52128  1  0  0  0
 53 54  1  0  0  0
 54 55  2  0  0  0
 54129  1  0  0  0
 55 57  1  0  0  0
 55130  1  0  0  0
 56 69  2  0  0  0
 57 58  2  0  0  0
 57131  1  0  0  0
 58132  1  0  0  0
 59 60  1  0  0  0
 59 61  1  0  0  0
 59 62  1  0  0  0
 60133  1  0  0  0
 60134  1  0  0  0
 60135  1  0  0  0
 61136  1  0  0  0
 61137  1  0  0  0
 61138  1  0  0  0
 62139  1  0  0  0
 62140  1  0  0  0
 62141  1  0  0  0
 63 65  1  0  0  0
 63142  1  0  0  0
 63143  1  0  0  0
 63144  1  0  0  0
 64145  1  0  0  0
 65146  1  0  0  0
 68 84  1  0  0  0
 71 73  1  0  0  0
 71 74  2  0  0  0
 71147  1  0  0  0
 72 73  2  0  0  0
 72 86  1  0  0  0
 72148  1  0  0  0
 73 85  1  0  0  0
 74 86  1  0  0  0
 74 81  1  0  0  0
 75 76  1  0  0  0
 75 81  1  0  0  0
 75149  1  0  0  0
 75150  1  0  0  0
 76 81  1  0  0  0
 76151  1  0  0  0
 76152  1  0  0  0
 77 79  1  0  0  0
 77 82  1  0  0  0
 77153  1  0  0  0
 77154  1  0  0  0
 78 80  1  0  0  0
 78 82  1  0  0  0
 78155  1  0  0  0
 78156  1  0  0  0
 79 87  1  0  0  0
 79157  1  0  0  0
 79158  1  0  0  0
 80 87  1  0  0  0
 80159  1  0  0  0
 80160  1  0  0  0
 81161  1  0  0  0
 82 86  1  0  0  0
 82162  1  0  0  0
 83163  1  0  0  0
 83164  1  0  0  0
 83165  1  0  0  0
 83 85  1  0  0  0
 84 85  1  0  0  0
 84166  1  0  0  0
 84167  1  0  0  0
 85168  1  0  0  0
M  ISO  4   1 100  68 101  84 101  87 100
M  END
> <chiral flag>
0

> <version>
0

> <s_m_source_file>
/data/baiqing/PycharmProjects/Reinvent-master-3.2/result/LINK_invent/BTK/process_docking_weight1_custom_sum_contain_oxygen_bond_distance_aromatic_linkinvent_7_9_3/rearranged_h_0166.sdf

> <i_m_source_file_index>
93

> <r_mmod_Potential_Energy-OPLS-2005>
423.724975585938

> <r_mmod_Stretch_Energy-OPLS-2005>
102.978187561035

> <r_mmod_Bend_Energy-OPLS-2005>
216.074783325195

> <r_mmod_Torsional_Energy-OPLS-2005>
394.127716064453

> <r_mmod_Improper_Torsional_Energy-OPLS-2005>
13.5819664001465

> <r_mmod_Van_der_Waal_Energy-OPLS-2005>
122.883720397949

> <r_mmod_Electrostatic_Energy-OPLS-2005>
-296.102203369141

> <r_mmod_Solvation_Energy-OPLS-2005>
-184.774154663086

> <b_mmod_Minimization_Converged-OPLS-2005>
0

> <r_mmod_RMS_Derivative-OPLS-2005>
4.09944915771484

$$$$
93
                    3D
 Structure written by MMmdl.
170180  0  0  1  0            999 V2000
  -30.5126  -15.1534   20.3726 C   0  0  0  0  0  0
  -30.4264  -12.7329   19.5080 C   0  0  0  0  0  0
  -29.5198  -12.5499   18.2688 C   0  0  0  0  0  0
  -28.0675  -12.2908   18.7036 C   0  0  0  0  0  0
  -27.6100  -13.2659   19.8180 C   0  0  2  0  0  0
  -28.6485  -13.4241   20.9479 C   0  0  0  0  0  0
  -25.2408  -13.8250   20.5753 C   0  0  0  0  0  0
  -24.1739  -13.0449   20.9245 C   0  0  0  0  0  0
  -24.6374  -11.6939   20.8749 C   0  0  0  0  0  0
  -23.9069  -10.4302   21.0405 C   0  0  0  0  0  0
  -24.3626   -9.4218   21.9180 C   0  0  0  0  0  0
  -23.6305   -8.2248   22.0749 C   0  0  0  0  0  0
  -22.4284   -8.0284   21.3544 C   0  0  0  0  0  0
  -21.9918   -9.0252   20.4642 C   0  0  0  0  0  0
  -22.7241  -10.2136   20.3053 C   0  0  0  0  0  0
  -21.6858   -6.0738   22.5280 C   0  0  0  0  0  0
  -21.4013   -6.5639   23.8215 C   0  0  0  0  0  0
  -21.3664   -5.6791   24.9179 C   0  0  0  0  0  0
  -21.6045   -4.3052   24.7228 C   0  0  0  0  0  0
  -21.8818   -3.8145   23.4349 C   0  0  0  0  0  0
  -21.9192   -4.6963   22.3404 C   0  0  0  0  0  0
  -22.7761  -13.5208   21.1906 C   0  0  0  0  0  0
  -22.1663   -4.2149   21.0982 F   0  0  0  0  0  0
  -21.5635   -3.4534   25.7742 F   0  0  0  0  0  0
  -29.8904  -13.8855   20.3128 N   0  0  0  0  0  0
  -26.2808  -12.9496   20.3221 N   0  0  0  0  0  0
  -25.9309  -11.6609   20.5724 N   0  0  0  0  0  0
  -22.0420  -12.8186   22.0462 N   0  0  0  0  0  0
  -25.4104  -15.1982   20.4227 N   0  0  0  0  0  0
  -31.7401  -15.1012   20.2095 O   0  0  0  0  0  0
  -21.6647   -6.8881   21.4243 O   0  0  0  0  0  0
  -22.3439  -14.5507   20.6752 O   0  0  0  0  0  0
  -24.6555  -31.8308   23.1775 C   0  0  0  0  0  0
  -25.9269  -32.4627   23.8214 C   0  0  1  0  0  0
  -27.2155  -27.0027   20.1717 C   0  0  0  0  0  0
  -25.5965  -33.8439   24.2124 N   0  0  0  0  0  0
  -23.4664  -30.4456   21.5251 C   0  0  2  0  0  0
  -24.9185  -28.8479   20.1112 C   0  0  0  0  0  0
  -22.7630  -29.4479   22.4809 C   0  0  0  0  0  0
  -18.0317  -28.1397   22.8470 C   0  0  0  0  0  0
  -24.1493  -36.7224   23.2646 C   0  0  0  0  0  0
  -26.0316  -30.6617   21.3969 C   0  0  0  0  0  0
  -26.1007  -29.2599   20.7390 C   0  0  0  0  0  0
  -27.2471  -28.3567   20.7467 C   0  0  0  0  0  0
  -26.0054  -26.7253   19.4983 C   0  0  0  0  0  0
  -24.8917  -27.5987   19.4722 C   0  0  0  0  0  0
  -23.7015  -29.7669   20.1486 C   0  0  0  0  0  0
  -25.4132  -36.2994   24.0307 C   0  0  1  0  0  0
  -20.5938  -28.3738   23.1204 C   0  0  2  0  0  0
  -20.6796  -26.9427   22.5404 C   0  0  0  0  0  0
  -19.5773  -26.6375   21.5212 C   0  0  0  0  0  0
  -18.1954  -26.7934   22.1618 C   0  0  0  0  0  0
  -19.1577  -28.8889   23.2826 C   0  0  0  0  0  0
  -18.9487  -30.1479   23.8862 C   0  0  0  0  0  0
  -17.6481  -30.6592   24.0554 C   0  0  0  0  0  0
  -25.9090  -34.9371   23.5036 C   0  0  0  0  0  0
  -16.5373  -29.9079   23.6338 C   0  0  0  0  0  0
  -16.7300  -28.6496   23.0364 C   0  0  0  0  0  0
  -26.4545  -31.6541   25.0711 C   0  0  0  0  0  0
  -25.3696  -31.3771   26.1386 C   0  0  0  0  0  0
  -27.0427  -30.2913   24.6397 C   0  0  0  0  0  0
  -27.6060  -32.4328   25.7504 C   0  0  0  0  0  0
  -27.5579  -37.1767   24.8464 C   0  0  0  0  0  0
  -21.4309  -29.3040   22.3560 N   0  0  0  0  0  0
  -26.4285  -37.3720   23.9410 N   0  0  0  0  0  0
  -24.7386  -31.0041   22.0875 N   0  0  0  0  0  0
  -23.4210  -28.8043   23.3022 O   0  0  0  0  0  0
  -28.2268  -25.9328   20.2530 O   0  0  0  0  0  0
  -26.5694  -34.8890   22.4627 O   0  0  0  0  0  0
  -23.5642  -32.1246   23.6912 O   0  0  0  0  0  0
  -30.4095  -22.6451   18.0915 C   0  0  0  0  0  0
  -30.9832  -23.3216   19.1677 C   0  0  0  0  0  0
  -28.8566  -21.6161   19.6199 C   0  0  0  0  0  0
  -29.2522  -21.8467   18.2684 C   0  0  0  0  0  0
  -30.2654  -23.4750   20.3695 C   0  0  0  0  0  0
  -28.9394  -22.9937   20.3181 C   0  0  0  0  0  0
  -31.2394  -22.8064   16.8426 C   0  0  0  0  0  0
  -32.2962  -23.9561   18.7923 C   0  0  0  0  0  0
  -32.3547  -23.7976   17.2554 C   0  0  0  0  0  0
  -29.8610  -19.2341   21.2511 C   0  0  0  0  0  0
  -28.4546  -18.6891   19.4731 C   0  0  0  0  0  0
  -30.5191  -17.7001   21.1395 C   0  0  0  0  0  0
  -29.0973  -17.1680   19.3524 C   0  0  0  0  0  0
  -29.3269  -19.9651   19.9350 C   0  0  0  0  0  0
  -28.7363  -21.0171   17.1071 C   0  0  0  0  0  0
  -30.7374  -24.4360   21.4434 C   0  0  0  0  0  0
  -27.9235  -24.3532   20.0740 C   0  0  0  0  0  0
  -29.8506  -16.4705   20.4819 N   0  0  0  0  0  0
  -31.4531  -12.9031   19.1810 H   0  0  0  0  0  0
  -30.4575  -11.8202   20.1050 H   0  0  0  0  0  0
  -29.8795  -11.7272   17.6488 H   0  0  0  0  0  0
  -29.5635  -13.4465   17.6481 H   0  0  0  0  0  0
  -28.0149  -11.2651   19.0718 H   0  0  0  0  0  0
  -27.3952  -12.3418   17.8466 H   0  0  0  0  0  0
  -27.5295  -14.2339   19.3234 H   0  0  0  0  0  0
  -28.7939  -12.4902   21.4923 H   0  0  0  0  0  0
  -28.3095  -14.1630   21.6755 H   0  0  0  0  0  0
  -25.2767   -9.5703   22.4760 H   0  0  0  0  0  0
  -24.0019   -7.4636   22.7466 H   0  0  0  0  0  0
  -21.0850   -8.8760   19.8945 H   0  0  0  0  0  0
  -22.3685  -10.9674   19.6168 H   0  0  0  0  0  0
  -21.2001   -7.6146   23.9721 H   0  0  0  0  0  0
  -21.1494   -6.0523   25.9085 H   0  0  0  0  0  0
  -22.0592   -2.7606   23.2849 H   0  0  0  0  0  0
  -22.4047  -11.9850   22.4846 H   0  0  0  0  0  0
  -21.1032  -13.1200   22.2660 H   0  0  0  0  0  0
  -24.6500  -15.8571   20.5518 H   0  0  0  0  0  0
  -26.2762  -15.6421   20.1438 H   0  0  0  0  0  0
  -26.7339  -32.5187   23.0936 H   0  0  0  0  0  0
  -25.0064  -33.9531   25.0243 H   0  0  0  0  0  0
  -22.7760  -31.2754   21.3607 H   0  0  0  0  0  0
  -23.3771  -35.9537   23.3275 H   0  0  0  0  0  0
  -24.3579  -36.8897   22.2067 H   0  0  0  0  0  0
  -23.7230  -37.6397   23.6714 H   0  0  0  0  0  0
  -26.2040  -31.4088   20.6208 H   0  0  0  0  0  0
  -26.8949  -30.7151   22.0485 H   0  0  0  0  0  0
  -28.1429  -28.6673   21.2655 H   0  0  0  0  0  0
  -25.8833  -25.7706   19.0090 H   0  0  0  0  0  0
  -23.9916  -27.2779   18.9660 H   0  0  0  0  0  0
  -23.8503  -30.5381   19.3922 H   0  0  0  0  0  0
  -22.8129  -29.2173   19.8334 H   0  0  0  0  0  0
  -25.1325  -36.1808   25.0799 H   0  0  0  0  0  0
  -21.0027  -28.3338   24.1326 H   0  0  0  0  0  0
  -20.5676  -26.2356   23.3635 H   0  0  0  0  0  0
  -21.6660  -26.7408   22.1212 H   0  0  0  0  0  0
  -19.6933  -25.6274   21.1269 H   0  0  0  0  0  0
  -19.6714  -27.3162   20.6724 H   0  0  0  0  0  0
  -17.4223  -26.6681   21.4019 H   0  0  0  0  0  0
  -18.0347  -26.0081   22.9018 H   0  0  0  0  0  0
  -19.7962  -30.7302   24.2220 H   0  0  0  0  0  0
  -17.5032  -31.6271   24.5156 H   0  0  0  0  0  0
  -15.5371  -30.2970   23.7678 H   0  0  0  0  0  0
  -15.8700  -28.0798   22.7105 H   0  0  0  0  0  0
  -24.5896  -30.7093   25.7705 H   0  0  0  0  0  0
  -24.8861  -32.2961   26.4706 H   0  0  0  0  0  0
  -25.7949  -30.9018   27.0233 H   0  0  0  0  0  0
  -26.3072  -29.6606   24.1389 H   0  0  0  0  0  0
  -27.3960  -29.7258   25.5029 H   0  0  0  0  0  0
  -27.9016  -30.4105   23.9792 H   0  0  0  0  0  0
  -27.2648  -33.3663   26.1990 H   0  0  0  0  0  0
  -28.3918  -32.6827   25.0364 H   0  0  0  0  0  0
  -28.0676  -31.8513   26.5495 H   0  0  0  0  0  0
  -28.2574  -38.0084   24.7522 H   0  0  0  0  0  0
  -28.1097  -36.2613   24.6275 H   0  0  0  0  0  0
  -27.2299  -37.1390   25.8866 H   0  0  0  0  0  0
  -20.9545  -29.8733   21.6705 H   0  0  0  0  0  0
  -26.0144  -38.2781   24.1420 H   0  0  0  0  0  0
  -30.6449  -23.1910   16.0130 H   0  0  0  0  0  0
  -31.6559  -21.8419   16.5509 H   0  0  0  0  0  0
  -33.1089  -23.4144   19.2773 H   0  0  0  0  0  0
  -32.3464  -25.0017   19.0983 H   0  0  0  0  0  0
  -32.1386  -24.7660   16.8022 H   0  0  0  0  0  0
  -33.3409  -23.4964   16.9011 H   0  0  0  0  0  0
  -30.6205  -19.8808   21.6920 H   0  0  0  0  0  0
  -29.0545  -19.2131   21.9851 H   0  0  0  0  0  0
  -27.5840  -18.6332   20.1282 H   0  0  0  0  0  0
  -28.0235  -18.8960   18.4979 H   0  0  0  0  0  0
  -30.7788  -17.3896   22.1521 H   0  0  0  0  0  0
  -31.4802  -17.8131   20.6352 H   0  0  0  0  0  0
  -29.7764  -17.1749   18.4981 H   0  0  0  0  0  0
  -28.2903  -16.4980   19.0587 H   0  0  0  0  0  0
  -30.2194  -19.9019   19.3099 H   0  0  0  0  0  0
  -29.3278  -20.1103   16.9810 H   0  0  0  0  0  0
  -28.7861  -21.5808   16.1757 H   0  0  0  0  0  0
  -27.6920  -20.7464   17.2608 H   0  0  0  0  0  0
  -31.7332  -24.1592   21.7901 H   0  0  0  0  0  0
  -30.0661  -24.4251   22.3027 H   0  0  0  0  0  0
  -30.7808  -25.4546   21.0578 H   0  0  0  0  0  0
  -27.0403  -24.1558   20.6816 H   0  0  0  0  0  0
  -27.5823  -24.2464   19.0442 H   0  0  0  0  0  0
  1 25  1  0  0  0
  1 30  2  0  0  0
  1 88  1  0  0  0
  2  3  1  0  0  0
  2 25  1  0  0  0
  2 89  1  0  0  0
  2 90  1  0  0  0
  3  4  1  0  0  0
  3 91  1  0  0  0
  3 92  1  0  0  0
  4  5  1  0  0  0
  4 93  1  0  0  0
  4 94  1  0  0  0
  5  6  1  0  0  0
  5 26  1  0  0  0
  5 95  1  0  0  0
  6 25  1  0  0  0
  6 96  1  0  0  0
  6 97  1  0  0  0
  7  8  2  0  0  0
  7 26  1  0  0  0
  7 29  1  0  0  0
  8  9  1  0  0  0
  8 22  1  0  0  0
  9 10  1  0  0  0
  9 27  2  0  0  0
 10 11  2  0  0  0
 10 15  1  0  0  0
 11 12  1  0  0  0
 11 98  1  0  0  0
 12 13  2  0  0  0
 12 99  1  0  0  0
 13 14  1  0  0  0
 13 31  1  0  0  0
 14 15  2  0  0  0
 14100  1  0  0  0
 15101  1  0  0  0
 16 17  2  0  0  0
 16 21  1  0  0  0
 16 31  1  0  0  0
 17 18  1  0  0  0
 17102  1  0  0  0
 18 19  2  0  0  0
 18103  1  0  0  0
 19 20  1  0  0  0
 19 24  1  0  0  0
 20 21  2  0  0  0
 20104  1  0  0  0
 21 23  1  0  0  0
 22 28  1  0  0  0
 22 32  2  0  0  0
 26 27  1  0  0  0
 28105  1  0  0  0
 28106  1  0  0  0
 29107  1  0  0  0
 29108  1  0  0  0
 33 34  1  0  0  0
 33 66  1  0  0  0
 33 70  2  0  0  0
 34 36  1  0  0  0
 34 59  1  0  0  0
 34109  1  0  0  0
 35 44  2  0  0  0
 35 45  1  0  0  0
 35 68  1  0  0  0
 36 56  1  0  0  0
 36110  1  0  0  0
 37 39  1  0  0  0
 37 47  1  0  0  0
 37 66  1  0  0  0
 37111  1  0  0  0
 38 43  2  0  0  0
 38 46  1  0  0  0
 38 47  1  0  0  0
 39 64  1  0  0  0
 39 67  2  0  0  0
 40 52  1  0  0  0
 40 53  2  0  0  0
 40 58  1  0  0  0
 41112  1  0  0  0
 41113  1  0  0  0
 41114  1  0  0  0
 41 48  1  0  0  0
 42 43  1  0  0  0
 42 66  1  0  0  0
 42115  1  0  0  0
 42116  1  0  0  0
 43 44  1  0  0  0
 44117  1  0  0  0
 45 46  2  0  0  0
 45118  1  0  0  0
 46119  1  0  0  0
 47120  1  0  0  0
 47121  1  0  0  0
 48 56  1  0  0  0
 48 65  1  0  0  0
 48122  1  0  0  0
 49 50  1  0  0  0
 49 53  1  0  0  0
 49 64  1  0  0  0
 49123  1  0  0  0
 50 51  1  0  0  0
 50124  1  0  0  0
 50125  1  0  0  0
 51 52  1  0  0  0
 51126  1  0  0  0
 51127  1  0  0  0
 52128  1  0  0  0
 52129  1  0  0  0
 53 54  1  0  0  0
 54 55  2  0  0  0
 54130  1  0  0  0
 55 57  1  0  0  0
 55131  1  0  0  0
 56 69  2  0  0  0
 57 58  2  0  0  0
 57132  1  0  0  0
 58133  1  0  0  0
 59 60  1  0  0  0
 59 61  1  0  0  0
 59 62  1  0  0  0
 60134  1  0  0  0
 60135  1  0  0  0
 60136  1  0  0  0
 61137  1  0  0  0
 61138  1  0  0  0
 61139  1  0  0  0
 62140  1  0  0  0
 62141  1  0  0  0
 62142  1  0  0  0
 63 65  1  0  0  0
 63143  1  0  0  0
 63144  1  0  0  0
 63145  1  0  0  0
 64146  1  0  0  0
 65147  1  0  0  0
 68 87  1  0  0  0
 71 72  1  0  0  0
 71 74  2  0  0  0
 71 77  1  0  0  0
 72 75  2  0  0  0
 72 78  1  0  0  0
 73 74  1  0  0  0
 73 76  2  0  0  0
 73 84  1  0  0  0
 74 85  1  0  0  0
 75 76  1  0  0  0
 75 86  1  0  0  0
 76 87  1  0  0  0
 77 79  1  0  0  0
 77148  1  0  0  0
 77149  1  0  0  0
 78 79  1  0  0  0
 78150  1  0  0  0
 78151  1  0  0  0
 79152  1  0  0  0
 79153  1  0  0  0
 80 82  1  0  0  0
 80 84  1  0  0  0
 80154  1  0  0  0
 80155  1  0  0  0
 81 83  1  0  0  0
 81 84  1  0  0  0
 81156  1  0  0  0
 81157  1  0  0  0
 82 88  1  0  0  0
 82158  1  0  0  0
 82159  1  0  0  0
 83 88  1  0  0  0
 83160  1  0  0  0
 83161  1  0  0  0
 84162  1  0  0  0
 85163  1  0  0  0
 85164  1  0  0  0
 85165  1  0  0  0
 86166  1  0  0  0
 86167  1  0  0  0
 86168  1  0  0  0
 87169  1  0  0  0
 87170  1  0  0  0
M  ISO  4   1 100  68 101  87 101  88 100
M  END
> <chiral flag>
0

> <version>
0

> <s_m_source_file>
/data/baiqing/PycharmProjects/Reinvent-master-3.2/result/LINK_invent/BTK/process_docking_weight1_custom_sum_contain_oxygen_bond_distance_aromatic_linkinvent_7_9_3/rearranged_h_0166.sdf

> <i_m_source_file_index>
94

> <r_mmod_Potential_Energy-OPLS-2005>
1570.28771972656

> <r_mmod_Stretch_Energy-OPLS-2005>
441.611175537109

> <r_mmod_Bend_Energy-OPLS-2005>
510.291534423828

> <r_mmod_Torsional_Energy-OPLS-2005>
587.490600585938

> <r_mmod_Improper_Torsional_Energy-OPLS-2005>
46.4522476196289

> <r_mmod_Van_der_Waal_Energy-OPLS-2005>
134.188507080078

> <r_mmod_Electrostatic_Energy-OPLS-2005>
-302.943725585938

> <r_mmod_Solvation_Energy-OPLS-2005>
-199.083770751953

> <b_mmod_Minimization_Converged-OPLS-2005>
0

> <r_mmod_RMS_Derivative-OPLS-2005>
0.926990628242493

$$$$
94
                    3D
 Structure written by MMmdl.
171181  0  0  1  0            999 V2000
  -30.6665  -14.5362   20.5124 C   0  0  0  0  0  0
  -30.4184  -12.3282   19.4415 C   0  0  0  0  0  0
  -29.4956  -12.4972   18.2161 C   0  0  0  0  0  0
  -28.0158  -12.3585   18.6263 C   0  0  0  0  0  0
  -27.6527  -13.2125   19.8716 C   0  0  2  0  0  0
  -28.6961  -13.0315   20.9971 C   0  0  0  0  0  0
  -25.2553  -13.8172   20.5713 C   0  0  0  0  0  0
  -24.1809  -13.0435   20.9190 C   0  0  0  0  0  0
  -24.6369  -11.6907   20.8754 C   0  0  0  0  0  0
  -23.9035  -10.4286   21.0410 C   0  0  0  0  0  0
  -24.3588   -9.4203   21.9187 C   0  0  0  0  0  0
  -23.6262   -8.2237   22.0756 C   0  0  0  0  0  0
  -22.4250   -8.0273   21.3535 C   0  0  0  0  0  0
  -21.9884   -9.0249   20.4632 C   0  0  0  0  0  0
  -22.7213  -10.2122   20.3050 C   0  0  0  0  0  0
  -21.6846   -6.0728   22.5281 C   0  0  0  0  0  0
  -21.4011   -6.5637   23.8217 C   0  0  0  0  0  0
  -21.3657   -5.6791   24.9177 C   0  0  0  0  0  0
  -21.6042   -4.3052   24.7225 C   0  0  0  0  0  0
  -21.8817   -3.8140   23.4351 C   0  0  0  0  0  0
  -21.9189   -4.6956   22.3405 C   0  0  0  0  0  0
  -22.7832  -13.5235   21.1850 C   0  0  0  0  0  0
  -22.1658   -4.2145   21.0980 F   0  0  0  0  0  0
  -21.5627   -3.4531   25.7737 F   0  0  0  0  0  0
  -30.0136  -13.3421   20.4293 N   0  0  0  0  0  0
  -26.2982  -12.9346   20.3385 N   0  0  0  0  0  0
  -25.9298  -11.6498   20.5800 N   0  0  0  0  0  0
  -22.0472  -12.8215   22.0396 N   0  0  0  0  0  0
  -25.4275  -15.1889   20.4153 N   0  0  0  0  0  0
  -31.8434  -14.6519   20.1537 O   0  0  0  0  0  0
  -21.6625   -6.8863   21.4240 O   0  0  0  0  0  0
  -22.3521  -14.5551   20.6711 O   0  0  0  0  0  0
  -24.6175  -31.8658   23.2072 C   0  0  0  0  0  0
  -25.9064  -32.4800   23.8371 C   0  0  1  0  0  0
  -27.2269  -27.3942   20.0965 C   0  0  0  0  0  0
  -25.5921  -33.8601   24.2307 N   0  0  0  0  0  0
  -23.4057  -30.4904   21.5489 C   0  0  2  0  0  0
  -24.8482  -28.9503   20.1162 C   0  0  0  0  0  0
  -22.7414  -29.4650   22.4969 C   0  0  0  0  0  0
  -18.0273  -28.1374   22.8490 C   0  0  0  0  0  0
  -24.1493  -36.7301   23.2639 C   0  0  0  0  0  0
  -25.9384  -30.8196   21.3648 C   0  0  0  0  0  0
  -26.0116  -29.4513   20.7102 C   0  0  0  0  0  0
  -27.2016  -28.6826   20.6931 C   0  0  0  0  0  0
  -26.0365  -26.9142   19.5033 C   0  0  0  0  0  0
  -24.8578  -27.6833   19.5108 C   0  0  0  0  0  0
  -23.6144  -29.8234   20.1639 C   0  0  0  0  0  0
  -25.4117  -36.3095   24.0331 C   0  0  1  0  0  0
  -20.5866  -28.3668   23.1306 C   0  0  2  0  0  0
  -20.6762  -26.9398   22.5422 C   0  0  0  0  0  0
  -19.5746  -26.6380   21.5210 C   0  0  0  0  0  0
  -18.1919  -26.7920   22.1618 C   0  0  0  0  0  0
  -19.1525  -28.8836   23.2896 C   0  0  0  0  0  0
  -18.9450  -30.1440   23.8906 C   0  0  0  0  0  0
  -17.6455  -30.6584   24.0564 C   0  0  0  0  0  0
  -25.9047  -34.9464   23.5117 C   0  0  0  0  0  0
  -16.5343  -29.9085   23.6324 C   0  0  0  0  0  0
  -16.7265  -28.6500   23.0348 C   0  0  0  0  0  0
  -26.4480  -31.6588   25.0717 C   0  0  0  0  0  0
  -25.3731  -31.3688   26.1453 C   0  0  0  0  0  0
  -27.0330  -30.3032   24.6118 C   0  0  0  0  0  0
  -27.6039  -32.4316   25.7498 C   0  0  0  0  0  0
  -27.5582  -37.1813   24.8459 C   0  0  0  0  0  0
  -21.4140  -29.3031   22.3702 N   0  0  0  0  0  0
  -26.4294  -37.3786   23.9402 N   0  0  0  0  0  0
  -24.6725  -31.0735   22.0979 N   0  0  0  0  0  0
  -23.4175  -28.8189   23.3019 O   0  0  0  0  0  0
  -28.4096  -26.6703   20.1138 O   0  0  0  0  0  0
  -26.5605  -34.8913   22.4676 O   0  0  0  0  0  0
  -23.5365  -32.1422   23.7453 O   0  0  0  0  0  0
  -30.5241  -20.6293   20.6381 C   0  0  0  0  0  0
  -30.5421  -22.0546   20.6274 C   0  0  0  0  0  0
  -29.2765  -19.9487   20.7233 C   0  0  0  0  0  0
  -29.3199  -22.7776   20.6182 C   0  0  0  0  0  0
  -28.1148  -20.7714   20.7401 C   0  0  0  0  0  0
  -29.9014  -25.0021   19.4184 C   0  0  0  0  0  0
  -29.0419  -17.8334   19.4999 C   0  0  0  0  0  0
  -29.9563  -16.5837   19.3917 C   0  0  0  0  0  0
  -29.3785  -16.2456   21.7868 C   0  0  0  0  0  0
  -29.2842  -24.3131   20.6203 C   0  0  1  0  0  0
  -28.4587  -25.2694   19.7324 C   0  0  1  0  0  0
  -29.7267  -17.7591   21.9038 C   0  0  2  0  0  0
  -31.8331  -19.8514   20.5512 C   0  0  0  0  0  0
  -31.8696  -22.8134   20.6427 C   0  0  0  0  0  0
  -26.7303  -20.1591   20.8494 C   0  0  0  0  0  0
  -29.2704  -18.3244   23.2570 C   0  0  0  0  0  0
  -28.1356  -22.1297   20.6798 N   0  0  0  0  0  0
  -29.1597  -18.5269   20.7837 N   0  0  0  0  0  0
  -29.8631  -15.6393   20.5294 N   0  0  0  0  0  0
  -31.4643  -12.4226   19.1447 H   0  0  0  0  0  0
  -30.3174  -11.3283   19.8664 H   0  0  0  0  0  0
  -29.7418  -11.7578   17.4525 H   0  0  0  0  0  0
  -29.6585  -13.4756   17.7606 H   0  0  0  0  0  0
  -27.8302  -11.3046   18.8371 H   0  0  0  0  0  0
  -27.3657  -12.6182   17.7904 H   0  0  0  0  0  0
  -27.6804  -14.2547   19.5537 H   0  0  0  0  0  0
  -28.6838  -12.0064   21.3719 H   0  0  0  0  0  0
  -28.4649  -13.6657   21.8524 H   0  0  0  0  0  0
  -25.2727   -9.5697   22.4767 H   0  0  0  0  0  0
  -23.9977   -7.4632   22.7479 H   0  0  0  0  0  0
  -21.0823   -8.8755   19.8933 H   0  0  0  0  0  0
  -22.3664  -10.9661   19.6164 H   0  0  0  0  0  0
  -21.2010   -7.6145   23.9716 H   0  0  0  0  0  0
  -21.1482   -6.0522   25.9082 H   0  0  0  0  0  0
  -22.0596   -2.7603   23.2852 H   0  0  0  0  0  0
  -22.4089  -11.9866   22.4762 H   0  0  0  0  0  0
  -21.1094  -13.1246   22.2616 H   0  0  0  0  0  0
  -24.6655  -15.8463   20.5375 H   0  0  0  0  0  0
  -26.2930  -15.6310   20.1348 H   0  0  0  0  0  0
  -26.7130  -32.5502   23.1123 H   0  0  0  0  0  0
  -25.0080  -33.9760   25.0462 H   0  0  0  0  0  0
  -22.6953  -31.3087   21.4098 H   0  0  0  0  0  0
  -23.3757  -35.9633   23.3300 H   0  0  0  0  0  0
  -24.3577  -36.8930   22.2053 H   0  0  0  0  0  0
  -23.7244  -37.6501   23.6662 H   0  0  0  0  0  0
  -26.0601  -31.5857   20.5979 H   0  0  0  0  0  0
  -26.8227  -30.8662   21.9887 H   0  0  0  0  0  0
  -28.1010  -29.0721   21.1501 H   0  0  0  0  0  0
  -25.9789  -25.9492   19.0264 H   0  0  0  0  0  0
  -23.9609  -27.2906   19.0520 H   0  0  0  0  0  0
  -23.7280  -30.5984   19.4049 H   0  0  0  0  0  0
  -22.7362  -29.2479   19.8655 H   0  0  0  0  0  0
  -25.1292  -36.1958   25.0822 H   0  0  0  0  0  0
  -20.9963  -28.3249   24.1425 H   0  0  0  0  0  0
  -20.5661  -26.2274   23.3609 H   0  0  0  0  0  0
  -21.6634  -26.7434   22.1224 H   0  0  0  0  0  0
  -19.6909  -25.6301   21.1218 H   0  0  0  0  0  0
  -19.6689  -27.3198   20.6742 H   0  0  0  0  0  0
  -17.4201  -26.6686   21.4006 H   0  0  0  0  0  0
  -18.0306  -26.0053   22.8996 H   0  0  0  0  0  0
  -19.7927  -30.7242   24.2283 H   0  0  0  0  0  0
  -17.5015  -31.6262   24.5179 H   0  0  0  0  0  0
  -15.5341  -30.2993   23.7643 H   0  0  0  0  0  0
  -15.8666  -28.0821   22.7054 H   0  0  0  0  0  0
  -24.5930  -30.7007   25.7784 H   0  0  0  0  0  0
  -24.8886  -32.2832   26.4877 H   0  0  0  0  0  0
  -25.8084  -30.8881   27.0223 H   0  0  0  0  0  0
  -26.2893  -29.6780   24.1160 H   0  0  0  0  0  0
  -27.4082  -29.7280   25.4592 H   0  0  0  0  0  0
  -27.8731  -30.4349   23.9295 H   0  0  0  0  0  0
  -27.2647  -33.3613   26.2078 H   0  0  0  0  0  0
  -28.3856  -32.6880   25.0335 H   0  0  0  0  0  0
  -28.0695  -31.8434   26.5417 H   0  0  0  0  0  0
  -28.2591  -38.0118   24.7518 H   0  0  0  0  0  0
  -28.1087  -36.2646   24.6282 H   0  0  0  0  0  0
  -27.2292  -37.1466   25.8860 H   0  0  0  0  0  0
  -20.9298  -29.8774   21.6943 H   0  0  0  0  0  0
  -26.0178  -38.2863   24.1411 H   0  0  0  0  0  0
  -30.0973  -24.4017   18.5322 H   0  0  0  0  0  0
  -30.6325  -25.7833   19.6149 H   0  0  0  0  0  0
  -28.0017  -17.5276   19.3768 H   0  0  0  0  0  0
  -29.2545  -18.5142   18.6737 H   0  0  0  0  0  0
  -30.9900  -16.9099   19.2786 H   0  0  0  0  0  0
  -29.7136  -16.0486   18.4721 H   0  0  0  0  0  0
  -28.2975  -16.1070   21.8448 H   0  0  0  0  0  0
  -29.7972  -15.7125   22.6434 H   0  0  0  0  0  0
  -29.5532  -24.6842   21.6075 H   0  0  0  0  0  0
  -27.7460  -24.8919   19.0051 H   0  0  0  0  0  0
  -30.8130  -17.8340   21.8702 H   0  0  0  0  0  0
  -32.2112  -19.6317   21.5494 H   0  0  0  0  0  0
  -32.6035  -20.3910   20.0025 H   0  0  0  0  0  0
  -31.7019  -18.9138   20.0180 H   0  0  0  0  0  0
  -32.2287  -22.9734   19.6253 H   0  0  0  0  0  0
  -32.6394  -22.2847   21.2036 H   0  0  0  0  0  0
  -31.7836  -23.7854   21.1269 H   0  0  0  0  0  0
  -26.5463  -19.4836   20.0147 H   0  0  0  0  0  0
  -25.9492  -20.9188   20.8482 H   0  0  0  0  0  0
  -26.6440  -19.5884   21.7743 H   0  0  0  0  0  0
  -28.1844  -18.2929   23.3563 H   0  0  0  0  0  0
  -29.5898  -19.3575   23.3938 H   0  0  0  0  0  0
  -29.6921  -17.7473   24.0805 H   0  0  0  0  0  0
  1 25  1  0  0  0
  1 30  2  0  0  0
  1 89  1  0  0  0
  2  3  1  0  0  0
  2 25  1  0  0  0
  2 90  1  0  0  0
  2 91  1  0  0  0
  3  4  1  0  0  0
  3 92  1  0  0  0
  3 93  1  0  0  0
  4  5  1  0  0  0
  4 94  1  0  0  0
  4 95  1  0  0  0
  5  6  1  0  0  0
  5 26  1  0  0  0
  5 96  1  0  0  0
  6 25  1  0  0  0
  6 97  1  0  0  0
  6 98  1  0  0  0
  7  8  2  0  0  0
  7 26  1  0  0  0
  7 29  1  0  0  0
  8  9  1  0  0  0
  8 22  1  0  0  0
  9 10  1  0  0  0
  9 27  2  0  0  0
 10 11  2  0  0  0
 10 15  1  0  0  0
 11 12  1  0  0  0
 11 99  1  0  0  0
 12 13  2  0  0  0
 12100  1  0  0  0
 13 14  1  0  0  0
 13 31  1  0  0  0
 14 15  2  0  0  0
 14101  1  0  0  0
 15102  1  0  0  0
 16 17  2  0  0  0
 16 21  1  0  0  0
 16 31  1  0  0  0
 17 18  1  0  0  0
 17103  1  0  0  0
 18 19  2  0  0  0
 18104  1  0  0  0
 19 20  1  0  0  0
 19 24  1  0  0  0
 20 21  2  0  0  0
 20105  1  0  0  0
 21 23  1  0  0  0
 22 28  1  0  0  0
 22 32  2  0  0  0
 26 27  1  0  0  0
 28106  1  0  0  0
 28107  1  0  0  0
 29108  1  0  0  0
 29109  1  0  0  0
 33 34  1  0  0  0
 33 66  1  0  0  0
 33 70  2  0  0  0
 34 36  1  0  0  0
 34 59  1  0  0  0
 34110  1  0  0  0
 35 44  2  0  0  0
 35 45  1  0  0  0
 35 68  1  0  0  0
 36 56  1  0  0  0
 36111  1  0  0  0
 37 39  1  0  0  0
 37 47  1  0  0  0
 37 66  1  0  0  0
 37112  1  0  0  0
 38 43  2  0  0  0
 38 46  1  0  0  0
 38 47  1  0  0  0
 39 64  1  0  0  0
 39 67  2  0  0  0
 40 52  1  0  0  0
 40 53  2  0  0  0
 40 58  1  0  0  0
 41113  1  0  0  0
 41114  1  0  0  0
 41115  1  0  0  0
 41 48  1  0  0  0
 42 43  1  0  0  0
 42 66  1  0  0  0
 42116  1  0  0  0
 42117  1  0  0  0
 43 44  1  0  0  0
 44118  1  0  0  0
 45 46  2  0  0  0
 45119  1  0  0  0
 46120  1  0  0  0
 47121  1  0  0  0
 47122  1  0  0  0
 48 56  1  0  0  0
 48 65  1  0  0  0
 48123  1  0  0  0
 49 50  1  0  0  0
 49 53  1  0  0  0
 49 64  1  0  0  0
 49124  1  0  0  0
 50 51  1  0  0  0
 50125  1  0  0  0
 50126  1  0  0  0
 51 52  1  0  0  0
 51127  1  0  0  0
 51128  1  0  0  0
 52129  1  0  0  0
 52130  1  0  0  0
 53 54  1  0  0  0
 54 55  2  0  0  0
 54131  1  0  0  0
 55 57  1  0  0  0
 55132  1  0  0  0
 56 69  2  0  0  0
 57 58  2  0  0  0
 57133  1  0  0  0
 58134  1  0  0  0
 59 60  1  0  0  0
 59 61  1  0  0  0
 59 62  1  0  0  0
 60135  1  0  0  0
 60136  1  0  0  0
 60137  1  0  0  0
 61138  1  0  0  0
 61139  1  0  0  0
 61140  1  0  0  0
 62141  1  0  0  0
 62142  1  0  0  0
 62143  1  0  0  0
 63 65  1  0  0  0
 63144  1  0  0  0
 63145  1  0  0  0
 63146  1  0  0  0
 64147  1  0  0  0
 65148  1  0  0  0
 68 81  1  0  0  0
 71 72  2  0  0  0
 71 73  1  0  0  0
 71 83  1  0  0  0
 72 74  1  0  0  0
 72 84  1  0  0  0
 73 75  2  0  0  0
 73 88  1  0  0  0
 74 87  2  0  0  0
 74 80  1  0  0  0
 75 85  1  0  0  0
 75 87  1  0  0  0
 76 80  1  0  0  0
 76 81  1  0  0  0
 76149  1  0  0  0
 76150  1  0  0  0
 77 78  1  0  0  0
 77 88  1  0  0  0
 77151  1  0  0  0
 77152  1  0  0  0
 78 89  1  0  0  0
 78153  1  0  0  0
 78154  1  0  0  0
 79 82  1  0  0  0
 79 89  1  0  0  0
 79155  1  0  0  0
 79156  1  0  0  0
 80 81  1  0  0  0
 80157  1  0  0  0
 81158  1  0  0  0
 82 86  1  0  0  0
 82 88  1  0  0  0
 82159  1  0  0  0
 83160  1  0  0  0
 83161  1  0  0  0
 83162  1  0  0  0
 84163  1  0  0  0
 84164  1  0  0  0
 84165  1  0  0  0
 85166  1  0  0  0
 85167  1  0  0  0
 85168  1  0  0  0
 86169  1  0  0  0
 86170  1  0  0  0
 86171  1  0  0  0
M  ISO  4   1 100  68 101  81 101  89 100
M  END
> <chiral flag>
0

> <version>
0

> <s_m_source_file>
/data/baiqing/PycharmProjects/Reinvent-master-3.2/result/LINK_invent/BTK/process_docking_weight1_custom_sum_contain_oxygen_bond_distance_aromatic_linkinvent_7_9_3/rearranged_h_0166.sdf

> <i_m_source_file_index>
95

> <r_mmod_Potential_Energy-OPLS-2005>
85.6525039672852

> <r_mmod_Stretch_Energy-OPLS-2005>
53.6685981750488

> <r_mmod_Bend_Energy-OPLS-2005>
134.885101318359

> <r_mmod_Torsional_Energy-OPLS-2005>
397.459991455078

> <r_mmod_Improper_Torsional_Energy-OPLS-2005>
18.3215675354004

> <r_mmod_Van_der_Waal_Energy-OPLS-2005>
160.742340087891

> <r_mmod_Electrostatic_Energy-OPLS-2005>
-495.960845947266

> <r_mmod_Solvation_Energy-OPLS-2005>
-205.772964477539

> <b_mmod_Minimization_Converged-OPLS-2005>
0

> <r_mmod_RMS_Derivative-OPLS-2005>
1.43538498878479

$$$$
95
                    3D
 Structure written by MMmdl.
174185  0  0  1  0            999 V2000
  -30.6352  -14.6604   20.4611 C   0  0  0  0  0  0
  -30.4275  -12.3990   19.4567 C   0  0  0  0  0  0
  -29.5049  -12.4921   18.2230 C   0  0  0  0  0  0
  -28.0281  -12.3355   18.6381 C   0  0  0  0  0  0
  -27.6453  -13.2239   19.8533 C   0  0  2  0  0  0
  -28.6913  -13.1267   20.9847 C   0  0  0  0  0  0
  -25.2537  -13.8186   20.5688 C   0  0  0  0  0  0
  -24.1821  -13.0444   20.9201 C   0  0  0  0  0  0
  -24.6398  -11.6915   20.8744 C   0  0  0  0  0  0
  -23.9073  -10.4292   21.0405 C   0  0  0  0  0  0
  -24.3622   -9.4207   21.9184 C   0  0  0  0  0  0
  -23.6294   -8.2244   22.0756 C   0  0  0  0  0  0
  -22.4276   -8.0283   21.3547 C   0  0  0  0  0  0
  -21.9914   -9.0257   20.4649 C   0  0  0  0  0  0
  -22.7246  -10.2135   20.3055 C   0  0  0  0  0  0
  -21.6853   -6.0735   22.5278 C   0  0  0  0  0  0
  -21.4012   -6.5639   23.8211 C   0  0  0  0  0  0
  -21.3659   -5.6793   24.9175 C   0  0  0  0  0  0
  -21.6045   -4.3054   24.7224 C   0  0  0  0  0  0
  -21.8822   -3.8146   23.4345 C   0  0  0  0  0  0
  -21.9195   -4.6963   22.3403 C   0  0  0  0  0  0
  -22.7844  -13.5232   21.1857 C   0  0  0  0  0  0
  -22.1665   -4.2150   21.0979 F   0  0  0  0  0  0
  -21.5629   -3.4538   25.7736 F   0  0  0  0  0  0
  -29.9963  -13.4506   20.3989 N   0  0  0  0  0  0
  -26.2963  -12.9378   20.3301 N   0  0  0  0  0  0
  -25.9325  -11.6527   20.5755 N   0  0  0  0  0  0
  -22.0485  -12.8220   22.0406 N   0  0  0  0  0  0
  -25.4242  -15.1906   20.4086 N   0  0  0  0  0  0
  -31.8316  -14.7487   20.1712 O   0  0  0  0  0  0
  -21.6644   -6.8881   21.4239 O   0  0  0  0  0  0
  -22.3532  -14.5541   20.6707 O   0  0  0  0  0  0
  -24.6264  -31.8585   23.2024 C   0  0  0  0  0  0
  -25.9112  -32.4771   23.8352 C   0  0  1  0  0  0
  -27.2156  -27.3075   20.1201 C   0  0  0  0  0  0
  -25.5929  -33.8569   24.2285 N   0  0  0  0  0  0
  -23.4200  -30.4835   21.5435 C   0  0  2  0  0  0
  -24.8660  -28.9417   20.1066 C   0  0  0  0  0  0
  -22.7480  -29.4603   22.4904 C   0  0  0  0  0  0
  -18.0284  -28.1389   22.8464 C   0  0  0  0  0  0
  -24.1494  -36.7286   23.2641 C   0  0  0  0  0  0
  -25.9623  -30.7873   21.3749 C   0  0  0  0  0  0
  -26.0349  -29.4142   20.7169 C   0  0  0  0  0  0
  -27.2118  -28.6071   20.7176 C   0  0  0  0  0  0
  -26.0294  -26.8984   19.4697 C   0  0  0  0  0  0
  -24.8658  -27.6893   19.4748 C   0  0  0  0  0  0
  -23.6362  -29.8243   20.1566 C   0  0  0  0  0  0
  -25.4113  -36.3073   24.0337 C   0  0  1  0  0  0
  -20.5887  -28.3688   23.1278 C   0  0  2  0  0  0
  -20.6773  -26.9405   22.5415 C   0  0  0  0  0  0
  -19.5757  -26.6383   21.5207 C   0  0  0  0  0  0
  -18.1928  -26.7929   22.1605 C   0  0  0  0  0  0
  -19.1542  -28.8852   23.2862 C   0  0  0  0  0  0
  -18.9464  -30.1454   23.8880 C   0  0  0  0  0  0
  -17.6466  -30.6582   24.0561 C   0  0  0  0  0  0
  -25.9051  -34.9440   23.5107 C   0  0  0  0  0  0
  -16.5355  -29.9083   23.6335 C   0  0  0  0  0  0
  -16.7270  -28.6511   23.0333 C   0  0  0  0  0  0
  -26.4496  -31.6575   25.0716 C   0  0  0  0  0  0
  -25.3735  -31.3707   26.1449 C   0  0  0  0  0  0
  -27.0343  -30.3009   24.6156 C   0  0  0  0  0  0
  -27.6054  -32.4310   25.7494 C   0  0  0  0  0  0
  -27.5574  -37.1798   24.8465 C   0  0  0  0  0  0
  -21.4189  -29.3036   22.3662 N   0  0  0  0  0  0
  -26.4287  -37.3772   23.9412 N   0  0  0  0  0  0
  -24.6882  -31.0605   22.0970 N   0  0  0  0  0  0
  -23.4212  -28.8120   23.2962 O   0  0  0  0  0  0
  -28.3189  -26.4387   20.2029 O   0  0  0  0  0  0
  -26.5616  -34.8916   22.4676 O   0  0  0  0  0  0
  -23.5429  -32.1379   23.7356 O   0  0  0  0  0  0
  -29.6822  -20.2471   19.7932 C   0  0  0  0  0  0
  -29.4250  -19.3851   20.8868 C   0  0  0  0  0  0
  -28.8308  -20.0003   22.0304 C   0  0  0  0  0  0
  -28.7671  -22.2822   20.9238 C   0  0  0  0  0  0
  -29.4069  -21.6486   19.8178 C   0  0  0  0  0  0
  -28.4167  -21.3935   22.0142 C   0  0  0  0  0  0
  -29.1922  -19.5879   24.6389 C   0  0  0  0  0  0
  -29.8839  -18.4693   23.9277 C   0  0  0  0  0  0
  -27.1747  -24.4227   20.9909 C   0  0  0  0  0  0
  -29.1204  -16.5983   21.3394 C   0  0  0  0  0  0
  -30.1293  -17.0266   19.5704 C   0  0  0  0  0  0
  -29.8846  -17.8630   20.8437 C   0  0  0  0  0  0
  -28.6841  -19.1408   23.2753 C   0  0  0  0  0  0
  -28.5792  -23.8589   21.0046 C   0  0  1  0  0  0
  -28.1290  -24.9772   19.9684 C   0  0  2  0  0  0
  -29.8450  -22.4721   18.6194 C   0  0  0  0  0  0
  -28.1615  -23.0127   24.0642 C   0  0  0  0  0  0
  -27.5417  -21.9009   23.1908 C   0  0  1  0  0  0
  -29.8404  -15.7813   20.3337 N   0  0  0  0  0  0
  -26.1727  -22.2027   22.7471 N   0  3  0  0  0  0
  -31.4703  -12.5101   19.1553 H   0  0  0  0  0  0
  -30.3530  -11.4155   19.9233 H   0  0  0  0  0  0
  -29.7706  -11.7253   17.4939 H   0  0  0  0  0  0
  -29.6496  -13.4514   17.7237 H   0  0  0  0  0  0
  -27.8682  -11.2847   18.8837 H   0  0  0  0  0  0
  -27.3744  -12.5518   17.7923 H   0  0  0  0  0  0
  -27.6500  -14.2520   19.4904 H   0  0  0  0  0  0
  -28.7064  -12.1271   21.4208 H   0  0  0  0  0  0
  -28.4473  -13.8153   21.7951 H   0  0  0  0  0  0
  -25.2767   -9.5685   22.4759 H   0  0  0  0  0  0
  -24.0002   -7.4639   22.7474 H   0  0  0  0  0  0
  -21.0848   -8.8781   19.8950 H   0  0  0  0  0  0
  -22.3709  -10.9676   19.6163 H   0  0  0  0  0  0
  -21.2002   -7.6147   23.9715 H   0  0  0  0  0  0
  -21.1478   -6.0521   25.9079 H   0  0  0  0  0  0
  -22.0600   -2.7606   23.2846 H   0  0  0  0  0  0
  -22.4099  -11.9877   22.4789 H   0  0  0  0  0  0
  -21.1098  -13.1234   22.2597 H   0  0  0  0  0  0
  -24.6556  -15.8443   20.5103 H   0  0  0  0  0  0
  -26.2747  -15.6239   20.0725 H   0  0  0  0  0  0
  -26.7169  -32.5445   23.1091 H   0  0  0  0  0  0
  -25.0084  -33.9714   25.0432 H   0  0  0  0  0  0
  -22.7139  -31.3041   21.4020 H   0  0  0  0  0  0
  -23.3755  -35.9619   23.3300 H   0  0  0  0  0  0
  -24.3579  -36.8906   22.2054 H   0  0  0  0  0  0
  -23.7255  -37.6491   23.6661 H   0  0  0  0  0  0
  -26.0956  -31.5519   20.6083 H   0  0  0  0  0  0
  -26.8425  -30.8357   22.0033 H   0  0  0  0  0  0
  -28.1051  -28.9574   21.2147 H   0  0  0  0  0  0
  -25.9722  -25.9439   18.9687 H   0  0  0  0  0  0
  -23.9709  -27.3246   18.9890 H   0  0  0  0  0  0
  -23.7608  -30.6049   19.4047 H   0  0  0  0  0  0
  -22.7552  -29.2587   19.8476 H   0  0  0  0  0  0
  -25.1295  -36.1918   25.0829 H   0  0  0  0  0  0
  -20.9976  -28.3261   24.1401 H   0  0  0  0  0  0
  -20.5684  -26.2274   23.3602 H   0  0  0  0  0  0
  -21.6635  -26.7433   22.1198 H   0  0  0  0  0  0
  -19.6926  -25.6299   21.1220 H   0  0  0  0  0  0
  -19.6720  -27.3203   20.6747 H   0  0  0  0  0  0
  -17.4200  -26.6666   21.4006 H   0  0  0  0  0  0
  -18.0326  -26.0089   22.9017 H   0  0  0  0  0  0
  -19.7948  -30.7265   24.2242 H   0  0  0  0  0  0
  -17.5028  -31.6264   24.5161 H   0  0  0  0  0  0
  -15.5356  -30.2978   23.7689 H   0  0  0  0  0  0
  -15.8661  -28.0842   22.7042 H   0  0  0  0  0  0
  -24.5942  -30.7015   25.7794 H   0  0  0  0  0  0
  -24.8893  -32.2867   26.4846 H   0  0  0  0  0  0
  -25.8082  -30.8929   27.0241 H   0  0  0  0  0  0
  -26.2921  -29.6751   24.1194 H   0  0  0  0  0  0
  -27.4073  -29.7265   25.4643 H   0  0  0  0  0  0
  -27.8769  -30.4302   23.9361 H   0  0  0  0  0  0
  -27.2671  -33.3625   26.2044 H   0  0  0  0  0  0
  -28.3887  -32.6839   25.0333 H   0  0  0  0  0  0
  -28.0691  -31.8444   26.5435 H   0  0  0  0  0  0
  -28.2583  -38.0099   24.7504 H   0  0  0  0  0  0
  -28.1076  -36.2628   24.6301 H   0  0  0  0  0  0
  -27.2286  -37.1459   25.8866 H   0  0  0  0  0  0
  -20.9350  -29.8790   21.6909 H   0  0  0  0  0  0
  -26.0162  -38.2845   24.1423 H   0  0  0  0  0  0
  -30.1647  -19.8274   18.9214 H   0  0  0  0  0  0
  -29.7504  -20.5179   24.7157 H   0  0  0  0  0  0
  -28.6068  -19.3190   25.5161 H   0  0  0  0  0  0
  -29.7570  -17.4783   24.3594 H   0  0  0  0  0  0
  -30.8788  -18.6889   23.5456 H   0  0  0  0  0  0
  -26.3674  -23.8311   20.5632 H   0  0  0  0  0  0
  -26.8887  -25.0706   21.8185 H   0  0  0  0  0  0
  -28.0469  -16.6488   21.1518 H   0  0  0  0  0  0
  -29.3170  -16.3215   22.3741 H   0  0  0  0  0  0
  -31.1430  -17.1203   19.1777 H   0  0  0  0  0  0
  -29.3965  -17.2187   18.7850 H   0  0  0  0  0  0
  -30.8422  -17.8800   21.3660 H   0  0  0  0  0  0
  -27.7537  -18.5746   23.2440 H   0  0  0  0  0  0
  -29.3023  -24.2389   21.7231 H   0  0  0  0  0  0
  -27.9940  -24.7159   18.9211 H   0  0  0  0  0  0
  -30.4736  -21.8899   17.9448 H   0  0  0  0  0  0
  -30.4245  -23.3408   18.9323 H   0  0  0  0  0  0
  -28.9815  -22.8126   18.0483 H   0  0  0  0  0  0
  -29.1785  -22.7564   24.3590 H   0  0  0  0  0  0
  -27.5860  -23.1424   24.9813 H   0  0  0  0  0  0
  -28.1910  -23.9863   23.5858 H   0  0  0  0  0  0
  -27.3412  -21.0901   23.8819 H   0  0  0  0  0  0
  -25.5908  -22.4455   23.5296 H   0  0  0  0  0  0
  -25.7805  -21.3893   22.3062 H   0  0  0  0  0  0
  -26.1690  -22.9554   22.0829 H   0  0  0  0  0  0
  1 25  1  0  0  0
  1 30  2  0  0  0
  1 89  1  0  0  0
  2  3  1  0  0  0
  2 25  1  0  0  0
  2 91  1  0  0  0
  2 92  1  0  0  0
  3  4  1  0  0  0
  3 93  1  0  0  0
  3 94  1  0  0  0
  4  5  1  0  0  0
  4 95  1  0  0  0
  4 96  1  0  0  0
  5  6  1  0  0  0
  5 26  1  0  0  0
  5 97  1  0  0  0
  6 25  1  0  0  0
  6 98  1  0  0  0
  6 99  1  0  0  0
  7  8  2  0  0  0
  7 26  1  0  0  0
  7 29  1  0  0  0
  8  9  1  0  0  0
  8 22  1  0  0  0
  9 10  1  0  0  0
  9 27  2  0  0  0
 10 11  2  0  0  0
 10 15  1  0  0  0
 11 12  1  0  0  0
 11100  1  0  0  0
 12 13  2  0  0  0
 12101  1  0  0  0
 13 14  1  0  0  0
 13 31  1  0  0  0
 14 15  2  0  0  0
 14102  1  0  0  0
 15103  1  0  0  0
 16 17  2  0  0  0
 16 21  1  0  0  0
 16 31  1  0  0  0
 17 18  1  0  0  0
 17104  1  0  0  0
 18 19  2  0  0  0
 18105  1  0  0  0
 19 20  1  0  0  0
 19 24  1  0  0  0
 20 21  2  0  0  0
 20106  1  0  0  0
 21 23  1  0  0  0
 22 28  1  0  0  0
 22 32  2  0  0  0
 26 27  1  0  0  0
 28107  1  0  0  0
 28108  1  0  0  0
 29109  1  0  0  0
 29110  1  0  0  0
 33 34  1  0  0  0
 33 66  1  0  0  0
 33 70  2  0  0  0
 34 36  1  0  0  0
 34 59  1  0  0  0
 34111  1  0  0  0
 35 44  2  0  0  0
 35 45  1  0  0  0
 35 68  1  0  0  0
 36 56  1  0  0  0
 36112  1  0  0  0
 37 39  1  0  0  0
 37 47  1  0  0  0
 37 66  1  0  0  0
 37113  1  0  0  0
 38 43  2  0  0  0
 38 46  1  0  0  0
 38 47  1  0  0  0
 39 64  1  0  0  0
 39 67  2  0  0  0
 40 52  1  0  0  0
 40 53  2  0  0  0
 40 58  1  0  0  0
 41114  1  0  0  0
 41115  1  0  0  0
 41116  1  0  0  0
 41 48  1  0  0  0
 42 43  1  0  0  0
 42 66  1  0  0  0
 42117  1  0  0  0
 42118  1  0  0  0
 43 44  1  0  0  0
 44119  1  0  0  0
 45 46  2  0  0  0
 45120  1  0  0  0
 46121  1  0  0  0
 47122  1  0  0  0
 47123  1  0  0  0
 48 56  1  0  0  0
 48 65  1  0  0  0
 48124  1  0  0  0
 49 50  1  0  0  0
 49 53  1  0  0  0
 49 64  1  0  0  0
 49125  1  0  0  0
 50 51  1  0  0  0
 50126  1  0  0  0
 50127  1  0  0  0
 51 52  1  0  0  0
 51128  1  0  0  0
 51129  1  0  0  0
 52130  1  0  0  0
 52131  1  0  0  0
 53 54  1  0  0  0
 54 55  2  0  0  0
 54132  1  0  0  0
 55 57  1  0  0  0
 55133  1  0  0  0
 56 69  2  0  0  0
 57 58  2  0  0  0
 57134  1  0  0  0
 58135  1  0  0  0
 59 60  1  0  0  0
 59 61  1  0  0  0
 59 62  1  0  0  0
 60136  1  0  0  0
 60137  1  0  0  0
 60138  1  0  0  0
 61139  1  0  0  0
 61140  1  0  0  0
 61141  1  0  0  0
 62142  1  0  0  0
 62143  1  0  0  0
 62144  1  0  0  0
 63 65  1  0  0  0
 63145  1  0  0  0
 63146  1  0  0  0
 63147  1  0  0  0
 64148  1  0  0  0
 65149  1  0  0  0
 68 85  1  0  0  0
 71 72  2  0  0  0
 71 75  1  0  0  0
 71150  1  0  0  0
 72 73  1  0  0  0
 72 82  1  0  0  0
 73 76  2  0  0  0
 73 83  1  0  0  0
 74 75  2  0  0  0
 74 76  1  0  0  0
 74 84  1  0  0  0
 75 86  1  0  0  0
 76 88  1  0  0  0
 77 78  1  0  0  0
 77 83  1  0  0  0
 77151  1  0  0  0
 77152  1  0  0  0
 78 83  1  0  0  0
 78153  1  0  0  0
 78154  1  0  0  0
 79 84  1  0  0  0
 79 85  1  0  0  0
 79155  1  0  0  0
 79156  1  0  0  0
 80 82  1  0  0  0
 80 89  1  0  0  0
 80157  1  0  0  0
 80158  1  0  0  0
 81 82  1  0  0  0
 81 89  1  0  0  0
 81159  1  0  0  0
 81160  1  0  0  0
 82161  1  0  0  0
 83162  1  0  0  0
 84 85  1  0  0  0
 84163  1  0  0  0
 85164  1  0  0  0
 86165  1  0  0  0
 86166  1  0  0  0
 86167  1  0  0  0
 87168  1  0  0  0
 87169  1  0  0  0
 87170  1  0  0  0
 87 88  1  0  0  0
 88 90  1  0  0  0
 88171  1  0  0  0
 90172  1  0  0  0
 90173  1  0  0  0
 90174  1  0  0  0
M  CHG  1  90   1
M  ISO  4   1 100  68 101  85 101  89 100
M  END
> <chiral flag>
0

> <version>
0

> <s_m_source_file>
/data/baiqing/PycharmProjects/Reinvent-master-3.2/result/LINK_invent/BTK/process_docking_weight1_custom_sum_contain_oxygen_bond_distance_aromatic_linkinvent_7_9_3/rearranged_h_0166.sdf

> <i_m_source_file_index>
96

> <r_mmod_Potential_Energy-OPLS-2005>
4.64816522598267

> <r_mmod_Stretch_Energy-OPLS-2005>
103.049415588379

> <r_mmod_Bend_Energy-OPLS-2005>
175.612930297852

> <r_mmod_Torsional_Energy-OPLS-2005>
322.492279052734

> <r_mmod_Improper_Torsional_Energy-OPLS-2005>
21.9459495544434

> <r_mmod_Van_der_Waal_Energy-OPLS-2005>
147.969055175781

> <r_mmod_Electrostatic_Energy-OPLS-2005>
-358.083892822266

> <r_mmod_Solvation_Energy-OPLS-2005>
-468.110229492188

> <b_mmod_Minimization_Converged-OPLS-2005>
0

> <r_mmod_RMS_Derivative-OPLS-2005>
1.27041697502136

$$$$
96
                    3D
 Structure written by MMmdl.
164173  0  0  1  0            999 V2000
  -30.5948  -14.7405   20.4963 C   0  0  0  0  0  0
  -30.4512  -12.4668   19.4571 C   0  0  0  0  0  0
  -29.5143  -12.5133   18.2296 C   0  0  0  0  0  0
  -28.0417  -12.3286   18.6479 C   0  0  0  0  0  0
  -27.6479  -13.2211   19.8544 C   0  0  2  0  0  0
  -28.6949  -13.1305   20.9846 C   0  0  0  0  0  0
  -25.2564  -13.8174   20.5680 C   0  0  0  0  0  0
  -24.1835  -13.0447   20.9192 C   0  0  0  0  0  0
  -24.6391  -11.6907   20.8738 C   0  0  0  0  0  0
  -23.9045  -10.4302   21.0411 C   0  0  0  0  0  0
  -24.3607   -9.4221   21.9184 C   0  0  0  0  0  0
  -23.6296   -8.2245   22.0752 C   0  0  0  0  0  0
  -22.4276   -8.0282   21.3549 C   0  0  0  0  0  0
  -21.9907   -9.0250   20.4644 C   0  0  0  0  0  0
  -22.7222  -10.2138   20.3056 C   0  0  0  0  0  0
  -21.6858   -6.0722   22.5270 C   0  0  0  0  0  0
  -21.4001   -6.5629   23.8200 C   0  0  0  0  0  0
  -21.3664   -5.6784   24.9172 C   0  0  0  0  0  0
  -21.6054   -4.3048   24.7224 C   0  0  0  0  0  0
  -21.8829   -3.8130   23.4352 C   0  0  0  0  0  0
  -21.9194   -4.6942   22.3399 C   0  0  0  0  0  0
  -22.7858  -13.5248   21.1845 C   0  0  0  0  0  0
  -22.1668   -4.2129   21.0979 F   0  0  0  0  0  0
  -21.5641   -3.4530   25.7739 F   0  0  0  0  0  0
  -29.9944  -13.5051   20.4067 N   0  0  0  0  0  0
  -26.2980  -12.9342   20.3307 N   0  0  0  0  0  0
  -25.9325  -11.6500   20.5773 N   0  0  0  0  0  0
  -22.0488  -12.8250   22.0396 N   0  0  0  0  0  0
  -25.4282  -15.1894   20.4059 N   0  0  0  0  0  0
  -31.7833  -14.8756   20.1858 O   0  0  0  0  0  0
  -21.6656   -6.8869   21.4241 O   0  0  0  0  0  0
  -22.3549  -14.5551   20.6683 O   0  0  0  0  0  0
  -24.6307  -31.8558   23.1972 C   0  0  0  0  0  0
  -25.9129  -32.4766   23.8333 C   0  0  1  0  0  0
  -27.2324  -27.2790   20.1415 C   0  0  0  0  0  0
  -25.5915  -33.8564   24.2260 N   0  0  0  0  0  0
  -23.4303  -30.4757   21.5397 C   0  0  2  0  0  0
  -24.8821  -28.9223   20.1175 C   0  0  0  0  0  0
  -22.7507  -29.4600   22.4902 C   0  0  0  0  0  0
  -18.0287  -28.1393   22.8471 C   0  0  0  0  0  0
  -24.1486  -36.7286   23.2643 C   0  0  0  0  0  0
  -25.9746  -30.7805   21.3706 C   0  0  0  0  0  0
  -26.0540  -29.4031   20.7148 C   0  0  0  0  0  0
  -27.2379  -28.5988   20.7041 C   0  0  0  0  0  0
  -26.0342  -26.8559   19.5275 C   0  0  0  0  0  0
  -24.8737  -27.6537   19.5167 C   0  0  0  0  0  0
  -23.6529  -29.8069   20.1587 C   0  0  0  0  0  0
  -25.4113  -36.3069   24.0320 C   0  0  1  0  0  0
  -20.5896  -28.3701   23.1257 C   0  0  2  0  0  0
  -20.6769  -26.9413   22.5404 C   0  0  0  0  0  0
  -19.5751  -26.6378   21.5203 C   0  0  0  0  0  0
  -18.1932  -26.7932   22.1616 C   0  0  0  0  0  0
  -19.1542  -28.8859   23.2859 C   0  0  0  0  0  0
  -18.9469  -30.1460   23.8885 C   0  0  0  0  0  0
  -17.6468  -30.6589   24.0560 C   0  0  0  0  0  0
  -25.9050  -34.9441   23.5094 C   0  0  0  0  0  0
  -16.5358  -29.9093   23.6322 C   0  0  0  0  0  0
  -16.7273  -28.6510   23.0340 C   0  0  0  0  0  0
  -26.4499  -31.6592   25.0720 C   0  0  0  0  0  0
  -25.3716  -31.3752   26.1432 C   0  0  0  0  0  0
  -27.0350  -30.3003   24.6215 C   0  0  0  0  0  0
  -27.6038  -32.4344   25.7513 C   0  0  0  0  0  0
  -27.5573  -37.1794   24.8455 C   0  0  0  0  0  0
  -21.4214  -29.3046   22.3648 N   0  0  0  0  0  0
  -26.4287  -37.3765   23.9399 N   0  0  0  0  0  0
  -24.6978  -31.0538   22.0938 N   0  0  0  0  0  0
  -23.4196  -28.8134   23.3011 O   0  0  0  0  0  0
  -28.3348  -26.3976   20.1508 O   0  0  0  0  0  0
  -26.5625  -34.8913   22.4670 O   0  0  0  0  0  0
  -23.5454  -32.1374   23.7265 O   0  0  0  0  0  0
  -28.7744  -22.3613   20.5831 C   0  0  0  0  0  0
  -28.9161  -23.7229   20.0637 C   0  0  0  0  0  0
  -29.4652  -21.2022   20.0081 C   0  0  0  0  0  0
  -29.8029  -23.8494   18.9736 C   0  0  0  0  0  0
  -30.2586  -21.5350   18.8672 C   0  0  0  0  0  0
  -31.5040  -18.5128   20.4271 C   0  0  0  0  0  0
  -31.3115  -17.6735   21.6947 C   0  0  0  0  0  0
  -29.9841  -18.5220   20.1677 C   0  0  1  0  0  0
  -29.9113  -17.2860   21.2047 C   0  0  1  0  0  0
  -27.8547  -22.1481   21.7814 C   0  0  0  0  0  0
  -30.1484  -25.1849   18.3397 C   0  0  0  0  0  0
  -30.9786  -20.5216   17.9942 C   0  0  0  0  0  0
  -28.1367  -24.9945   20.6530 C   0  0  0  0  0  0
  -30.4242  -22.7963   18.4065 N   0  0  0  0  0  0
  -29.3326  -19.8462   20.5516 N   0  0  0  0  0  0
  -29.7688  -15.8191   20.7723 N   0  0  0  0  0  0
  -31.4816  -12.6347   19.1408 H   0  0  0  0  0  0
  -30.4319  -11.4829   19.9261 H   0  0  0  0  0  0
  -29.8003  -11.7453   17.5085 H   0  0  0  0  0  0
  -29.6319  -13.4704   17.7218 H   0  0  0  0  0  0
  -27.9025  -11.2785   18.9063 H   0  0  0  0  0  0
  -27.3801  -12.5191   17.8020 H   0  0  0  0  0  0
  -27.6469  -14.2461   19.4838 H   0  0  0  0  0  0
  -28.7372  -12.1204   21.3926 H   0  0  0  0  0  0
  -28.4276  -13.7811   21.8185 H   0  0  0  0  0  0
  -25.2753   -9.5707   22.4754 H   0  0  0  0  0  0
  -24.0008   -7.4645   22.7481 H   0  0  0  0  0  0
  -21.0826   -8.8760   19.8965 H   0  0  0  0  0  0
  -22.3659  -10.9676   19.6170 H   0  0  0  0  0  0
  -21.1970   -7.6132   23.9688 H   0  0  0  0  0  0
  -21.1489   -6.0523   25.9074 H   0  0  0  0  0  0
  -22.0598   -2.7588   23.2864 H   0  0  0  0  0  0
  -22.4095  -11.9933   22.4835 H   0  0  0  0  0  0
  -21.1101  -13.1296   22.2556 H   0  0  0  0  0  0
  -24.6616  -15.8454   20.5113 H   0  0  0  0  0  0
  -26.2694  -15.6255   20.0500 H   0  0  0  0  0  0
  -26.7215  -32.5443   23.1100 H   0  0  0  0  0  0
  -25.0016  -33.9711   25.0369 H   0  0  0  0  0  0
  -22.7260  -31.2963   21.3867 H   0  0  0  0  0  0
  -23.3744  -35.9627   23.3310 H   0  0  0  0  0  0
  -24.3576  -36.8913   22.2061 H   0  0  0  0  0  0
  -23.7257  -37.6487   23.6680 H   0  0  0  0  0  0
  -26.1062  -31.5429   20.6012 H   0  0  0  0  0  0
  -26.8539  -30.8335   22.0022 H   0  0  0  0  0  0
  -28.1413  -28.9762   21.1619 H   0  0  0  0  0  0
  -25.9825  -25.8791   19.0675 H   0  0  0  0  0  0
  -23.9699  -27.2715   19.0620 H   0  0  0  0  0  0
  -23.7879  -30.5818   19.4031 H   0  0  0  0  0  0
  -22.7745  -29.2383   19.8478 H   0  0  0  0  0  0
  -25.1306  -36.1909   25.0813 H   0  0  0  0  0  0
  -20.9977  -28.3274   24.1381 H   0  0  0  0  0  0
  -20.5638  -26.2315   23.3612 H   0  0  0  0  0  0
  -21.6642  -26.7413   22.1218 H   0  0  0  0  0  0
  -19.6907  -25.6280   21.1248 H   0  0  0  0  0  0
  -19.6701  -27.3176   20.6726 H   0  0  0  0  0  0
  -17.4195  -26.6667   21.4028 H   0  0  0  0  0  0
  -18.0342  -26.0091   22.9031 H   0  0  0  0  0  0
  -19.7949  -30.7273   24.2260 H   0  0  0  0  0  0
  -17.5026  -31.6268   24.5168 H   0  0  0  0  0  0
  -15.5360  -30.2995   23.7651 H   0  0  0  0  0  0
  -15.8674  -28.0830   22.7058 H   0  0  0  0  0  0
  -24.5872  -30.7134   25.7744 H   0  0  0  0  0  0
  -24.8934  -32.2934   26.4848 H   0  0  0  0  0  0
  -25.8009  -30.8913   27.0212 H   0  0  0  0  0  0
  -26.2948  -29.6745   24.1215 H   0  0  0  0  0  0
  -27.3997  -29.7271   25.4748 H   0  0  0  0  0  0
  -27.8834  -30.4262   23.9486 H   0  0  0  0  0  0
  -27.2617  -33.3633   26.2090 H   0  0  0  0  0  0
  -28.3856  -32.6934   25.0362 H   0  0  0  0  0  0
  -28.0703  -31.8480   26.5437 H   0  0  0  0  0  0
  -28.2571  -38.0103   24.7490 H   0  0  0  0  0  0
  -28.1082  -36.2626   24.6294 H   0  0  0  0  0  0
  -27.2278  -37.1452   25.8853 H   0  0  0  0  0  0
  -20.9401  -29.8801   21.6876 H   0  0  0  0  0  0
  -26.0154  -38.2830   24.1419 H   0  0  0  0  0  0
  -32.0550  -17.9673   19.6591 H   0  0  0  0  0  0
  -31.9563  -19.4847   20.6247 H   0  0  0  0  0  0
  -31.2723  -18.2925   22.5923 H   0  0  0  0  0  0
  -32.0322  -16.8674   21.8173 H   0  0  0  0  0  0
  -29.7080  -18.1992   19.1629 H   0  0  0  0  0  0
  -29.1753  -17.5102   21.9783 H   0  0  0  0  0  0
  -26.8088  -22.2177   21.4828 H   0  0  0  0  0  0
  -28.0455  -22.8936   22.5513 H   0  0  0  0  0  0
  -27.9939  -21.1805   22.2585 H   0  0  0  0  0  0
  -29.2677  -25.6399   17.8863 H   0  0  0  0  0  0
  -30.9046  -25.0772   17.5608 H   0  0  0  0  0  0
  -30.5537  -25.8686   19.0867 H   0  0  0  0  0  0
  -31.9005  -20.1782   18.4576 H   0  0  0  0  0  0
  -31.2574  -20.9565   17.0340 H   0  0  0  0  0  0
  -30.3366  -19.6759   17.7645 H   0  0  0  0  0  0
  -28.4149  -25.0454   21.7054 H   0  0  0  0  0  0
  -27.0794  -24.7367   20.6600 H   0  0  0  0  0  0
  -28.6754  -19.7591   21.3222 H   0  0  0  0  0  0
  -28.8185  -15.4996   20.8877 H   0  0  0  0  0  0
  1 25  1  0  0  0
  1 30  2  0  0  0
  1 86  1  0  0  0
  2  3  1  0  0  0
  2 25  1  0  0  0
  2 87  1  0  0  0
  2 88  1  0  0  0
  3  4  1  0  0  0
  3 89  1  0  0  0
  3 90  1  0  0  0
  4  5  1  0  0  0
  4 91  1  0  0  0
  4 92  1  0  0  0
  5  6  1  0  0  0
  5 26  1  0  0  0
  5 93  1  0  0  0
  6 25  1  0  0  0
  6 94  1  0  0  0
  6 95  1  0  0  0
  7  8  2  0  0  0
  7 26  1  0  0  0
  7 29  1  0  0  0
  8  9  1  0  0  0
  8 22  1  0  0  0
  9 10  1  0  0  0
  9 27  2  0  0  0
 10 11  2  0  0  0
 10 15  1  0  0  0
 11 12  1  0  0  0
 11 96  1  0  0  0
 12 13  2  0  0  0
 12 97  1  0  0  0
 13 14  1  0  0  0
 13 31  1  0  0  0
 14 15  2  0  0  0
 14 98  1  0  0  0
 15 99  1  0  0  0
 16 17  2  0  0  0
 16 21  1  0  0  0
 16 31  1  0  0  0
 17 18  1  0  0  0
 17100  1  0  0  0
 18 19  2  0  0  0
 18101  1  0  0  0
 19 20  1  0  0  0
 19 24  1  0  0  0
 20 21  2  0  0  0
 20102  1  0  0  0
 21 23  1  0  0  0
 22 28  1  0  0  0
 22 32  2  0  0  0
 26 27  1  0  0  0
 28103  1  0  0  0
 28104  1  0  0  0
 29105  1  0  0  0
 29106  1  0  0  0
 33 34  1  0  0  0
 33 66  1  0  0  0
 33 70  2  0  0  0
 34 36  1  0  0  0
 34 59  1  0  0  0
 34107  1  0  0  0
 35 44  2  0  0  0
 35 45  1  0  0  0
 35 68  1  0  0  0
 36 56  1  0  0  0
 36108  1  0  0  0
 37 39  1  0  0  0
 37 47  1  0  0  0
 37 66  1  0  0  0
 37109  1  0  0  0
 38 43  2  0  0  0
 38 46  1  0  0  0
 38 47  1  0  0  0
 39 64  1  0  0  0
 39 67  2  0  0  0
 40 52  1  0  0  0
 40 53  2  0  0  0
 40 58  1  0  0  0
 41110  1  0  0  0
 41111  1  0  0  0
 41112  1  0  0  0
 41 48  1  0  0  0
 42 43  1  0  0  0
 42 66  1  0  0  0
 42113  1  0  0  0
 42114  1  0  0  0
 43 44  1  0  0  0
 44115  1  0  0  0
 45 46  2  0  0  0
 45116  1  0  0  0
 46117  1  0  0  0
 47118  1  0  0  0
 47119  1  0  0  0
 48 56  1  0  0  0
 48 65  1  0  0  0
 48120  1  0  0  0
 49 50  1  0  0  0
 49 53  1  0  0  0
 49 64  1  0  0  0
 49121  1  0  0  0
 50 51  1  0  0  0
 50122  1  0  0  0
 50123  1  0  0  0
 51 52  1  0  0  0
 51124  1  0  0  0
 51125  1  0  0  0
 52126  1  0  0  0
 52127  1  0  0  0
 53 54  1  0  0  0
 54 55  2  0  0  0
 54128  1  0  0  0
 55 57  1  0  0  0
 55129  1  0  0  0
 56 69  2  0  0  0
 57 58  2  0  0  0
 57130  1  0  0  0
 58131  1  0  0  0
 59 60  1  0  0  0
 59 61  1  0  0  0
 59 62  1  0  0  0
 60132  1  0  0  0
 60133  1  0  0  0
 60134  1  0  0  0
 61135  1  0  0  0
 61136  1  0  0  0
 61137  1  0  0  0
 62138  1  0  0  0
 62139  1  0  0  0
 62140  1  0  0  0
 63 65  1  0  0  0
 63141  1  0  0  0
 63142  1  0  0  0
 63143  1  0  0  0
 64144  1  0  0  0
 65145  1  0  0  0
 68 83  1  0  0  0
 71 72  2  0  0  0
 71 73  1  0  0  0
 71 80  1  0  0  0
 72 74  1  0  0  0
 72 83  1  0  0  0
 73 75  2  0  0  0
 73 85  1  0  0  0
 74 81  1  0  0  0
 74 84  2  0  0  0
 75 82  1  0  0  0
 75 84  1  0  0  0
 76 77  1  0  0  0
 76 78  1  0  0  0
 76146  1  0  0  0
 76147  1  0  0  0
 77 79  1  0  0  0
 77148  1  0  0  0
 77149  1  0  0  0
 78 79  1  0  0  0
 78 85  1  0  0  0
 78150  1  0  0  0
 79 86  1  0  0  0
 79151  1  0  0  0
 80152  1  0  0  0
 80153  1  0  0  0
 80154  1  0  0  0
 81155  1  0  0  0
 81156  1  0  0  0
 81157  1  0  0  0
 82158  1  0  0  0
 82159  1  0  0  0
 82160  1  0  0  0
 83161  1  0  0  0
 83162  1  0  0  0
 85163  1  0  0  0
 86164  1  0  0  0
M  ISO  4   1 100  68 101  83 101  86 100
M  END
> <chiral flag>
0

> <version>
0

> <s_m_source_file>
/data/baiqing/PycharmProjects/Reinvent-master-3.2/result/LINK_invent/BTK/process_docking_weight1_custom_sum_contain_oxygen_bond_distance_aromatic_linkinvent_7_9_3/rearranged_h_0166.sdf

> <i_m_source_file_index>
97

> <r_mmod_Potential_Energy-OPLS-2005>
73.0381164550781

> <r_mmod_Stretch_Energy-OPLS-2005>
129.841873168945

> <r_mmod_Bend_Energy-OPLS-2005>
219.642181396484

> <r_mmod_Torsional_Energy-OPLS-2005>
267.090911865234

> <r_mmod_Improper_Torsional_Energy-OPLS-2005>
4.29417943954468

> <r_mmod_Van_der_Waal_Energy-OPLS-2005>
150.075149536133

> <r_mmod_Electrostatic_Energy-OPLS-2005>
-552.528442382812

> <r_mmod_Solvation_Energy-OPLS-2005>
-224.222183227539

> <b_mmod_Minimization_Converged-OPLS-2005>
0

> <r_mmod_RMS_Derivative-OPLS-2005>
2.72234416007996

$$$$
