0
                    3D
 Structure written by MMmdl.
190199  0  0  1  0            999 V2000
  -30.5619  -14.8156   20.3605 C   0  0  0  0  0  0
  -30.4306  -12.4818   19.4778 C   0  0  0  0  0  0
  -29.5066  -12.4864   18.2426 C   0  0  0  0  0  0
  -28.0283  -12.3276   18.6526 C   0  0  0  0  0  0
  -27.6271  -13.2392   19.8423 C   0  0  2  0  0  0
  -28.6763  -13.2110   20.9704 C   0  0  0  0  0  0
  -25.2514  -13.8102   20.6059 C   0  0  0  0  0  0
  -24.1733  -13.0379   20.9391 C   0  0  0  0  0  0
  -24.6317  -11.6905   20.8770 C   0  0  0  0  0  0
  -23.9012  -10.4274   21.0378 C   0  0  0  0  0  0
  -24.3597   -9.4217   21.9168 C   0  0  0  0  0  0
  -23.6347   -8.2212   22.0712 C   0  0  0  0  0  0
  -22.4311   -8.0249   21.3536 C   0  0  0  0  0  0
  -21.9928   -9.0191   20.4608 C   0  0  0  0  0  0
  -22.7174  -10.2112   20.3015 C   0  0  0  0  0  0
  -21.6848   -6.0765   22.5275 C   0  0  0  0  0  0
  -21.3966   -6.5677   23.8191 C   0  0  0  0  0  0
  -21.3661   -5.6838   24.9173 C   0  0  0  0  0  0
  -21.6073   -4.3098   24.7231 C   0  0  0  0  0  0
  -21.8807   -3.8183   23.4333 C   0  0  0  0  0  0
  -21.9170   -4.6983   22.3388 C   0  0  0  0  0  0
  -22.7719  -13.5176   21.2037 C   0  0  0  0  0  0
  -22.1677   -4.2203   21.0969 F   0  0  0  0  0  0
  -21.5669   -3.4576   25.7740 F   0  0  0  0  0  0
  -29.9692  -13.5705   20.3714 N   0  0  0  0  0  0
  -26.2850  -12.9356   20.3308 N   0  0  0  0  0  0
  -25.9265  -11.6502   20.5682 N   0  0  0  0  0  0
  -22.0432  -12.8030   22.0549 N   0  0  0  0  0  0
  -25.4429  -15.1765   20.4826 N   0  0  0  0  0  0
  -31.7647  -14.8997   20.0783 O   0  0  0  0  0  0
  -21.6650   -6.8888   21.4247 O   0  0  0  0  0  0
  -22.3375  -14.5494   20.6881 O   0  0  0  0  0  0
  -24.6331  -31.8522   23.1964 C   0  0  0  0  0  0
  -25.9146  -32.4722   23.8306 C   0  0  1  0  0  0
  -27.2260  -27.2526   20.0941 C   0  0  0  0  0  0
  -25.5940  -33.8536   24.2228 N   0  0  0  0  0  0
  -23.4282  -30.4727   21.5423 C   0  0  2  0  0  0
  -24.8720  -28.9158   20.1163 C   0  0  0  0  0  0
  -22.7491  -29.4588   22.4953 C   0  0  0  0  0  0
  -18.0286  -28.1374   22.8457 C   0  0  0  0  0  0
  -24.1509  -36.7261   23.2630 C   0  0  0  0  0  0
  -25.9765  -30.7564   21.3800 C   0  0  0  0  0  0
  -26.0489  -29.3798   20.7179 C   0  0  0  0  0  0
  -27.2290  -28.5632   20.6906 C   0  0  0  0  0  0
  -26.0173  -26.8571   19.4771 C   0  0  0  0  0  0
  -24.8623  -27.6625   19.4886 C   0  0  0  0  0  0
  -23.6434  -29.8054   20.1611 C   0  0  0  0  0  0
  -25.4139  -36.3045   24.0304 C   0  0  1  0  0  0
  -20.5892  -28.3674   23.1277 C   0  0  2  0  0  0
  -20.6790  -26.9395   22.5426 C   0  0  0  0  0  0
  -19.5787  -26.6381   21.5198 C   0  0  0  0  0  0
  -18.1946  -26.7927   22.1569 C   0  0  0  0  0  0
  -19.1541  -28.8844   23.2856 C   0  0  0  0  0  0
  -18.9458  -30.1447   23.8880 C   0  0  0  0  0  0
  -17.6458  -30.6572   24.0557 C   0  0  0  0  0  0
  -25.9077  -34.9421   23.5070 C   0  0  0  0  0  0
  -16.5353  -29.9060   23.6344 C   0  0  0  0  0  0
  -16.7270  -28.6481   23.0352 C   0  0  0  0  0  0
  -26.4525  -31.6543   25.0695 C   0  0  0  0  0  0
  -25.3736  -31.3691   26.1390 C   0  0  0  0  0  0
  -27.0354  -30.2934   24.6212 C   0  0  0  0  0  0
  -27.6085  -32.4272   25.7472 C   0  0  0  0  0  0
  -27.5599  -37.1781   24.8442 C   0  0  0  0  0  0
  -21.4198  -29.3007   22.3662 N   0  0  0  0  0  0
  -26.4296  -37.3747   23.9406 N   0  0  0  0  0  0
  -24.6985  -31.0472   22.0944 N   0  0  0  0  0  0
  -23.4201  -28.8144   23.3057 O   0  0  0  0  0  0
  -28.3500  -26.3836   20.0697 O   0  0  0  0  0  0
  -26.5671  -34.8895   22.4660 O   0  0  0  0  0  0
  -23.5486  -32.1346   23.7266 O   0  0  0  0  0  0
  -26.1651  -21.0813   18.8493 C   0  0  0  0  0  0
  -27.4036  -21.7116   18.8777 C   0  0  0  0  0  0
  -25.9630  -19.9338   19.6190 C   0  0  0  0  0  0
  -28.4924  -21.1844   19.6005 C   0  0  0  0  0  0
  -28.4267  -19.7733   20.0443 C   0  0  0  0  0  0
  -27.0904  -19.2637   20.1903 C   0  0  0  0  0  0
  -21.9514  -17.1093   17.1753 C   0  0  0  0  0  0
  -23.4545  -16.8062   17.2624 C   0  0  0  0  0  0
  -21.6930  -18.6261   17.2395 C   0  0  0  0  0  0
  -24.0676  -17.4241   18.5238 C   0  0  0  0  0  0
  -22.3235  -19.2623   18.4937 C   0  0  0  0  0  0
  -23.8347  -18.9466   18.5822 C   0  0  0  0  0  0
  -24.6620  -17.9439   23.5845 C   0  0  0  0  0  0
  -26.7672  -18.2436   24.9635 C   0  0  0  0  0  0
  -24.4931  -19.5545   19.8355 C   0  0  0  0  0  0
  -29.5641  -22.2880   19.9305 C   0  0  0  0  0  0
  -29.6390  -18.8262   20.5283 C   0  0  0  0  0  0
  -26.8379  -18.1304   21.1718 C   0  0  0  0  0  0
  -29.3500  -23.8931   19.6142 C   0  0  0  0  0  0
  -30.0403  -17.3805   19.8350 C   0  0  0  0  0  0
  -28.2002  -24.8827   20.1831 C   0  0  0  0  0  0
  -26.1990  -17.8717   23.5832 C   0  0  0  0  0  0
  -29.7545  -15.9609   20.3997 N   0  0  0  0  0  0
  -26.7711  -18.7301   22.5187 N   0  3  0  0  0  0
  -31.4676  -12.6016   19.1680 H   0  0  0  0  0  0
  -30.3793  -11.5203   19.9922 H   0  0  0  0  0  0
  -29.7952  -11.6750   17.5710 H   0  0  0  0  0  0
  -29.6393  -13.4173   17.6884 H   0  0  0  0  0  0
  -27.8709  -11.2835   18.9198 H   0  0  0  0  0  0
  -27.3835  -12.5251   17.7966 H   0  0  0  0  0  0
  -27.5956  -14.2560   19.4486 H   0  0  0  0  0  0
  -28.7195  -12.2215   21.4271 H   0  0  0  0  0  0
  -28.4125  -13.9033   21.7736 H   0  0  0  0  0  0
  -25.2743   -9.5780   22.4745 H   0  0  0  0  0  0
  -24.0152   -7.4599   22.7364 H   0  0  0  0  0  0
  -21.0900   -8.8596   19.8906 H   0  0  0  0  0  0
  -22.3557  -10.9647   19.6117 H   0  0  0  0  0  0
  -21.1917   -7.6172   23.9714 H   0  0  0  0  0  0
  -21.1532   -6.0560   25.9071 H   0  0  0  0  0  0
  -22.0586   -2.7647   23.2805 H   0  0  0  0  0  0
  -22.4077  -11.9652   22.4870 H   0  0  0  0  0  0
  -21.0936  -13.0819   22.2703 H   0  0  0  0  0  0
  -24.6535  -15.8027   20.5760 H   0  0  0  0  0  0
  -26.2058  -15.5580   19.9423 H   0  0  0  0  0  0
  -26.7211  -32.5363   23.1037 H   0  0  0  0  0  0
  -25.0058  -33.9676   25.0353 H   0  0  0  0  0  0
  -22.7225  -31.2944   21.3982 H   0  0  0  0  0  0
  -23.3785  -35.9573   23.3244 H   0  0  0  0  0  0
  -24.3597  -36.8949   22.2053 H   0  0  0  0  0  0
  -23.7243  -37.6430   23.6705 H   0  0  0  0  0  0
  -26.1268  -31.5189   20.6170 H   0  0  0  0  0  0
  -26.8482  -30.7974   22.0202 H   0  0  0  0  0  0
  -28.1386  -28.9168   21.1557 H   0  0  0  0  0  0
  -25.9392  -25.9167   18.9560 H   0  0  0  0  0  0
  -23.9655  -27.3041   19.0043 H   0  0  0  0  0  0
  -23.7616  -30.5797   19.4013 H   0  0  0  0  0  0
  -22.7593  -29.2382   19.8647 H   0  0  0  0  0  0
  -25.1338  -36.1867   25.0792 H   0  0  0  0  0  0
  -20.9955  -28.3259   24.1396 H   0  0  0  0  0  0
  -20.5670  -26.2285   23.3623 H   0  0  0  0  0  0
  -21.6680  -26.7410   22.1232 H   0  0  0  0  0  0
  -19.6965  -25.6284   21.1245 H   0  0  0  0  0  0
  -19.6776  -27.3205   20.6735 H   0  0  0  0  0  0
  -17.4241  -26.6685   21.3940 H   0  0  0  0  0  0
  -18.0312  -26.0046   22.8936 H   0  0  0  0  0  0
  -19.7933  -30.7283   24.2247 H   0  0  0  0  0  0
  -17.4996  -31.6251   24.5140 H   0  0  0  0  0  0
  -15.5346  -30.2959   23.7668 H   0  0  0  0  0  0
  -15.8661  -28.0794   22.7092 H   0  0  0  0  0  0
  -24.6002  -30.6921   25.7723 H   0  0  0  0  0  0
  -24.8813  -32.2844   26.4681 H   0  0  0  0  0  0
  -25.8049  -30.8991   27.0230 H   0  0  0  0  0  0
  -26.2920  -29.6663   24.1255 H   0  0  0  0  0  0
  -27.4012  -29.7216   25.4749 H   0  0  0  0  0  0
  -27.8829  -30.4152   23.9460 H   0  0  0  0  0  0
  -27.2708  -33.3597   26.1996 H   0  0  0  0  0  0
  -28.3927  -32.6761   25.0314 H   0  0  0  0  0  0
  -28.0692  -31.8400   26.5418 H   0  0  0  0  0  0
  -28.2572  -38.0123   24.7541 H   0  0  0  0  0  0
  -28.1155  -36.2657   24.6211 H   0  0  0  0  0  0
  -27.2326  -37.1335   25.8843 H   0  0  0  0  0  0
  -20.9395  -29.8675   21.6811 H   0  0  0  0  0  0
  -26.0168  -38.2807   24.1444 H   0  0  0  0  0  0
  -25.3304  -21.5744   18.3702 H   0  0  0  0  0  0
  -27.4675  -22.6794   18.4105 H   0  0  0  0  0  0
  -21.4157  -16.6019   17.9826 H   0  0  0  0  0  0
  -21.5543  -16.7040   16.2429 H   0  0  0  0  0  0
  -23.9646  -17.2038   16.3867 H   0  0  0  0  0  0
  -23.6209  -15.7287   17.2711 H   0  0  0  0  0  0
  -20.6186  -18.8125   17.2209 H   0  0  0  0  0  0
  -22.1059  -19.0957   16.3427 H   0  0  0  0  0  0
  -25.1371  -17.2189   18.5489 H   0  0  0  0  0  0
  -23.6279  -16.9546   19.4047 H   0  0  0  0  0  0
  -21.8091  -18.9033   19.3868 H   0  0  0  0  0  0
  -22.1610  -20.3447   18.4626 H   0  0  0  0  0  0
  -24.2888  -19.3992   17.7020 H   0  0  0  0  0  0
  -24.2518  -17.4031   24.4381 H   0  0  0  0  0  0
  -24.2332  -17.4915   22.6908 H   0  0  0  0  0  0
  -24.2951  -18.9689   23.6536 H   0  0  0  0  0  0
  -26.3121  -17.6182   25.7346 H   0  0  0  0  0  0
  -26.5677  -19.2831   25.2318 H   0  0  0  0  0  0
  -27.8444  -18.0792   25.0090 H   0  0  0  0  0  0
  -23.9731  -20.4831   20.0776 H   0  0  0  0  0  0
  -24.3065  -18.9421   20.7132 H   0  0  0  0  0  0
  -30.4513  -21.9949   19.3651 H   0  0  0  0  0  0
  -29.8441  -22.1667   20.9756 H   0  0  0  0  0  0
  -29.5950  -18.6834   21.6081 H   0  0  0  0  0  0
  -30.5172  -19.4648   20.3972 H   0  0  0  0  0  0
  -27.6000  -17.3593   21.1284 H   0  0  0  0  0  0
  -25.9148  -17.6214   20.9267 H   0  0  0  0  0  0
  -29.3477  -24.0032   18.5293 H   0  0  0  0  0  0
  -30.2905  -24.3509   19.9194 H   0  0  0  0  0  0
  -31.1298  -17.4167   19.8323 H   0  0  0  0  0  0
  -29.7841  -17.4015   18.7714 H   0  0  0  0  0  0
  -28.0715  -24.6804   21.2471 H   0  0  0  0  0  0
  -27.2698  -24.5546   19.7272 H   0  0  0  0  0  0
  -26.4953  -16.8372   23.3970 H   0  0  0  0  0  0
  -28.7867  -15.7551   20.5796 H   0  0  0  0  0  0
  -26.2256  -19.5712   22.4340 H   0  0  0  0  0  0
  -27.7005  -19.0249   22.7760 H   0  0  0  0  0  0
  1 25  1  0  0  0
  1 30  2  0  0  0
  1 93  1  0  0  0
  2  3  1  0  0  0
  2 25  1  0  0  0
  2 95  1  0  0  0
  2 96  1  0  0  0
  3  4  1  0  0  0
  3 97  1  0  0  0
  3 98  1  0  0  0
  4  5  1  0  0  0
  4 99  1  0  0  0
  4100  1  0  0  0
  5  6  1  0  0  0
  5 26  1  0  0  0
  5101  1  0  0  0
  6 25  1  0  0  0
  6102  1  0  0  0
  6103  1  0  0  0
  7  8  2  0  0  0
  7 26  1  0  0  0
  7 29  1  0  0  0
  8  9  1  0  0  0
  8 22  1  0  0  0
  9 10  1  0  0  0
  9 27  2  0  0  0
 10 11  2  0  0  0
 10 15  1  0  0  0
 11 12  1  0  0  0
 11104  1  0  0  0
 12 13  2  0  0  0
 12105  1  0  0  0
 13 14  1  0  0  0
 13 31  1  0  0  0
 14 15  2  0  0  0
 14106  1  0  0  0
 15107  1  0  0  0
 16 17  2  0  0  0
 16 21  1  0  0  0
 16 31  1  0  0  0
 17 18  1  0  0  0
 17108  1  0  0  0
 18 19  2  0  0  0
 18109  1  0  0  0
 19 20  1  0  0  0
 19 24  1  0  0  0
 20 21  2  0  0  0
 20110  1  0  0  0
 21 23  1  0  0  0
 22 28  1  0  0  0
 22 32  2  0  0  0
 26 27  1  0  0  0
 28111  1  0  0  0
 28112  1  0  0  0
 29113  1  0  0  0
 29114  1  0  0  0
 33 34  1  0  0  0
 33 66  1  0  0  0
 33 70  2  0  0  0
 34 36  1  0  0  0
 34 59  1  0  0  0
 34115  1  0  0  0
 35 44  2  0  0  0
 35 45  1  0  0  0
 35 68  1  0  0  0
 36 56  1  0  0  0
 36116  1  0  0  0
 37 39  1  0  0  0
 37 47  1  0  0  0
 37 66  1  0  0  0
 37117  1  0  0  0
 38 43  2  0  0  0
 38 46  1  0  0  0
 38 47  1  0  0  0
 39 64  1  0  0  0
 39 67  2  0  0  0
 40 52  1  0  0  0
 40 53  2  0  0  0
 40 58  1  0  0  0
 41118  1  0  0  0
 41119  1  0  0  0
 41120  1  0  0  0
 41 48  1  0  0  0
 42 43  1  0  0  0
 42 66  1  0  0  0
 42121  1  0  0  0
 42122  1  0  0  0
 43 44  1  0  0  0
 44123  1  0  0  0
 45 46  2  0  0  0
 45124  1  0  0  0
 46125  1  0  0  0
 47126  1  0  0  0
 47127  1  0  0  0
 48 56  1  0  0  0
 48 65  1  0  0  0
 48128  1  0  0  0
 49 50  1  0  0  0
 49 53  1  0  0  0
 49 64  1  0  0  0
 49129  1  0  0  0
 50 51  1  0  0  0
 50130  1  0  0  0
 50131  1  0  0  0
 51 52  1  0  0  0
 51132  1  0  0  0
 51133  1  0  0  0
 52134  1  0  0  0
 52135  1  0  0  0
 53 54  1  0  0  0
 54 55  2  0  0  0
 54136  1  0  0  0
 55 57  1  0  0  0
 55137  1  0  0  0
 56 69  2  0  0  0
 57 58  2  0  0  0
 57138  1  0  0  0
 58139  1  0  0  0
 59 60  1  0  0  0
 59 61  1  0  0  0
 59 62  1  0  0  0
 60140  1  0  0  0
 60141  1  0  0  0
 60142  1  0  0  0
 61143  1  0  0  0
 61144  1  0  0  0
 61145  1  0  0  0
 62146  1  0  0  0
 62147  1  0  0  0
 62148  1  0  0  0
 63 65  1  0  0  0
 63149  1  0  0  0
 63150  1  0  0  0
 63151  1  0  0  0
 64152  1  0  0  0
 65153  1  0  0  0
 68 91  1  0  0  0
 71 72  2  0  0  0
 71 73  1  0  0  0
 71154  1  0  0  0
 72 74  1  0  0  0
 72155  1  0  0  0
 73 76  2  0  0  0
 73 85  1  0  0  0
 74 75  2  0  0  0
 74 86  1  0  0  0
 75 76  1  0  0  0
 75 87  1  0  0  0
 76 88  1  0  0  0
 77 78  1  0  0  0
 77 79  1  0  0  0
 77156  1  0  0  0
 77157  1  0  0  0
 78 80  1  0  0  0
 78158  1  0  0  0
 78159  1  0  0  0
 79 81  1  0  0  0
 79160  1  0  0  0
 79161  1  0  0  0
 80 82  1  0  0  0
 80162  1  0  0  0
 80163  1  0  0  0
 81 82  1  0  0  0
 81164  1  0  0  0
 81165  1  0  0  0
 82 85  1  0  0  0
 82166  1  0  0  0
 83167  1  0  0  0
 83168  1  0  0  0
 83169  1  0  0  0
 83 92  1  0  0  0
 84 92  1  0  0  0
 84170  1  0  0  0
 84171  1  0  0  0
 84172  1  0  0  0
 85173  1  0  0  0
 85174  1  0  0  0
 86 89  1  0  0  0
 86175  1  0  0  0
 86176  1  0  0  0
 87 90  1  0  0  0
 87177  1  0  0  0
 87178  1  0  0  0
 88 94  1  0  0  0
 88179  1  0  0  0
 88180  1  0  0  0
 89 91  1  0  0  0
 89181  1  0  0  0
 89182  1  0  0  0
 90 93  1  0  0  0
 90183  1  0  0  0
 90184  1  0  0  0
 91185  1  0  0  0
 91186  1  0  0  0
 92 94  1  0  0  0
 92187  1  0  0  0
 93188  1  0  0  0
 94189  1  0  0  0
 94190  1  0  0  0
M  CHG  1  94   1
M  ISO  4   1 100  68 101  91 101  93 100
M  END
> <chiral flag>
0

> <version>
0

> <s_m_source_file>
/data/baiqing/PycharmProjects/Reinvent-master-3.2/result/LINK_invent/BTK/process_docking_weight1_custom_sum_contain_oxygen_bond_distance_aromatic_linkinvent_7_9_3/rearranged_h_0099.sdf

> <i_m_source_file_index>
1

> <r_mmod_Potential_Energy-OPLS-2005>
224.827514648438

> <r_mmod_Stretch_Energy-OPLS-2005>
167.128219604492

> <r_mmod_Bend_Energy-OPLS-2005>
246.76383972168

> <r_mmod_Torsional_Energy-OPLS-2005>
311.079956054688

> <r_mmod_Improper_Torsional_Energy-OPLS-2005>
11.2633152008057

> <r_mmod_Van_der_Waal_Energy-OPLS-2005>
128.484161376953

> <r_mmod_Electrostatic_Energy-OPLS-2005>
-300.893585205078

> <r_mmod_Solvation_Energy-OPLS-2005>
-445.9306640625

> <b_mmod_Minimization_Converged-OPLS-2005>
0

> <r_mmod_RMS_Derivative-OPLS-2005>
7.28814315795898

$$$$
1
                    3D
 Structure written by MMmdl.
172180  0  0  1  0            999 V2000
  -30.6403  -14.8120   20.2739 C   0  0  0  0  0  0
  -30.4502  -12.4655   19.4318 C   0  0  0  0  0  0
  -29.5067  -12.3724   18.2081 C   0  0  0  0  0  0
  -28.0267  -12.2779   18.6485 C   0  0  0  0  0  0
  -27.6415  -13.2202   19.8260 C   0  0  2  0  0  0
  -28.7255  -13.2453   20.9266 C   0  0  0  0  0  0
  -25.2649  -13.8125   20.5835 C   0  0  0  0  0  0
  -24.1906  -13.0390   20.9320 C   0  0  0  0  0  0
  -24.6488  -11.6898   20.8823 C   0  0  0  0  0  0
  -23.9130  -10.4303   21.0425 C   0  0  0  0  0  0
  -24.3696   -9.4219   21.9180 C   0  0  0  0  0  0
  -23.6405   -8.2228   22.0755 C   0  0  0  0  0  0
  -22.4381   -8.0292   21.3550 C   0  0  0  0  0  0
  -22.0005   -9.0254   20.4653 C   0  0  0  0  0  0
  -22.7326  -10.2151   20.3034 C   0  0  0  0  0  0
  -21.6862   -6.0777   22.5274 C   0  0  0  0  0  0
  -21.3986   -6.5639   23.8222 C   0  0  0  0  0  0
  -21.3693   -5.6787   24.9181 C   0  0  0  0  0  0
  -21.6046   -4.3042   24.7233 C   0  0  0  0  0  0
  -21.8787   -3.8162   23.4332 C   0  0  0  0  0  0
  -21.9218   -4.6990   22.3419 C   0  0  0  0  0  0
  -22.7916  -13.5241   21.1996 C   0  0  0  0  0  0
  -22.1710   -4.2172   21.1000 F   0  0  0  0  0  0
  -21.5696   -3.4538   25.7754 F   0  0  0  0  0  0
  -29.9915  -13.5924   20.2670 N   0  0  0  0  0  0
  -26.3059  -12.9305   20.3374 N   0  0  0  0  0  0
  -25.9420  -11.6466   20.5811 N   0  0  0  0  0  0
  -22.0488  -12.8183   22.0481 N   0  0  0  0  0  0
  -25.4284  -15.1842   20.4291 N   0  0  0  0  0  0
  -31.8703  -14.8447   20.2051 O   0  0  0  0  0  0
  -21.6679   -6.8932   21.4256 O   0  0  0  0  0  0
  -22.3620  -14.5570   20.6906 O   0  0  0  0  0  0
  -24.6290  -31.8655   23.2107 C   0  0  0  0  0  0
  -25.9210  -32.4751   23.8364 C   0  0  1  0  0  0
  -27.1673  -27.2928   20.0643 C   0  0  0  0  0  0
  -25.6033  -33.8542   24.2276 N   0  0  0  0  0  0
  -23.4095  -30.5081   21.5547 C   0  0  2  0  0  0
  -24.8405  -28.9740   20.1002 C   0  0  0  0  0  0
  -22.7437  -29.4698   22.4906 C   0  0  0  0  0  0
  -18.0311  -28.1330   22.8526 C   0  0  0  0  0  0
  -24.1529  -36.7252   23.2627 C   0  0  0  0  0  0
  -25.9634  -30.7817   21.3943 C   0  0  0  0  0  0
  -26.0223  -29.4172   20.7082 C   0  0  0  0  0  0
  -27.1891  -28.5859   20.6891 C   0  0  0  0  0  0
  -25.9575  -26.9225   19.4308 C   0  0  0  0  0  0
  -24.8104  -27.7287   19.4618 C   0  0  0  0  0  0
  -23.6178  -29.8702   20.1576 C   0  0  0  0  0  0
  -25.4153  -36.3023   24.0309 C   0  0  1  0  0  0
  -20.5912  -28.3640   23.1296 C   0  0  2  0  0  0
  -20.6798  -26.9366   22.5401 C   0  0  0  0  0  0
  -19.5742  -26.6359   21.5221 C   0  0  0  0  0  0
  -18.1944  -26.7881   22.1667 C   0  0  0  0  0  0
  -19.1561  -28.8815   23.2914 C   0  0  0  0  0  0
  -18.9473  -30.1434   23.8876 C   0  0  0  0  0  0
  -17.6460  -30.6545   24.0566 C   0  0  0  0  0  0
  -25.9097  -34.9409   23.5069 C   0  0  0  0  0  0
  -16.5359  -29.9023   23.6317 C   0  0  0  0  0  0
  -16.7304  -28.6447   23.0357 C   0  0  0  0  0  0
  -26.4543  -31.6561   25.0758 C   0  0  0  0  0  0
  -25.3776  -31.3738   26.1480 C   0  0  0  0  0  0
  -27.0415  -30.2948   24.6355 C   0  0  0  0  0  0
  -27.6099  -32.4320   25.7557 C   0  0  0  0  0  0
  -27.5577  -37.1805   24.8460 C   0  0  0  0  0  0
  -21.4178  -29.3026   22.3676 N   0  0  0  0  0  0
  -26.4295  -37.3739   23.9398 N   0  0  0  0  0  0
  -24.6842  -31.0703   22.1030 N   0  0  0  0  0  0
  -23.4251  -28.8230   23.2930 O   0  0  0  0  0  0
  -28.2430  -26.3771   20.0696 O   0  0  0  0  0  0
  -26.5643  -34.8878   22.4622 O   0  0  0  0  0  0
  -23.5484  -32.1464   23.7491 O   0  0  0  0  0  0
  -31.0110  -22.0901   21.1656 C   0  0  0  0  0  0
  -32.2514  -21.4310   21.1526 C   0  0  0  0  0  0
  -30.1231  -21.4323   20.3651 C   0  0  0  0  0  0
  -31.9885  -20.1732   20.6872 C   0  0  0  0  0  0
  -32.9808  -19.0570   20.5131 C   0  0  0  0  0  0
  -33.7848  -22.1918   23.0504 C   0  0  0  0  0  0
  -33.6359  -23.5170   20.9096 C   0  0  0  0  0  0
  -28.6981  -22.0077   18.2611 C   0  0  0  0  0  0
  -29.3522  -16.1446   18.6809 C   0  0  0  0  0  0
  -29.0287  -23.8327   20.0674 C   0  0  0  0  0  0
  -30.0471  -18.7792   19.7427 C   0  0  0  0  0  0
  -30.2107  -17.3893   20.6092 C   0  0  0  0  0  0
  -27.9633  -24.9506   19.6972 C   0  0  0  0  0  0
  -33.5660  -22.1126   21.5344 C   0  0  0  0  0  0
  -28.8947  -22.2241   19.7838 C   0  0  2  0  0  0
  -30.6331  -20.0762   20.2924 N   0  0  0  0  0  0
  -29.9189  -15.9927   20.0285 N   0  0  0  0  0  0
  -31.4913  -12.5650   19.1205 H   0  0  0  0  0  0
  -30.4270  -11.5465   20.0170 H   0  0  0  0  0  0
  -29.7687  -11.4824   17.6296 H   0  0  0  0  0  0
  -29.6482  -13.2067   17.5239 H   0  0  0  0  0  0
  -27.8729  -11.2421   18.9462 H   0  0  0  0  0  0
  -27.3644  -12.4369   17.7989 H   0  0  0  0  0  0
  -27.5814  -14.2167   19.4042 H   0  0  0  0  0  0
  -28.8175  -12.2772   21.4259 H   0  0  0  0  0  0
  -28.5011  -13.9897   21.6916 H   0  0  0  0  0  0
  -25.2826   -9.5701   22.4785 H   0  0  0  0  0  0
  -24.0131   -7.4595   22.7432 H   0  0  0  0  0  0
  -21.0949   -8.8774   19.8936 H   0  0  0  0  0  0
  -22.3810  -10.9712   19.6160 H   0  0  0  0  0  0
  -21.1882   -7.6114   23.9724 H   0  0  0  0  0  0
  -21.1610   -6.0530   25.9101 H   0  0  0  0  0  0
  -22.0558   -2.7627   23.2829 H   0  0  0  0  0  0
  -22.4146  -11.9924   22.4946 H   0  0  0  0  0  0
  -21.1011  -13.1031   22.2484 H   0  0  0  0  0  0
  -24.6363  -15.8063   20.5361 H   0  0  0  0  0  0
  -26.2682  -15.6555   20.1165 H   0  0  0  0  0  0
  -26.7284  -32.5386   23.1093 H   0  0  0  0  0  0
  -25.0166  -33.9645   25.0413 H   0  0  0  0  0  0
  -22.7011  -31.3329   21.4356 H   0  0  0  0  0  0
  -23.3755  -35.9607   23.3269 H   0  0  0  0  0  0
  -24.3601  -36.8901   22.2035 H   0  0  0  0  0  0
  -23.7353  -37.6475   23.6679 H   0  0  0  0  0  0
  -26.1407  -31.5719   20.6619 H   0  0  0  0  0  0
  -26.8216  -30.7847   22.0532 H   0  0  0  0  0  0
  -28.0870  -28.9178   21.1930 H   0  0  0  0  0  0
  -25.8513  -25.9884   18.9041 H   0  0  0  0  0  0
  -23.9018  -27.3897   18.9827 H   0  0  0  0  0  0
  -23.7338  -30.6685   19.4211 H   0  0  0  0  0  0
  -22.7282  -29.3226   19.8454 H   0  0  0  0  0  0
  -25.1353  -36.1787   25.0798 H   0  0  0  0  0  0
  -21.0062  -28.3193   24.1396 H   0  0  0  0  0  0
  -20.5713  -26.2220   23.3584 H   0  0  0  0  0  0
  -21.6665  -26.7388   22.1181 H   0  0  0  0  0  0
  -19.6870  -25.6282   21.1210 H   0  0  0  0  0  0
  -19.6645  -27.3202   20.6782 H   0  0  0  0  0  0
  -17.4210  -26.6658   21.4081 H   0  0  0  0  0  0
  -18.0343  -25.9992   22.9035 H   0  0  0  0  0  0
  -19.7947  -30.7309   24.2182 H   0  0  0  0  0  0
  -17.4994  -31.6211   24.5183 H   0  0  0  0  0  0
  -15.5356  -30.2920   23.7613 H   0  0  0  0  0  0
  -15.8723  -28.0764   22.7040 H   0  0  0  0  0  0
  -24.5871  -30.7182   25.7782 H   0  0  0  0  0  0
  -24.9049  -32.2919   26.4985 H   0  0  0  0  0  0
  -25.8047  -30.8807   27.0217 H   0  0  0  0  0  0
  -26.3035  -29.6671   24.1329 H   0  0  0  0  0  0
  -27.3945  -29.7253   25.4966 H   0  0  0  0  0  0
  -27.8979  -30.4113   23.9716 H   0  0  0  0  0  0
  -27.2665  -33.3584   26.2169 H   0  0  0  0  0  0
  -28.3895  -32.6958   25.0404 H   0  0  0  0  0  0
  -28.0779  -31.8438   26.5452 H   0  0  0  0  0  0
  -28.2594  -38.0103   24.7498 H   0  0  0  0  0  0
  -28.1078  -36.2637   24.6295 H   0  0  0  0  0  0
  -27.2272  -37.1465   25.8854 H   0  0  0  0  0  0
  -20.9265  -29.8749   21.6933 H   0  0  0  0  0  0
  -26.0125  -38.2794   24.1348 H   0  0  0  0  0  0
  -30.8891  -23.0857   21.5426 H   0  0  0  0  0  0
  -32.9967  -18.3982   21.3789 H   0  0  0  0  0  0
  -33.9972  -19.4378   20.4355 H   0  0  0  0  0  0
  -32.7746  -18.4617   19.6265 H   0  0  0  0  0  0
  -33.9707  -21.2110   23.4854 H   0  0  0  0  0  0
  -32.9168  -22.6154   23.5453 H   0  0  0  0  0  0
  -34.6341  -22.8304   23.3159 H   0  0  0  0  0  0
  -33.4386  -23.4825   19.8353 H   0  0  0  0  0  0
  -34.6034  -23.9934   21.0575 H   0  0  0  0  0  0
  -32.8983  -24.1709   21.3669 H   0  0  0  0  0  0
  -28.5113  -20.9676   18.0014 H   0  0  0  0  0  0
  -29.5543  -22.3489   17.6777 H   0  0  0  0  0  0
  -27.8404  -22.5672   17.8798 H   0  0  0  0  0  0
  -28.4838  -16.8049   18.6734 H   0  0  0  0  0  0
  -29.0633  -15.2076   18.2196 H   0  0  0  0  0  0
  -30.0783  -16.5763   17.9939 H   0  0  0  0  0  0
  -29.1020  -23.9547   21.1418 H   0  0  0  0  0  0
  -29.9721  -24.1750   19.6318 H   0  0  0  0  0  0
  -29.0048  -18.9659   19.4957 H   0  0  0  0  0  0
  -30.5196  -18.6509   18.7744 H   0  0  0  0  0  0
  -29.5333  -17.4820   21.4541 H   0  0  0  0  0  0
  -31.1979  -17.3297   21.0562 H   0  0  0  0  0  0
  -27.0350  -24.6371   20.1773 H   0  0  0  0  0  0
  -27.7923  -24.9085   18.6214 H   0  0  0  0  0  0
  -34.3849  -21.5361   21.1137 H   0  0  0  0  0  0
  -28.0066  -21.8417   20.2931 H   0  0  0  0  0  0
  1 25  1  0  0  0
  1 30  2  0  0  0
  1 87  1  0  0  0
  2  3  1  0  0  0
  2 25  1  0  0  0
  2 88  1  0  0  0
  2 89  1  0  0  0
  3  4  1  0  0  0
  3 90  1  0  0  0
  3 91  1  0  0  0
  4  5  1  0  0  0
  4 92  1  0  0  0
  4 93  1  0  0  0
  5  6  1  0  0  0
  5 26  1  0  0  0
  5 94  1  0  0  0
  6 25  1  0  0  0
  6 95  1  0  0  0
  6 96  1  0  0  0
  7  8  2  0  0  0
  7 26  1  0  0  0
  7 29  1  0  0  0
  8  9  1  0  0  0
  8 22  1  0  0  0
  9 10  1  0  0  0
  9 27  2  0  0  0
 10 11  2  0  0  0
 10 15  1  0  0  0
 11 12  1  0  0  0
 11 97  1  0  0  0
 12 13  2  0  0  0
 12 98  1  0  0  0
 13 14  1  0  0  0
 13 31  1  0  0  0
 14 15  2  0  0  0
 14 99  1  0  0  0
 15100  1  0  0  0
 16 17  2  0  0  0
 16 21  1  0  0  0
 16 31  1  0  0  0
 17 18  1  0  0  0
 17101  1  0  0  0
 18 19  2  0  0  0
 18102  1  0  0  0
 19 20  1  0  0  0
 19 24  1  0  0  0
 20 21  2  0  0  0
 20103  1  0  0  0
 21 23  1  0  0  0
 22 28  1  0  0  0
 22 32  2  0  0  0
 26 27  1  0  0  0
 28104  1  0  0  0
 28105  1  0  0  0
 29106  1  0  0  0
 29107  1  0  0  0
 33 34  1  0  0  0
 33 66  1  0  0  0
 33 70  2  0  0  0
 34 36  1  0  0  0
 34 59  1  0  0  0
 34108  1  0  0  0
 35 44  2  0  0  0
 35 45  1  0  0  0
 35 68  1  0  0  0
 36 56  1  0  0  0
 36109  1  0  0  0
 37 39  1  0  0  0
 37 47  1  0  0  0
 37 66  1  0  0  0
 37110  1  0  0  0
 38 43  2  0  0  0
 38 46  1  0  0  0
 38 47  1  0  0  0
 39 64  1  0  0  0
 39 67  2  0  0  0
 40 52  1  0  0  0
 40 53  2  0  0  0
 40 58  1  0  0  0
 41111  1  0  0  0
 41112  1  0  0  0
 41113  1  0  0  0
 41 48  1  0  0  0
 42 43  1  0  0  0
 42 66  1  0  0  0
 42114  1  0  0  0
 42115  1  0  0  0
 43 44  1  0  0  0
 44116  1  0  0  0
 45 46  2  0  0  0
 45117  1  0  0  0
 46118  1  0  0  0
 47119  1  0  0  0
 47120  1  0  0  0
 48 56  1  0  0  0
 48 65  1  0  0  0
 48121  1  0  0  0
 49 50  1  0  0  0
 49 53  1  0  0  0
 49 64  1  0  0  0
 49122  1  0  0  0
 50 51  1  0  0  0
 50123  1  0  0  0
 50124  1  0  0  0
 51 52  1  0  0  0
 51125  1  0  0  0
 51126  1  0  0  0
 52127  1  0  0  0
 52128  1  0  0  0
 53 54  1  0  0  0
 54 55  2  0  0  0
 54129  1  0  0  0
 55 57  1  0  0  0
 55130  1  0  0  0
 56 69  2  0  0  0
 57 58  2  0  0  0
 57131  1  0  0  0
 58132  1  0  0  0
 59 60  1  0  0  0
 59 61  1  0  0  0
 59 62  1  0  0  0
 60133  1  0  0  0
 60134  1  0  0  0
 60135  1  0  0  0
 61136  1  0  0  0
 61137  1  0  0  0
 61138  1  0  0  0
 62139  1  0  0  0
 62140  1  0  0  0
 62141  1  0  0  0
 63 65  1  0  0  0
 63142  1  0  0  0
 63143  1  0  0  0
 63144  1  0  0  0
 64145  1  0  0  0
 65146  1  0  0  0
 68 83  1  0  0  0
 71 72  1  0  0  0
 71 73  2  0  0  0
 71147  1  0  0  0
 72 74  2  0  0  0
 72 84  1  0  0  0
 73 85  1  0  0  0
 73 86  1  0  0  0
 74 75  1  0  0  0
 74 86  1  0  0  0
 75148  1  0  0  0
 75149  1  0  0  0
 75150  1  0  0  0
 76151  1  0  0  0
 76152  1  0  0  0
 76153  1  0  0  0
 76 84  1  0  0  0
 77 84  1  0  0  0
 77154  1  0  0  0
 77155  1  0  0  0
 77156  1  0  0  0
 78157  1  0  0  0
 78158  1  0  0  0
 78159  1  0  0  0
 78 85  1  0  0  0
 79 87  1  0  0  0
 79160  1  0  0  0
 79161  1  0  0  0
 79162  1  0  0  0
 80 83  1  0  0  0
 80 85  1  0  0  0
 80163  1  0  0  0
 80164  1  0  0  0
 81 82  1  0  0  0
 81 86  1  0  0  0
 81165  1  0  0  0
 81166  1  0  0  0
 82 87  1  0  0  0
 82167  1  0  0  0
 82168  1  0  0  0
 83169  1  0  0  0
 83170  1  0  0  0
 84171  1  0  0  0
 85172  1  0  0  0
M  ISO  4   1 100  68 101  83 101  87 100
M  END
> <chiral flag>
0

> <version>
0

> <s_m_source_file>
/data/baiqing/PycharmProjects/Reinvent-master-3.2/result/LINK_invent/BTK/process_docking_weight1_custom_sum_contain_oxygen_bond_distance_aromatic_linkinvent_7_9_3/rearranged_h_0099.sdf

> <i_m_source_file_index>
2

> <r_mmod_Potential_Energy-OPLS-2005>
417.688354492188

> <r_mmod_Stretch_Energy-OPLS-2005>
140.510879516602

> <r_mmod_Bend_Energy-OPLS-2005>
219.646957397461

> <r_mmod_Torsional_Energy-OPLS-2005>
346.985382080078

> <r_mmod_Improper_Torsional_Energy-OPLS-2005>
12.4269037246704

> <r_mmod_Van_der_Waal_Energy-OPLS-2005>
139.752777099609

> <r_mmod_Electrostatic_Energy-OPLS-2005>
-365.712341308594

> <r_mmod_Solvation_Energy-OPLS-2005>
-194.883453369141

> <b_mmod_Minimization_Converged-OPLS-2005>
0

> <r_mmod_RMS_Derivative-OPLS-2005>
10.4684257507324

$$$$
2
                    3D
 Structure written by MMmdl.
162170  0  0  1  0            999 V2000
  -30.5700  -14.8674   20.4707 C   0  0  0  0  0  0
  -30.4439  -12.5467   19.4829 C   0  0  0  0  0  0
  -29.5157  -12.5252   18.2461 C   0  0  0  0  0  0
  -28.0457  -12.3260   18.6627 C   0  0  0  0  0  0
  -27.6348  -13.2424   19.8461 C   0  0  2  0  0  0
  -28.6810  -13.2260   20.9830 C   0  0  0  0  0  0
  -25.2471  -13.8192   20.5716 C   0  0  0  0  0  0
  -24.1798  -13.0436   20.9252 C   0  0  0  0  0  0
  -24.6411  -11.6921   20.8783 C   0  0  0  0  0  0
  -23.9097  -10.4289   21.0434 C   0  0  0  0  0  0
  -24.3658   -9.4207   21.9202 C   0  0  0  0  0  0
  -23.6327   -8.2246   22.0772 C   0  0  0  0  0  0
  -22.4301   -8.0287   21.3568 C   0  0  0  0  0  0
  -21.9922   -9.0282   20.4709 C   0  0  0  0  0  0
  -22.7249  -10.2154   20.3111 C   0  0  0  0  0  0
  -21.6868   -6.0718   22.5279 C   0  0  0  0  0  0
  -21.4007   -6.5633   23.8205 C   0  0  0  0  0  0
  -21.3650   -5.6793   24.9185 C   0  0  0  0  0  0
  -21.6046   -4.3061   24.7241 C   0  0  0  0  0  0
  -21.8812   -3.8127   23.4369 C   0  0  0  0  0  0
  -21.9204   -4.6945   22.3419 C   0  0  0  0  0  0
  -22.7808  -13.5203   21.1877 C   0  0  0  0  0  0
  -22.1657   -4.2127   21.1004 F   0  0  0  0  0  0
  -21.5656   -3.4545   25.7751 F   0  0  0  0  0  0
  -29.9661  -13.6218   20.3912 N   0  0  0  0  0  0
  -26.2915  -12.9428   20.3288 N   0  0  0  0  0  0
  -25.9351  -11.6558   20.5823 N   0  0  0  0  0  0
  -22.0481  -12.8168   22.0434 N   0  0  0  0  0  0
  -25.4086  -15.1924   20.4080 N   0  0  0  0  0  0
  -31.7685  -14.9624   20.1901 O   0  0  0  0  0  0
  -21.6680   -6.8872   21.4238 O   0  0  0  0  0  0
  -22.3482  -14.5502   20.6718 O   0  0  0  0  0  0
  -24.6389  -31.8472   23.1929 C   0  0  0  0  0  0
  -25.9181  -32.4707   23.8300 C   0  0  1  0  0  0
  -27.2170  -27.1783   20.1670 C   0  0  0  0  0  0
  -25.5934  -33.8511   24.2214 N   0  0  0  0  0  0
  -23.4422  -30.4667   21.5375 C   0  0  2  0  0  0
  -24.8950  -28.9012   20.1120 C   0  0  0  0  0  0
  -22.7558  -29.4550   22.4891 C   0  0  0  0  0  0
  -18.0293  -28.1386   22.8480 C   0  0  0  0  0  0
  -24.1503  -36.7242   23.2640 C   0  0  0  0  0  0
  -25.9944  -30.7375   21.3844 C   0  0  0  0  0  0
  -26.0703  -29.3511   20.7300 C   0  0  0  0  0  0
  -27.2383  -28.5051   20.7418 C   0  0  0  0  0  0
  -26.0233  -26.8216   19.5046 C   0  0  0  0  0  0
  -24.8812  -27.6487   19.4815 C   0  0  0  0  0  0
  -23.6675  -29.7953   20.1570 C   0  0  0  0  0  0
  -25.4127  -36.3025   24.0320 C   0  0  1  0  0  0
  -20.5904  -28.3700   23.1246 C   0  0  2  0  0  0
  -20.6775  -26.9405   22.5409 C   0  0  0  0  0  0
  -19.5755  -26.6372   21.5208 C   0  0  0  0  0  0
  -18.1933  -26.7924   22.1619 C   0  0  0  0  0  0
  -19.1550  -28.8858   23.2859 C   0  0  0  0  0  0
  -18.9469  -30.1452   23.8886 C   0  0  0  0  0  0
  -17.6466  -30.6582   24.0545 C   0  0  0  0  0  0
  -25.9076  -34.9402   23.5070 C   0  0  0  0  0  0
  -16.5353  -29.9075   23.6329 C   0  0  0  0  0  0
  -16.7276  -28.6491   23.0356 C   0  0  0  0  0  0
  -26.4523  -31.6555   25.0713 C   0  0  0  0  0  0
  -25.3733  -31.3729   26.1428 C   0  0  0  0  0  0
  -27.0374  -30.2964   24.6230 C   0  0  0  0  0  0
  -27.6070  -32.4305   25.7495 C   0  0  0  0  0  0
  -27.5580  -37.1778   24.8463 C   0  0  0  0  0  0
  -21.4253  -29.3021   22.3623 N   0  0  0  0  0  0
  -26.4289  -37.3731   23.9406 N   0  0  0  0  0  0
  -24.7113  -31.0370   22.0945 N   0  0  0  0  0  0
  -23.4220  -28.8091   23.3025 O   0  0  0  0  0  0
  -28.2465  -26.1842   20.2126 O   0  0  0  0  0  0
  -26.5666  -34.8888   22.4657 O   0  0  0  0  0  0
  -23.5514  -32.1316   23.7174 O   0  0  0  0  0  0
  -29.4578  -22.8064   19.8624 C   0  0  0  0  0  0
  -27.7879  -22.2761   21.4314 C   0  0  0  0  0  0
  -28.4171  -23.3301   20.6911 C   0  0  0  0  0  0
  -29.7793  -21.3860   19.7534 C   0  0  0  0  0  0
  -28.0910  -20.8606   21.3519 C   0  0  0  0  0  0
  -29.0961  -20.3288   20.4717 C   0  0  0  0  0  0
  -30.8851  -21.0022   18.7885 C   0  0  0  0  0  0
  -25.7750  -19.9338   21.8386 C   0  0  0  0  0  0
  -27.4501  -20.2090   23.7240 C   0  0  0  0  0  0
  -29.2394  -18.7220   20.1203 C   0  0  0  0  0  0
  -27.9197  -24.8777   20.9438 C   0  0  0  0  0  0
  -30.0594  -17.5295   20.9281 C   0  0  0  0  0  0
  -27.2617  -19.9155   22.2293 C   0  0  0  0  0  0
  -29.7741  -16.0091   20.6819 N   0  0  0  0  0  0
  -31.4775  -12.7021   19.1693 H   0  0  0  0  0  0
  -30.4300  -11.5851   19.9978 H   0  0  0  0  0  0
  -29.8231  -11.7349   17.5588 H   0  0  0  0  0  0
  -29.6130  -13.4636   17.6952 H   0  0  0  0  0  0
  -27.9204  -11.2802   18.9453 H   0  0  0  0  0  0
  -27.3883  -12.4890   17.8084 H   0  0  0  0  0  0
  -27.6092  -14.2540   19.4425 H   0  0  0  0  0  0
  -28.7516  -12.2378   21.4400 H   0  0  0  0  0  0
  -28.3957  -13.9123   21.7828 H   0  0  0  0  0  0
  -25.2845   -9.5688   22.4713 H   0  0  0  0  0  0
  -24.0068   -7.4613   22.7449 H   0  0  0  0  0  0
  -21.0845   -8.8845   19.9039 H   0  0  0  0  0  0
  -22.3727  -10.9689   19.6215 H   0  0  0  0  0  0
  -21.1971   -7.6134   23.9678 H   0  0  0  0  0  0
  -21.1492   -6.0563   25.9088 H   0  0  0  0  0  0
  -22.0607   -2.7592   23.2906 H   0  0  0  0  0  0
  -22.4139  -11.9854   22.4831 H   0  0  0  0  0  0
  -21.1056  -13.1102   22.2576 H   0  0  0  0  0  0
  -24.6315  -15.8361   20.5040 H   0  0  0  0  0  0
  -26.2362  -15.6299   20.0246 H   0  0  0  0  0  0
  -26.7245  -32.5336   23.1036 H   0  0  0  0  0  0
  -25.0027  -33.9630   25.0321 H   0  0  0  0  0  0
  -22.7430  -31.2919   21.3852 H   0  0  0  0  0  0
  -23.3761  -35.9579   23.3289 H   0  0  0  0  0  0
  -24.3587  -36.8880   22.2057 H   0  0  0  0  0  0
  -23.7270  -37.6439   23.6683 H   0  0  0  0  0  0
  -26.1440  -31.4947   20.6128 H   0  0  0  0  0  0
  -26.8676  -30.7880   22.0236 H   0  0  0  0  0  0
  -28.1331  -28.8392   21.2472 H   0  0  0  0  0  0
  -25.9565  -25.8531   19.0280 H   0  0  0  0  0  0
  -23.9835  -27.2986   18.9903 H   0  0  0  0  0  0
  -23.7966  -30.5683   19.3996 H   0  0  0  0  0  0
  -22.7865  -29.2281   19.8519 H   0  0  0  0  0  0
  -25.1323  -36.1850   25.0811 H   0  0  0  0  0  0
  -20.9984  -28.3277   24.1367 H   0  0  0  0  0  0
  -20.5638  -26.2310   23.3622 H   0  0  0  0  0  0
  -21.6650  -26.7395   22.1220 H   0  0  0  0  0  0
  -19.6919  -25.6283   21.1234 H   0  0  0  0  0  0
  -19.6697  -27.3189   20.6745 H   0  0  0  0  0  0
  -17.4196  -26.6649   21.4021 H   0  0  0  0  0  0
  -18.0341  -26.0081   22.9036 H   0  0  0  0  0  0
  -19.7942  -30.7263   24.2268 H   0  0  0  0  0  0
  -17.5015  -31.6267   24.5140 H   0  0  0  0  0  0
  -15.5353  -30.2965   23.7664 H   0  0  0  0  0  0
  -15.8674  -28.0790   22.7093 H   0  0  0  0  0  0
  -24.5931  -30.7050   25.7753 H   0  0  0  0  0  0
  -24.8898  -32.2901   26.4808 H   0  0  0  0  0  0
  -25.8034  -30.8949   27.0240 H   0  0  0  0  0  0
  -26.2971  -29.6703   24.1230 H   0  0  0  0  0  0
  -27.4017  -29.7239   25.4766 H   0  0  0  0  0  0
  -27.8870  -30.4218   23.9514 H   0  0  0  0  0  0
  -27.2682  -33.3621   26.2045 H   0  0  0  0  0  0
  -28.3901  -32.6838   25.0333 H   0  0  0  0  0  0
  -28.0719  -31.8448   26.5438 H   0  0  0  0  0  0
  -28.2586  -38.0087   24.7502 H   0  0  0  0  0  0
  -28.1092  -36.2608   24.6303 H   0  0  0  0  0  0
  -27.2293  -37.1440   25.8868 H   0  0  0  0  0  0
  -20.9463  -29.8721   21.6786 H   0  0  0  0  0  0
  -26.0152  -38.2796   24.1413 H   0  0  0  0  0  0
  -30.0268  -23.5181   19.2788 H   0  0  0  0  0  0
  -26.9974  -22.5725   22.1059 H   0  0  0  0  0  0
  -31.4816  -21.8691   18.5011 H   0  0  0  0  0  0
  -30.4688  -20.5671   17.8791 H   0  0  0  0  0  0
  -31.5586  -20.2777   19.2488 H   0  0  0  0  0  0
  -25.6390  -19.6495   20.7946 H   0  0  0  0  0  0
  -25.3282  -20.9190   21.9773 H   0  0  0  0  0  0
  -25.2040  -19.2317   22.4441 H   0  0  0  0  0  0
  -28.4992  -20.1274   24.0108 H   0  0  0  0  0  0
  -26.8889  -19.4958   24.3295 H   0  0  0  0  0  0
  -27.1069  -21.2082   23.9940 H   0  0  0  0  0  0
  -29.6116  -18.6733   19.0984 H   0  0  0  0  0  0
  -28.2142  -18.3679   20.0180 H   0  0  0  0  0  0
  -28.2280  -25.0833   21.9699 H   0  0  0  0  0  0
  -26.8340  -24.8043   21.0219 H   0  0  0  0  0  0
  -29.8508  -17.6753   21.9893 H   0  0  0  0  0  0
  -31.1309  -17.7055   20.8282 H   0  0  0  0  0  0
  -27.6070  -18.8923   22.0950 H   0  0  0  0  0  0
  -28.8044  -15.7628   20.8098 H   0  0  0  0  0  0
  1 25  1  0  0  0
  1 30  2  0  0  0
  1 84  1  0  0  0
  2  3  1  0  0  0
  2 25  1  0  0  0
  2 85  1  0  0  0
  2 86  1  0  0  0
  3  4  1  0  0  0
  3 87  1  0  0  0
  3 88  1  0  0  0
  4  5  1  0  0  0
  4 89  1  0  0  0
  4 90  1  0  0  0
  5  6  1  0  0  0
  5 26  1  0  0  0
  5 91  1  0  0  0
  6 25  1  0  0  0
  6 92  1  0  0  0
  6 93  1  0  0  0
  7  8  2  0  0  0
  7 26  1  0  0  0
  7 29  1  0  0  0
  8  9  1  0  0  0
  8 22  1  0  0  0
  9 10  1  0  0  0
  9 27  2  0  0  0
 10 11  2  0  0  0
 10 15  1  0  0  0
 11 12  1  0  0  0
 11 94  1  0  0  0
 12 13  2  0  0  0
 12 95  1  0  0  0
 13 14  1  0  0  0
 13 31  1  0  0  0
 14 15  2  0  0  0
 14 96  1  0  0  0
 15 97  1  0  0  0
 16 17  2  0  0  0
 16 21  1  0  0  0
 16 31  1  0  0  0
 17 18  1  0  0  0
 17 98  1  0  0  0
 18 19  2  0  0  0
 18 99  1  0  0  0
 19 20  1  0  0  0
 19 24  1  0  0  0
 20 21  2  0  0  0
 20100  1  0  0  0
 21 23  1  0  0  0
 22 28  1  0  0  0
 22 32  2  0  0  0
 26 27  1  0  0  0
 28101  1  0  0  0
 28102  1  0  0  0
 29103  1  0  0  0
 29104  1  0  0  0
 33 34  1  0  0  0
 33 66  1  0  0  0
 33 70  2  0  0  0
 34 36  1  0  0  0
 34 59  1  0  0  0
 34105  1  0  0  0
 35 44  2  0  0  0
 35 45  1  0  0  0
 35 68  1  0  0  0
 36 56  1  0  0  0
 36106  1  0  0  0
 37 39  1  0  0  0
 37 47  1  0  0  0
 37 66  1  0  0  0
 37107  1  0  0  0
 38 43  2  0  0  0
 38 46  1  0  0  0
 38 47  1  0  0  0
 39 64  1  0  0  0
 39 67  2  0  0  0
 40 52  1  0  0  0
 40 53  2  0  0  0
 40 58  1  0  0  0
 41108  1  0  0  0
 41109  1  0  0  0
 41110  1  0  0  0
 41 48  1  0  0  0
 42 43  1  0  0  0
 42 66  1  0  0  0
 42111  1  0  0  0
 42112  1  0  0  0
 43 44  1  0  0  0
 44113  1  0  0  0
 45 46  2  0  0  0
 45114  1  0  0  0
 46115  1  0  0  0
 47116  1  0  0  0
 47117  1  0  0  0
 48 56  1  0  0  0
 48 65  1  0  0  0
 48118  1  0  0  0
 49 50  1  0  0  0
 49 53  1  0  0  0
 49 64  1  0  0  0
 49119  1  0  0  0
 50 51  1  0  0  0
 50120  1  0  0  0
 50121  1  0  0  0
 51 52  1  0  0  0
 51122  1  0  0  0
 51123  1  0  0  0
 52124  1  0  0  0
 52125  1  0  0  0
 53 54  1  0  0  0
 54 55  2  0  0  0
 54126  1  0  0  0
 55 57  1  0  0  0
 55127  1  0  0  0
 56 69  2  0  0  0
 57 58  2  0  0  0
 57128  1  0  0  0
 58129  1  0  0  0
 59 60  1  0  0  0
 59 61  1  0  0  0
 59 62  1  0  0  0
 60130  1  0  0  0
 60131  1  0  0  0
 60132  1  0  0  0
 61133  1  0  0  0
 61134  1  0  0  0
 61135  1  0  0  0
 62136  1  0  0  0
 62137  1  0  0  0
 62138  1  0  0  0
 63 65  1  0  0  0
 63139  1  0  0  0
 63140  1  0  0  0
 63141  1  0  0  0
 64142  1  0  0  0
 65143  1  0  0  0
 68 81  1  0  0  0
 71 73  2  0  0  0
 71 74  1  0  0  0
 71144  1  0  0  0
 72 73  1  0  0  0
 72 75  2  0  0  0
 72145  1  0  0  0
 73 81  1  0  0  0
 74 76  2  0  0  0
 74 77  1  0  0  0
 75 76  1  0  0  0
 75 83  1  0  0  0
 76 80  1  0  0  0
 77146  1  0  0  0
 77147  1  0  0  0
 77148  1  0  0  0
 78149  1  0  0  0
 78150  1  0  0  0
 78151  1  0  0  0
 78 83  1  0  0  0
 79 83  1  0  0  0
 79152  1  0  0  0
 79153  1  0  0  0
 79154  1  0  0  0
 80 82  1  0  0  0
 80155  1  0  0  0
 80156  1  0  0  0
 81157  1  0  0  0
 81158  1  0  0  0
 82 84  1  0  0  0
 82159  1  0  0  0
 82160  1  0  0  0
 83161  1  0  0  0
 84162  1  0  0  0
M  ISO  4   1 100  68 101  81 101  84 100
M  END
> <chiral flag>
0

> <version>
0

> <s_m_source_file>
/data/baiqing/PycharmProjects/Reinvent-master-3.2/result/LINK_invent/BTK/process_docking_weight1_custom_sum_contain_oxygen_bond_distance_aromatic_linkinvent_7_9_3/rearranged_h_0099.sdf

> <i_m_source_file_index>
3

> <r_mmod_Potential_Energy-OPLS-2005>
381.340148925781

> <r_mmod_Stretch_Energy-OPLS-2005>
197.264846801758

> <r_mmod_Bend_Energy-OPLS-2005>
249.735534667969

> <r_mmod_Torsional_Energy-OPLS-2005>
240.798492431641

> <r_mmod_Improper_Torsional_Energy-OPLS-2005>
5.92455530166626

> <r_mmod_Van_der_Waal_Energy-OPLS-2005>
132.324020385742

> <r_mmod_Electrostatic_Energy-OPLS-2005>
-393.687744140625

> <r_mmod_Solvation_Energy-OPLS-2005>
-203.95344543457

> <b_mmod_Minimization_Converged-OPLS-2005>
0

> <r_mmod_RMS_Derivative-OPLS-2005>
2.93917417526245

$$$$
3
                    3D
 Structure written by MMmdl.
166174  0  0  1  0            999 V2000
  -30.5418  -14.9958   20.4116 C   0  0  0  0  0  0
  -30.4371  -12.6231   19.5020 C   0  0  0  0  0  0
  -29.5194  -12.5287   18.2617 C   0  0  0  0  0  0
  -28.0583  -12.3009   18.6887 C   0  0  0  0  0  0
  -27.6250  -13.2515   19.8342 C   0  0  2  0  0  0
  -28.6676  -13.3182   20.9712 C   0  0  0  0  0  0
  -25.2448  -13.8222   20.5722 C   0  0  0  0  0  0
  -24.1764  -13.0440   20.9233 C   0  0  0  0  0  0
  -24.6384  -11.6926   20.8758 C   0  0  0  0  0  0
  -23.9077  -10.4289   21.0410 C   0  0  0  0  0  0
  -24.3625   -9.4204   21.9184 C   0  0  0  0  0  0
  -23.6293   -8.2243   22.0757 C   0  0  0  0  0  0
  -22.4276   -8.0284   21.3547 C   0  0  0  0  0  0
  -21.9914   -9.0261   20.4646 C   0  0  0  0  0  0
  -22.7248  -10.2133   20.3055 C   0  0  0  0  0  0
  -21.6857   -6.0729   22.5273 C   0  0  0  0  0  0
  -21.4018   -6.5637   23.8207 C   0  0  0  0  0  0
  -21.3655   -5.6791   24.9170 C   0  0  0  0  0  0
  -21.6047   -4.3055   24.7225 C   0  0  0  0  0  0
  -21.8818   -3.8138   23.4349 C   0  0  0  0  0  0
  -21.9194   -4.6954   22.3402 C   0  0  0  0  0  0
  -22.7787  -13.5205   21.1897 C   0  0  0  0  0  0
  -22.1661   -4.2140   21.0981 F   0  0  0  0  0  0
  -21.5629   -3.4542   25.7739 F   0  0  0  0  0  0
  -29.9343  -13.7378   20.3591 N   0  0  0  0  0  0
  -26.2870  -12.9455   20.3262 N   0  0  0  0  0  0
  -25.9320  -11.6583   20.5765 N   0  0  0  0  0  0
  -22.0445  -12.8181   22.0449 N   0  0  0  0  0  0
  -25.4112  -15.1955   20.4128 N   0  0  0  0  0  0
  -31.7547  -15.0264   20.1808 O   0  0  0  0  0  0
  -21.6645   -6.8876   21.4235 O   0  0  0  0  0  0
  -22.3460  -14.5508   20.6742 O   0  0  0  0  0  0
  -24.6463  -31.8393   23.1857 C   0  0  0  0  0  0
  -25.9207  -32.4677   23.8262 C   0  0  1  0  0  0
  -27.2195  -27.1050   20.1506 C   0  0  0  0  0  0
  -25.5943  -33.8487   24.2164 N   0  0  0  0  0  0
  -23.4518  -30.4577   21.5305 C   0  0  2  0  0  0
  -24.8995  -28.8795   20.1058 C   0  0  0  0  0  0
  -22.7596  -29.4522   22.4849 C   0  0  0  0  0  0
  -18.0301  -28.1396   22.8461 C   0  0  0  0  0  0
  -24.1480  -36.7259   23.2646 C   0  0  0  0  0  0
  -26.0086  -30.7025   21.3884 C   0  0  0  0  0  0
  -26.0767  -29.3118   20.7297 C   0  0  0  0  0  0
  -27.2302  -28.4383   20.7367 C   0  0  0  0  0  0
  -26.0095  -26.7755   19.4962 C   0  0  0  0  0  0
  -24.8811  -27.6254   19.4781 C   0  0  0  0  0  0
  -23.6785  -29.7869   20.1496 C   0  0  0  0  0  0
  -25.4117  -36.3025   24.0306 C   0  0  1  0  0  0
  -20.5923  -28.3727   23.1229 C   0  0  2  0  0  0
  -20.6791  -26.9423   22.5412 C   0  0  0  0  0  0
  -19.5766  -26.6365   21.5230 C   0  0  0  0  0  0
  -18.1936  -26.7930   22.1615 C   0  0  0  0  0  0
  -19.1561  -28.8880   23.2838 C   0  0  0  0  0  0
  -18.9486  -30.1475   23.8874 C   0  0  0  0  0  0
  -17.6485  -30.6599   24.0554 C   0  0  0  0  0  0
  -25.9077  -34.9404   23.5052 C   0  0  0  0  0  0
  -16.5370  -29.9083   23.6347 C   0  0  0  0  0  0
  -16.7282  -28.6508   23.0359 C   0  0  0  0  0  0
  -26.4523  -31.6578   25.0732 C   0  0  0  0  0  0
  -25.3696  -31.3790   26.1424 C   0  0  0  0  0  0
  -27.0419  -30.2976   24.6340 C   0  0  0  0  0  0
  -27.6030  -32.4381   25.7520 C   0  0  0  0  0  0
  -27.5566  -37.1774   24.8463 C   0  0  0  0  0  0
  -21.4282  -29.3063   22.3621 N   0  0  0  0  0  0
  -26.4278  -37.3744   23.9409 N   0  0  0  0  0  0
  -24.7223  -31.0221   22.0900 N   0  0  0  0  0  0
  -23.4227  -28.8075   23.3010 O   0  0  0  0  0  0
  -28.2830  -26.1255   20.2668 O   0  0  0  0  0  0
  -26.5679  -34.8904   22.4640 O   0  0  0  0  0  0
  -23.5570  -32.1276   23.7055 O   0  0  0  0  0  0
  -30.7989  -22.8579   20.5982 C   0  0  0  0  0  0
  -31.9465  -22.0786   20.4005 C   0  0  0  0  0  0
  -29.6760  -22.1419   20.3228 C   0  0  0  0  0  0
  -31.5243  -20.8438   19.9771 C   0  0  0  0  0  0
  -33.3465  -22.6263   20.5461 C   0  0  0  0  0  0
  -27.6275  -23.0806   21.6332 C   0  0  0  0  0  0
  -33.2947  -19.0388   20.3388 C   0  0  0  0  0  0
  -33.3102  -20.3726   18.2151 C   0  0  0  0  0  0
  -29.4565  -19.2195   20.1705 C   0  0  0  0  0  0
  -30.2763  -17.7388   20.5493 C   0  0  0  0  0  0
  -28.3364  -24.6814   19.6553 C   0  0  0  0  0  0
  -28.3482  -23.0822   20.2813 C   0  0  1  0  0  0
  -32.4126  -19.8017   19.3304 C   0  0  0  0  0  0
  -30.1253  -20.6918   20.2103 N   0  0  0  0  0  0
  -29.7965  -16.2166   20.5169 N   0  0  0  0  0  0
  -31.4690  -12.7846   19.1872 H   0  0  0  0  0  0
  -30.4408  -11.6831   20.0573 H   0  0  0  0  0  0
  -29.8491  -11.7223   17.6055 H   0  0  0  0  0  0
  -29.5932  -13.4492   17.6801 H   0  0  0  0  0  0
  -27.9749  -11.2652   19.0226 H   0  0  0  0  0  0
  -27.3880  -12.3995   17.8347 H   0  0  0  0  0  0
  -27.5771  -14.2445   19.3853 H   0  0  0  0  0  0
  -28.7697  -12.3556   21.4764 H   0  0  0  0  0  0
  -28.3589  -14.0379   21.7323 H   0  0  0  0  0  0
  -25.2769   -9.5683   22.4764 H   0  0  0  0  0  0
  -23.9998   -7.4638   22.7481 H   0  0  0  0  0  0
  -21.0848   -8.8782   19.8954 H   0  0  0  0  0  0
  -22.3710  -10.9676   19.6168 H   0  0  0  0  0  0
  -21.2010   -7.6146   23.9710 H   0  0  0  0  0  0
  -21.1476   -6.0523   25.9076 H   0  0  0  0  0  0
  -22.0597   -2.7603   23.2856 H   0  0  0  0  0  0
  -22.4080  -11.9842   22.4818 H   0  0  0  0  0  0
  -21.1069  -13.1198   22.2683 H   0  0  0  0  0  0
  -24.6394  -15.8461   20.5151 H   0  0  0  0  0  0
  -26.2532  -15.6350   20.0647 H   0  0  0  0  0  0
  -26.7255  -32.5261   23.0968 H   0  0  0  0  0  0
  -25.0086  -33.9620   25.0304 H   0  0  0  0  0  0
  -22.7554  -31.2851   21.3745 H   0  0  0  0  0  0
  -23.3759  -35.9582   23.3297 H   0  0  0  0  0  0
  -24.3560  -36.8915   22.2067 H   0  0  0  0  0  0
  -23.7217  -37.6437   23.6711 H   0  0  0  0  0  0
  -26.1679  -31.4554   20.6154 H   0  0  0  0  0  0
  -26.8778  -30.7527   22.0335 H   0  0  0  0  0  0
  -28.1247  -28.7617   21.2502 H   0  0  0  0  0  0
  -25.8796  -25.8132   19.0286 H   0  0  0  0  0  0
  -23.9790  -27.2839   18.9893 H   0  0  0  0  0  0
  -23.8164  -30.5634   19.3954 H   0  0  0  0  0  0
  -22.7909  -29.2336   19.8376 H   0  0  0  0  0  0
  -25.1289  -36.1861   25.0795 H   0  0  0  0  0  0
  -20.9996  -28.3302   24.1364 H   0  0  0  0  0  0
  -20.5713  -26.2334   23.3635 H   0  0  0  0  0  0
  -21.6643  -26.7423   22.1199 H   0  0  0  0  0  0
  -19.6943  -25.6274   21.1272 H   0  0  0  0  0  0
  -19.6709  -27.3170   20.6760 H   0  0  0  0  0  0
  -17.4214  -26.6697   21.4004 H   0  0  0  0  0  0
  -18.0292  -26.0074   22.9009 H   0  0  0  0  0  0
  -19.7979  -30.7277   24.2237 H   0  0  0  0  0  0
  -17.5049  -31.6281   24.5144 H   0  0  0  0  0  0
  -15.5380  -30.2976   23.7707 H   0  0  0  0  0  0
  -15.8676  -28.0821   22.7091 H   0  0  0  0  0  0
  -24.5859  -30.7150   25.7736 H   0  0  0  0  0  0
  -24.8916  -32.2996   26.4786 H   0  0  0  0  0  0
  -25.7950  -30.8992   27.0242 H   0  0  0  0  0  0
  -26.3066  -29.6678   24.1317 H   0  0  0  0  0  0
  -27.4006  -29.7283   25.4926 H   0  0  0  0  0  0
  -27.8961  -30.4221   23.9685 H   0  0  0  0  0  0
  -27.2589  -33.3703   26.2005 H   0  0  0  0  0  0
  -28.3877  -32.6912   25.0380 H   0  0  0  0  0  0
  -28.0649  -31.8585   26.5511 H   0  0  0  0  0  0
  -28.2558  -38.0093   24.7505 H   0  0  0  0  0  0
  -28.1083  -36.2616   24.6288 H   0  0  0  0  0  0
  -27.2294  -37.1411   25.8871 H   0  0  0  0  0  0
  -20.9513  -29.8797   21.6808 H   0  0  0  0  0  0
  -26.0152  -38.2807   24.1442 H   0  0  0  0  0  0
  -30.8009  -23.9097   20.8521 H   0  0  0  0  0  0
  -33.3657  -23.4125   21.3016 H   0  0  0  0  0  0
  -33.6878  -23.0651   19.6083 H   0  0  0  0  0  0
  -34.0567  -21.8627   20.8556 H   0  0  0  0  0  0
  -27.3872  -22.0662   21.9508 H   0  0  0  0  0  0
  -26.6954  -23.6430   21.5767 H   0  0  0  0  0  0
  -28.2456  -23.5419   22.4040 H   0  0  0  0  0  0
  -32.7334  -18.6849   21.2000 H   0  0  0  0  0  0
  -34.0984  -19.6591   20.7302 H   0  0  0  0  0  0
  -33.7607  -18.1733   19.8674 H   0  0  0  0  0  0
  -32.7283  -20.9482   17.4945 H   0  0  0  0  0  0
  -33.8043  -19.5690   17.6671 H   0  0  0  0  0  0
  -34.1029  -21.0137   18.5967 H   0  0  0  0  0  0
  -28.5888  -19.2738   20.8279 H   0  0  0  0  0  0
  -29.0363  -19.1129   19.1706 H   0  0  0  0  0  0
  -30.6709  -17.8728   21.5557 H   0  0  0  0  0  0
  -31.1410  -17.6343   19.9141 H   0  0  0  0  0  0
  -27.5685  -24.6564   18.8883 H   0  0  0  0  0  0
  -29.2339  -24.7282   19.0386 H   0  0  0  0  0  0
  -27.6837  -22.5477   19.6018 H   0  0  0  0  0  0
  -31.7823  -19.1229   18.7647 H   0  0  0  0  0  0
  -28.8035  -16.0859   20.6398 H   0  0  0  0  0  0
  1 25  1  0  0  0
  1 30  2  0  0  0
  1 85  1  0  0  0
  2  3  1  0  0  0
  2 25  1  0  0  0
  2 86  1  0  0  0
  2 87  1  0  0  0
  3  4  1  0  0  0
  3 88  1  0  0  0
  3 89  1  0  0  0
  4  5  1  0  0  0
  4 90  1  0  0  0
  4 91  1  0  0  0
  5  6  1  0  0  0
  5 26  1  0  0  0
  5 92  1  0  0  0
  6 25  1  0  0  0
  6 93  1  0  0  0
  6 94  1  0  0  0
  7  8  2  0  0  0
  7 26  1  0  0  0
  7 29  1  0  0  0
  8  9  1  0  0  0
  8 22  1  0  0  0
  9 10  1  0  0  0
  9 27  2  0  0  0
 10 11  2  0  0  0
 10 15  1  0  0  0
 11 12  1  0  0  0
 11 95  1  0  0  0
 12 13  2  0  0  0
 12 96  1  0  0  0
 13 14  1  0  0  0
 13 31  1  0  0  0
 14 15  2  0  0  0
 14 97  1  0  0  0
 15 98  1  0  0  0
 16 17  2  0  0  0
 16 21  1  0  0  0
 16 31  1  0  0  0
 17 18  1  0  0  0
 17 99  1  0  0  0
 18 19  2  0  0  0
 18100  1  0  0  0
 19 20  1  0  0  0
 19 24  1  0  0  0
 20 21  2  0  0  0
 20101  1  0  0  0
 21 23  1  0  0  0
 22 28  1  0  0  0
 22 32  2  0  0  0
 26 27  1  0  0  0
 28102  1  0  0  0
 28103  1  0  0  0
 29104  1  0  0  0
 29105  1  0  0  0
 33 34  1  0  0  0
 33 66  1  0  0  0
 33 70  2  0  0  0
 34 36  1  0  0  0
 34 59  1  0  0  0
 34106  1  0  0  0
 35 44  2  0  0  0
 35 45  1  0  0  0
 35 68  1  0  0  0
 36 56  1  0  0  0
 36107  1  0  0  0
 37 39  1  0  0  0
 37 47  1  0  0  0
 37 66  1  0  0  0
 37108  1  0  0  0
 38 43  2  0  0  0
 38 46  1  0  0  0
 38 47  1  0  0  0
 39 64  1  0  0  0
 39 67  2  0  0  0
 40 52  1  0  0  0
 40 53  2  0  0  0
 40 58  1  0  0  0
 41109  1  0  0  0
 41110  1  0  0  0
 41111  1  0  0  0
 41 48  1  0  0  0
 42 43  1  0  0  0
 42 66  1  0  0  0
 42112  1  0  0  0
 42113  1  0  0  0
 43 44  1  0  0  0
 44114  1  0  0  0
 45 46  2  0  0  0
 45115  1  0  0  0
 46116  1  0  0  0
 47117  1  0  0  0
 47118  1  0  0  0
 48 56  1  0  0  0
 48 65  1  0  0  0
 48119  1  0  0  0
 49 50  1  0  0  0
 49 53  1  0  0  0
 49 64  1  0  0  0
 49120  1  0  0  0
 50 51  1  0  0  0
 50121  1  0  0  0
 50122  1  0  0  0
 51 52  1  0  0  0
 51123  1  0  0  0
 51124  1  0  0  0
 52125  1  0  0  0
 52126  1  0  0  0
 53 54  1  0  0  0
 54 55  2  0  0  0
 54127  1  0  0  0
 55 57  1  0  0  0
 55128  1  0  0  0
 56 69  2  0  0  0
 57 58  2  0  0  0
 57129  1  0  0  0
 58130  1  0  0  0
 59 60  1  0  0  0
 59 61  1  0  0  0
 59 62  1  0  0  0
 60131  1  0  0  0
 60132  1  0  0  0
 60133  1  0  0  0
 61134  1  0  0  0
 61135  1  0  0  0
 61136  1  0  0  0
 62137  1  0  0  0
 62138  1  0  0  0
 62139  1  0  0  0
 63 65  1  0  0  0
 63140  1  0  0  0
 63141  1  0  0  0
 63142  1  0  0  0
 64143  1  0  0  0
 65144  1  0  0  0
 68 81  1  0  0  0
 71 72  1  0  0  0
 71 73  2  0  0  0
 71145  1  0  0  0
 72 74  2  0  0  0
 72 75  1  0  0  0
 73 82  1  0  0  0
 73 84  1  0  0  0
 74 83  1  0  0  0
 74 84  1  0  0  0
 75146  1  0  0  0
 75147  1  0  0  0
 75148  1  0  0  0
 76149  1  0  0  0
 76150  1  0  0  0
 76151  1  0  0  0
 76 82  1  0  0  0
 77152  1  0  0  0
 77153  1  0  0  0
 77154  1  0  0  0
 77 83  1  0  0  0
 78 83  1  0  0  0
 78155  1  0  0  0
 78156  1  0  0  0
 78157  1  0  0  0
 79 80  1  0  0  0
 79 84  1  0  0  0
 79158  1  0  0  0
 79159  1  0  0  0
 80 85  1  0  0  0
 80160  1  0  0  0
 80161  1  0  0  0
 81 82  1  0  0  0
 81162  1  0  0  0
 81163  1  0  0  0
 82164  1  0  0  0
 83165  1  0  0  0
 85166  1  0  0  0
M  ISO  4   1 100  68 101  81 101  85 100
M  END
> <chiral flag>
0

> <version>
0

> <s_m_source_file>
/data/baiqing/PycharmProjects/Reinvent-master-3.2/result/LINK_invent/BTK/process_docking_weight1_custom_sum_contain_oxygen_bond_distance_aromatic_linkinvent_7_9_3/rearranged_h_0099.sdf

> <i_m_source_file_index>
4

> <r_mmod_Potential_Energy-OPLS-2005>
722.807922363281

> <r_mmod_Stretch_Energy-OPLS-2005>
345.092071533203

> <r_mmod_Bend_Energy-OPLS-2005>
386.438812255859

> <r_mmod_Torsional_Energy-OPLS-2005>
271.647247314453

> <r_mmod_Improper_Torsional_Energy-OPLS-2005>
5.2620906829834

> <r_mmod_Van_der_Waal_Energy-OPLS-2005>
121.158752441406

> <r_mmod_Electrostatic_Energy-OPLS-2005>
-416.822113037109

> <r_mmod_Solvation_Energy-OPLS-2005>
-214.656509399414

> <b_mmod_Minimization_Converged-OPLS-2005>
0

> <r_mmod_RMS_Derivative-OPLS-2005>
2.06808733940125

$$$$
4
                    3D
 Structure written by MMmdl.
155163  0  0  1  0            999 V2000
  -30.5337  -14.9743   20.3965 C   0  0  0  0  0  0
  -30.4382  -12.5893   19.5277 C   0  0  0  0  0  0
  -29.5309  -12.5312   18.2743 C   0  0  0  0  0  0
  -28.0625  -12.3155   18.6816 C   0  0  0  0  0  0
  -27.6317  -13.2550   19.8387 C   0  0  2  0  0  0
  -28.6670  -13.2967   20.9814 C   0  0  0  0  0  0
  -25.2493  -13.8239   20.5729 C   0  0  0  0  0  0
  -24.1792  -13.0453   20.9197 C   0  0  0  0  0  0
  -24.6411  -11.6937   20.8717 C   0  0  0  0  0  0
  -23.9095  -10.4301   21.0381 C   0  0  0  0  0  0
  -24.3640   -9.4223   21.9162 C   0  0  0  0  0  0
  -23.6308   -8.2262   22.0752 C   0  0  0  0  0  0
  -22.4296   -8.0291   21.3544 C   0  0  0  0  0  0
  -21.9924   -9.0268   20.4647 C   0  0  0  0  0  0
  -22.7254  -10.2141   20.3041 C   0  0  0  0  0  0
  -21.6864   -6.0756   22.5280 C   0  0  0  0  0  0
  -21.4018   -6.5648   23.8210 C   0  0  0  0  0  0
  -21.3658   -5.6798   24.9167 C   0  0  0  0  0  0
  -21.6037   -4.3065   24.7220 C   0  0  0  0  0  0
  -21.8824   -3.8164   23.4336 C   0  0  0  0  0  0
  -21.9194   -4.6982   22.3396 C   0  0  0  0  0  0
  -22.7809  -13.5213   21.1866 C   0  0  0  0  0  0
  -22.1669   -4.2160   21.0975 F   0  0  0  0  0  0
  -21.5625   -3.4544   25.7733 F   0  0  0  0  0  0
  -29.9525  -13.7012   20.4026 N   0  0  0  0  0  0
  -26.2907  -12.9474   20.3239 N   0  0  0  0  0  0
  -25.9353  -11.6594   20.5726 N   0  0  0  0  0  0
  -22.0483  -12.8165   22.0416 N   0  0  0  0  0  0
  -25.4225  -15.1969   20.4256 N   0  0  0  0  0  0
  -31.7211  -14.9974   20.0529 O   0  0  0  0  0  0
  -21.6655   -6.8893   21.4242 O   0  0  0  0  0  0
  -22.3473  -14.5527   20.6745 O   0  0  0  0  0  0
  -24.6431  -31.8413   23.1845 C   0  0  0  0  0  0
  -25.9196  -32.4675   23.8245 C   0  0  1  0  0  0
  -27.2191  -27.1151   20.1490 C   0  0  0  0  0  0
  -25.5940  -33.8477   24.2166 N   0  0  0  0  0  0
  -23.4480  -30.4580   21.5303 C   0  0  2  0  0  0
  -24.8980  -28.8763   20.1033 C   0  0  0  0  0  0
  -22.7578  -29.4527   22.4859 C   0  0  0  0  0  0
  -18.0313  -28.1385   22.8498 C   0  0  0  0  0  0
  -24.1496  -36.7247   23.2646 C   0  0  0  0  0  0
  -26.0020  -30.7067   21.3866 C   0  0  0  0  0  0
  -26.0709  -29.3150   20.7278 C   0  0  0  0  0  0
  -27.2256  -28.4464   20.7382 C   0  0  0  0  0  0
  -26.0236  -26.7758   19.4828 C   0  0  0  0  0  0
  -24.8879  -27.6221   19.4652 C   0  0  0  0  0  0
  -23.6733  -29.7811   20.1500 C   0  0  0  0  0  0
  -25.4129  -36.3017   24.0314 C   0  0  1  0  0  0
  -20.5927  -28.3733   23.1261 C   0  0  2  0  0  0
  -20.6832  -26.9425   22.5442 C   0  0  0  0  0  0
  -19.5797  -26.6368   21.5244 C   0  0  0  0  0  0
  -18.1969  -26.7926   22.1640 C   0  0  0  0  0  0
  -19.1566  -28.8877   23.2870 C   0  0  0  0  0  0
  -18.9487  -30.1491   23.8864 C   0  0  0  0  0  0
  -17.6474  -30.6593   24.0541 C   0  0  0  0  0  0
  -25.9071  -34.9393   23.5047 C   0  0  0  0  0  0
  -16.5370  -29.9072   23.6328 C   0  0  0  0  0  0
  -16.7305  -28.6496   23.0357 C   0  0  0  0  0  0
  -26.4516  -31.6558   25.0694 C   0  0  0  0  0  0
  -25.3702  -31.3729   26.1392 C   0  0  0  0  0  0
  -27.0392  -30.2950   24.6286 C   0  0  0  0  0  0
  -27.6050  -32.4326   25.7474 C   0  0  0  0  0  0
  -27.5572  -37.1779   24.8464 C   0  0  0  0  0  0
  -21.4263  -29.3064   22.3635 N   0  0  0  0  0  0
  -26.4285  -37.3732   23.9409 N   0  0  0  0  0  0
  -24.7173  -31.0238   22.0886 N   0  0  0  0  0  0
  -23.4217  -28.8089   23.3007 O   0  0  0  0  0  0
  -28.2843  -26.1487   20.2826 O   0  0  0  0  0  0
  -26.5678  -34.8900   22.4638 O   0  0  0  0  0  0
  -23.5551  -32.1304   23.7067 O   0  0  0  0  0  0
  -28.9300  -16.8545   21.6873 C   0  0  0  0  0  0
  -29.9449  -17.6370   19.9218 C   0  0  0  0  0  0
  -29.8061  -16.4108   20.6426 C   0  0  0  0  0  0
  -28.5817  -18.1950   21.5606 C   0  0  0  0  0  0
  -27.6604  -19.0005   22.4221 C   0  0  0  0  0  0
  -27.2377  -23.2355   21.5152 C   0  0  0  0  0  0
  -29.1152  -21.7754   20.3721 C   0  0  0  0  0  0
  -28.8049  -20.2010   19.8157 C   0  0  0  0  0  0
  -28.4245  -24.7090   19.6805 C   0  0  0  0  0  0
  -28.0843  -23.1334   20.2405 C   0  0  2  0  0  0
  -29.1754  -18.7687   20.4331 N   0  0  0  0  0  0
  -31.4779  -12.7201   19.2270 H   0  0  0  0  0  0
  -30.4115  -11.6407   20.0673 H   0  0  0  0  0  0
  -29.8556  -11.7296   17.6088 H   0  0  0  0  0  0
  -29.6234  -13.4606   17.7088 H   0  0  0  0  0  0
  -27.9618  -11.2762   18.9967 H   0  0  0  0  0  0
  -27.4035  -12.4387   17.8202 H   0  0  0  0  0  0
  -27.5942  -14.2558   19.4087 H   0  0  0  0  0  0
  -28.7488  -12.3275   21.4745 H   0  0  0  0  0  0
  -28.3578  -14.0058   21.7485 H   0  0  0  0  0  0
  -25.2784   -9.5700   22.4731 H   0  0  0  0  0  0
  -24.0030   -7.4651   22.7462 H   0  0  0  0  0  0
  -21.0865   -8.8776   19.8939 H   0  0  0  0  0  0
  -22.3713  -10.9681   19.6154 H   0  0  0  0  0  0
  -21.2024   -7.6153   23.9719 H   0  0  0  0  0  0
  -21.1467   -6.0522   25.9066 H   0  0  0  0  0  0
  -22.0604   -2.7625   23.2827 H   0  0  0  0  0  0
  -22.4151  -11.9830   22.4770 H   0  0  0  0  0  0
  -21.1110  -13.1161   22.2683 H   0  0  0  0  0  0
  -24.6740  -15.8614   20.5845 H   0  0  0  0  0  0
  -26.3014  -15.6391   20.1824 H   0  0  0  0  0  0
  -26.7259  -32.5257   23.0974 H   0  0  0  0  0  0
  -25.0031  -33.9592   25.0273 H   0  0  0  0  0  0
  -22.7530  -31.2856   21.3739 H   0  0  0  0  0  0
  -23.3756  -35.9575   23.3290 H   0  0  0  0  0  0
  -24.3585  -36.8894   22.2061 H   0  0  0  0  0  0
  -23.7263  -37.6436   23.6702 H   0  0  0  0  0  0
  -26.1630  -31.4614   20.6151 H   0  0  0  0  0  0
  -26.8714  -30.7554   22.0317 H   0  0  0  0  0  0
  -28.1149  -28.7727   21.2588 H   0  0  0  0  0  0
  -25.9339  -25.8069   19.0136 H   0  0  0  0  0  0
  -23.9881  -27.2824   18.9689 H   0  0  0  0  0  0
  -23.8070  -30.5539   19.3921 H   0  0  0  0  0  0
  -22.7867  -29.2232   19.8430 H   0  0  0  0  0  0
  -25.1327  -36.1824   25.0805 H   0  0  0  0  0  0
  -21.0047  -28.3351   24.1368 H   0  0  0  0  0  0
  -20.5784  -26.2348   23.3675 H   0  0  0  0  0  0
  -21.6686  -26.7463   22.1216 H   0  0  0  0  0  0
  -19.6968  -25.6274   21.1289 H   0  0  0  0  0  0
  -19.6738  -27.3176   20.6772 H   0  0  0  0  0  0
  -17.4258  -26.6712   21.4018 H   0  0  0  0  0  0
  -18.0319  -26.0069   22.9025 H   0  0  0  0  0  0
  -19.7939  -30.7350   24.2204 H   0  0  0  0  0  0
  -17.5006  -31.6283   24.5122 H   0  0  0  0  0  0
  -15.5371  -30.2974   23.7669 H   0  0  0  0  0  0
  -15.8724  -28.0804   22.7050 H   0  0  0  0  0  0
  -24.5914  -30.7043   25.7706 H   0  0  0  0  0  0
  -24.8852  -32.2894   26.4745 H   0  0  0  0  0  0
  -25.7987  -30.8951   27.0214 H   0  0  0  0  0  0
  -26.3009  -29.6654   24.1301 H   0  0  0  0  0  0
  -27.4019  -29.7255   25.4858 H   0  0  0  0  0  0
  -27.8915  -30.4183   23.9601 H   0  0  0  0  0  0
  -27.2655  -33.3667   26.1966 H   0  0  0  0  0  0
  -28.3893  -32.6823   25.0314 H   0  0  0  0  0  0
  -28.0688  -31.8505   26.5448 H   0  0  0  0  0  0
  -28.2579  -38.0080   24.7504 H   0  0  0  0  0  0
  -28.1082  -36.2612   24.6308 H   0  0  0  0  0  0
  -27.2291  -37.1441   25.8866 H   0  0  0  0  0  0
  -20.9474  -29.8846   21.6872 H   0  0  0  0  0  0
  -26.0142  -38.2791   24.1403 H   0  0  0  0  0  0
  -28.5722  -16.2290   22.4947 H   0  0  0  0  0  0
  -30.5242  -17.7944   19.0212 H   0  0  0  0  0  0
  -27.2702  -18.4010   23.2451 H   0  0  0  0  0  0
  -26.8069  -19.3698   21.8520 H   0  0  0  0  0  0
  -28.1766  -19.8598   22.8504 H   0  0  0  0  0  0
  -26.8046  -22.2686   21.7765 H   0  0  0  0  0  0
  -26.4169  -23.9409   21.3843 H   0  0  0  0  0  0
  -27.8345  -23.5728   22.3631 H   0  0  0  0  0  0
  -29.3822  -21.6847   21.4255 H   0  0  0  0  0  0
  -30.0553  -22.0600   19.8995 H   0  0  0  0  0  0
  -29.1607  -20.1700   18.7853 H   0  0  0  0  0  0
  -27.7223  -20.1674   19.6980 H   0  0  0  0  0  0
  -27.9682  -24.7751   18.6924 H   0  0  0  0  0  0
  -29.4861  -24.6667   19.4364 H   0  0  0  0  0  0
  -27.3811  -22.7878   19.4815 H   0  0  0  0  0  0
  1 25  1  0  0  0
  1 30  2  0  0  0
  1 73  1  0  0  0
  2  3  1  0  0  0
  2 25  1  0  0  0
  2 82  1  0  0  0
  2 83  1  0  0  0
  3  4  1  0  0  0
  3 84  1  0  0  0
  3 85  1  0  0  0
  4  5  1  0  0  0
  4 86  1  0  0  0
  4 87  1  0  0  0
  5  6  1  0  0  0
  5 26  1  0  0  0
  5 88  1  0  0  0
  6 25  1  0  0  0
  6 89  1  0  0  0
  6 90  1  0  0  0
  7  8  2  0  0  0
  7 26  1  0  0  0
  7 29  1  0  0  0
  8  9  1  0  0  0
  8 22  1  0  0  0
  9 10  1  0  0  0
  9 27  2  0  0  0
 10 11  2  0  0  0
 10 15  1  0  0  0
 11 12  1  0  0  0
 11 91  1  0  0  0
 12 13  2  0  0  0
 12 92  1  0  0  0
 13 14  1  0  0  0
 13 31  1  0  0  0
 14 15  2  0  0  0
 14 93  1  0  0  0
 15 94  1  0  0  0
 16 17  2  0  0  0
 16 21  1  0  0  0
 16 31  1  0  0  0
 17 18  1  0  0  0
 17 95  1  0  0  0
 18 19  2  0  0  0
 18 96  1  0  0  0
 19 20  1  0  0  0
 19 24  1  0  0  0
 20 21  2  0  0  0
 20 97  1  0  0  0
 21 23  1  0  0  0
 22 28  1  0  0  0
 22 32  2  0  0  0
 26 27  1  0  0  0
 28 98  1  0  0  0
 28 99  1  0  0  0
 29100  1  0  0  0
 29101  1  0  0  0
 33 34  1  0  0  0
 33 66  1  0  0  0
 33 70  2  0  0  0
 34 36  1  0  0  0
 34 59  1  0  0  0
 34102  1  0  0  0
 35 44  2  0  0  0
 35 45  1  0  0  0
 35 68  1  0  0  0
 36 56  1  0  0  0
 36103  1  0  0  0
 37 39  1  0  0  0
 37 47  1  0  0  0
 37 66  1  0  0  0
 37104  1  0  0  0
 38 43  2  0  0  0
 38 46  1  0  0  0
 38 47  1  0  0  0
 39 64  1  0  0  0
 39 67  2  0  0  0
 40 52  1  0  0  0
 40 53  2  0  0  0
 40 58  1  0  0  0
 41105  1  0  0  0
 41106  1  0  0  0
 41107  1  0  0  0
 41 48  1  0  0  0
 42 43  1  0  0  0
 42 66  1  0  0  0
 42108  1  0  0  0
 42109  1  0  0  0
 43 44  1  0  0  0
 44110  1  0  0  0
 45 46  2  0  0  0
 45111  1  0  0  0
 46112  1  0  0  0
 47113  1  0  0  0
 47114  1  0  0  0
 48 56  1  0  0  0
 48 65  1  0  0  0
 48115  1  0  0  0
 49 50  1  0  0  0
 49 53  1  0  0  0
 49 64  1  0  0  0
 49116  1  0  0  0
 50 51  1  0  0  0
 50117  1  0  0  0
 50118  1  0  0  0
 51 52  1  0  0  0
 51119  1  0  0  0
 51120  1  0  0  0
 52121  1  0  0  0
 52122  1  0  0  0
 53 54  1  0  0  0
 54 55  2  0  0  0
 54123  1  0  0  0
 55 57  1  0  0  0
 55124  1  0  0  0
 56 69  2  0  0  0
 57 58  2  0  0  0
 57125  1  0  0  0
 58126  1  0  0  0
 59 60  1  0  0  0
 59 61  1  0  0  0
 59 62  1  0  0  0
 60127  1  0  0  0
 60128  1  0  0  0
 60129  1  0  0  0
 61130  1  0  0  0
 61131  1  0  0  0
 61132  1  0  0  0
 62133  1  0  0  0
 62134  1  0  0  0
 62135  1  0  0  0
 63 65  1  0  0  0
 63136  1  0  0  0
 63137  1  0  0  0
 63138  1  0  0  0
 64139  1  0  0  0
 65140  1  0  0  0
 68 79  1  0  0  0
 71 73  1  0  0  0
 71 74  2  0  0  0
 71141  1  0  0  0
 72 73  2  0  0  0
 72 81  1  0  0  0
 72142  1  0  0  0
 74 75  1  0  0  0
 74 81  1  0  0  0
 75143  1  0  0  0
 75144  1  0  0  0
 75145  1  0  0  0
 76146  1  0  0  0
 76147  1  0  0  0
 76148  1  0  0  0
 76 80  1  0  0  0
 77 78  1  0  0  0
 77 80  1  0  0  0
 77149  1  0  0  0
 77150  1  0  0  0
 78 81  1  0  0  0
 78151  1  0  0  0
 78152  1  0  0  0
 79 80  1  0  0  0
 79153  1  0  0  0
 79154  1  0  0  0
 80155  1  0  0  0
M  ISO  4   1 100  68 101  73 100  79 101
M  END
> <chiral flag>
0

> <version>
0

> <s_m_source_file>
/data/baiqing/PycharmProjects/Reinvent-master-3.2/result/LINK_invent/BTK/process_docking_weight1_custom_sum_contain_oxygen_bond_distance_aromatic_linkinvent_7_9_3/rearranged_h_0099.sdf

> <i_m_source_file_index>
5

> <r_mmod_Potential_Energy-OPLS-2005>
694.228271484375

> <r_mmod_Stretch_Energy-OPLS-2005>
293.290802001953

> <r_mmod_Bend_Energy-OPLS-2005>
329.499603271484

> <r_mmod_Torsional_Energy-OPLS-2005>
236.690383911133

> <r_mmod_Improper_Torsional_Energy-OPLS-2005>
5.09936618804932

> <r_mmod_Van_der_Waal_Energy-OPLS-2005>
99.7467498779297

> <r_mmod_Electrostatic_Energy-OPLS-2005>
-286.648223876953

> <r_mmod_Solvation_Energy-OPLS-2005>
-191.034088134766

> <b_mmod_Minimization_Converged-OPLS-2005>
0

> <r_mmod_RMS_Derivative-OPLS-2005>
2.40005111694336

$$$$
5
                    3D
 Structure written by MMmdl.
144151  0  0  1  0            999 V2000
  -30.3355  -15.5524   20.3368 C   0  0  0  0  0  0
  -30.4276  -13.0194   19.5369 C   0  0  0  0  0  0
  -29.5467  -12.6360   18.3154 C   0  0  0  0  0  0
  -28.1142  -12.2973   18.7558 C   0  0  0  0  0  0
  -27.5981  -13.3000   19.8137 C   0  0  2  0  0  0
  -28.6184  -13.6013   20.9355 C   0  0  0  0  0  0
  -25.2333  -13.8275   20.5783 C   0  0  0  0  0  0
  -24.1714  -13.0434   20.9283 C   0  0  0  0  0  0
  -24.6406  -11.6942   20.8765 C   0  0  0  0  0  0
  -23.9108  -10.4292   21.0400 C   0  0  0  0  0  0
  -24.3646   -9.4205   21.9182 C   0  0  0  0  0  0
  -23.6309   -8.2245   22.0754 C   0  0  0  0  0  0
  -22.4290   -8.0286   21.3545 C   0  0  0  0  0  0
  -21.9935   -9.0261   20.4645 C   0  0  0  0  0  0
  -22.7275  -10.2134   20.3051 C   0  0  0  0  0  0
  -21.6857   -6.0740   22.5279 C   0  0  0  0  0  0
  -21.4018   -6.5642   23.8213 C   0  0  0  0  0  0
  -21.3660   -5.6793   24.9174 C   0  0  0  0  0  0
  -21.6044   -4.3056   24.7224 C   0  0  0  0  0  0
  -21.8818   -3.8149   23.4344 C   0  0  0  0  0  0
  -21.9193   -4.6967   22.3402 C   0  0  0  0  0  0
  -22.7728  -13.5169   21.1919 C   0  0  0  0  0  0
  -22.1662   -4.2152   21.0979 F   0  0  0  0  0  0
  -21.5627   -3.4539   25.7736 F   0  0  0  0  0  0
  -29.8050  -14.1982   20.2843 N   0  0  0  0  0  0
  -26.2774  -12.9592   20.3224 N   0  0  0  0  0  0
  -25.9349  -11.6672   20.5705 N   0  0  0  0  0  0
  -22.0390  -12.8148   22.0471 N   0  0  0  0  0  0
  -25.3933  -15.2015   20.4224 N   0  0  0  0  0  0
  -31.5680  -15.5018   20.1721 O   0  0  0  0  0  0
  -21.6647   -6.8886   21.4243 O   0  0  0  0  0  0
  -22.3405  -14.5469   20.6756 O   0  0  0  0  0  0
  -24.6802  -31.8038   23.1542 C   0  0  0  0  0  0
  -25.9399  -32.4485   23.8076 C   0  0  1  0  0  0
  -27.2253  -26.7418   20.2108 C   0  0  0  0  0  0
  -25.5992  -33.8309   24.1967 N   0  0  0  0  0  0
  -23.5042  -30.4070   21.5074 C   0  0  2  0  0  0
  -24.9608  -28.7546   20.1174 C   0  0  0  0  0  0
  -22.7749  -29.4337   22.4723 C   0  0  0  0  0  0
  -18.0336  -28.1419   22.8457 C   0  0  0  0  0  0
  -24.1496  -36.7162   23.2652 C   0  0  0  0  0  0
  -26.0828  -30.5500   21.4121 C   0  0  0  0  0  0
  -26.1491  -29.1189   20.7617 C   0  0  0  0  0  0
  -27.2684  -28.1395   20.7754 C   0  0  0  0  0  0
  -26.0040  -26.5752   19.5122 C   0  0  0  0  0  0
  -24.9248  -27.5077   19.4695 C   0  0  0  0  0  0
  -23.7555  -29.7057   20.1416 C   0  0  0  0  0  0
  -25.4145  -36.2906   24.0284 C   0  0  1  0  0  0
  -20.5970  -28.3777   23.1151 C   0  0  2  0  0  0
  -20.6804  -26.9440   22.5404 C   0  0  0  0  0  0
  -19.5780  -26.6372   21.5217 C   0  0  0  0  0  0
  -18.1962  -26.7948   22.1620 C   0  0  0  0  0  0
  -19.1601  -28.8922   23.2785 C   0  0  0  0  0  0
  -18.9507  -30.1507   23.8830 C   0  0  0  0  0  0
  -17.6498  -30.6603   24.0551 C   0  0  0  0  0  0
  -25.9121  -34.9295   23.4960 C   0  0  0  0  0  0
  -16.5387  -29.9086   23.6349 C   0  0  0  0  0  0
  -16.7316  -28.6508   23.0366 C   0  0  0  0  0  0
  -26.4589  -31.6506   25.0683 C   0  0  0  0  0  0
  -25.3664  -31.3811   26.1305 C   0  0  0  0  0  0
  -27.0517  -30.2849   24.6555 C   0  0  0  0  0  0
  -27.6042  -32.4359   25.7501 C   0  0  0  0  0  0
  -27.5565  -37.1738   24.8466 C   0  0  0  0  0  0
  -21.4400  -29.3032   22.3476 N   0  0  0  0  0  0
  -26.4273  -37.3663   23.9406 N   0  0  0  0  0  0
  -24.7788  -30.9523   22.0773 N   0  0  0  0  0  0
  -23.4212  -28.7934   23.3051 O   0  0  0  0  0  0
  -28.2031  -25.5500   20.2837 O   0  0  0  0  0  0
  -26.5758  -34.8866   22.4575 O   0  0  0  0  0  0
  -23.5830  -32.1092   23.6523 O   0  0  0  0  0  0
  -28.7653  -20.2704   20.3041 C   0  0  0  0  0  0
  -29.8037  -18.6518   20.3249 C   0  0  0  0  0  0
  -28.0063  -23.8213   20.1681 C   0  0  0  0  0  0
  -29.0090  -22.1792   20.2622 C   0  0  2  0  0  0
  -29.5781  -16.9015   20.3834 N   0  0  0  0  0  0
  -29.8056  -22.2884   19.0966 O   0  0  0  0  0  0
  -31.4273  -13.2681   19.1792 H   0  0  0  0  0  0
  -30.5673  -12.1630   20.1989 H   0  0  0  0  0  0
  -29.9849  -11.7958   17.7752 H   0  0  0  0  0  0
  -29.5222  -13.4726   17.6155 H   0  0  0  0  0  0
  -28.1262  -11.2935   19.1821 H   0  0  0  0  0  0
  -27.4444  -12.2595   17.8958 H   0  0  0  0  0  0
  -27.4712  -14.2307   19.2589 H   0  0  0  0  0  0
  -28.8588  -12.7093   21.5158 H   0  0  0  0  0  0
  -28.2007  -14.3236   21.6386 H   0  0  0  0  0  0
  -25.2785   -9.5681   22.4766 H   0  0  0  0  0  0
  -24.0011   -7.4638   22.7479 H   0  0  0  0  0  0
  -21.0864   -8.8788   19.8951 H   0  0  0  0  0  0
  -22.3733  -10.9675   19.6163 H   0  0  0  0  0  0
  -21.2014   -7.6150   23.9718 H   0  0  0  0  0  0
  -21.1482   -6.0523   25.9077 H   0  0  0  0  0  0
  -22.0596   -2.7611   23.2844 H   0  0  0  0  0  0
  -22.4027  -11.9823   22.4867 H   0  0  0  0  0  0
  -21.0998  -13.1149   22.2670 H   0  0  0  0  0  0
  -24.6209  -15.8492   20.5359 H   0  0  0  0  0  0
  -26.2318  -15.6442   20.0708 H   0  0  0  0  0  0
  -26.7478  -32.4970   23.0788 H   0  0  0  0  0  0
  -25.0054  -33.9352   25.0062 H   0  0  0  0  0  0
  -22.8275  -31.2434   21.3203 H   0  0  0  0  0  0
  -23.3775  -35.9474   23.3266 H   0  0  0  0  0  0
  -24.3566  -36.8871   22.2076 H   0  0  0  0  0  0
  -23.7240  -37.6323   23.6757 H   0  0  0  0  0  0
  -26.2816  -31.2780   20.6244 H   0  0  0  0  0  0
  -26.9352  -30.6162   22.0758 H   0  0  0  0  0  0
  -28.1644  -28.4238   21.3089 H   0  0  0  0  0  0
  -25.8451  -25.6291   19.0148 H   0  0  0  0  0  0
  -24.0266  -27.2205   18.9401 H   0  0  0  0  0  0
  -23.9274  -30.4665   19.3792 H   0  0  0  0  0  0
  -22.8610  -29.1700   19.8191 H   0  0  0  0  0  0
  -25.1354  -36.1673   25.0775 H   0  0  0  0  0  0
  -21.0053  -28.3400   24.1277 H   0  0  0  0  0  0
  -20.5672  -26.2400   23.3663 H   0  0  0  0  0  0
  -21.6666  -26.7389   22.1220 H   0  0  0  0  0  0
  -19.6937  -25.6266   21.1290 H   0  0  0  0  0  0
  -19.6722  -27.3145   20.6717 H   0  0  0  0  0  0
  -17.4232  -26.6690   21.4023 H   0  0  0  0  0  0
  -18.0351  -26.0107   22.9032 H   0  0  0  0  0  0
  -19.7983  -30.7340   24.2169 H   0  0  0  0  0  0
  -17.5048  -31.6276   24.5167 H   0  0  0  0  0  0
  -15.5385  -30.2966   23.7712 H   0  0  0  0  0  0
  -15.8717  -28.0803   22.7120 H   0  0  0  0  0  0
  -24.5872  -30.7136   25.7606 H   0  0  0  0  0  0
  -24.8827  -32.3029   26.4545 H   0  0  0  0  0  0
  -25.7851  -30.9097   27.0205 H   0  0  0  0  0  0
  -26.3226  -29.6471   24.1547 H   0  0  0  0  0  0
  -27.3960  -29.7285   25.5283 H   0  0  0  0  0  0
  -27.9200  -30.3986   24.0063 H   0  0  0  0  0  0
  -27.2584  -33.3726   26.1887 H   0  0  0  0  0  0
  -28.3953  -32.6816   25.0403 H   0  0  0  0  0  0
  -28.0600  -31.8616   26.5577 H   0  0  0  0  0  0
  -28.2552  -38.0061   24.7514 H   0  0  0  0  0  0
  -28.1091  -36.2584   24.6293 H   0  0  0  0  0  0
  -27.2279  -37.1375   25.8867 H   0  0  0  0  0  0
  -20.9697  -29.8691   21.6550 H   0  0  0  0  0  0
  -26.0103  -38.2712   24.1418 H   0  0  0  0  0  0
  -28.1223  -20.1444   21.1756 H   0  0  0  0  0  0
  -28.0854  -20.1018   19.4687 H   0  0  0  0  0  0
  -30.4893  -18.8100   21.1578 H   0  0  0  0  0  0
  -30.4460  -18.7603   19.4504 H   0  0  0  0  0  0
  -27.2460  -23.6643   20.9337 H   0  0  0  0  0  0
  -27.4464  -23.7217   19.2381 H   0  0  0  0  0  0
  -29.6651  -22.3526   21.1165 H   0  0  0  0  0  0
  -28.5932  -16.6931   20.4696 H   0  0  0  0  0  0
  -30.1749  -23.1686   19.0853 H   0  0  0  0  0  0
  1 25  1  0  0  0
  1 30  2  0  0  0
  1 75  1  0  0  0
  2  3  1  0  0  0
  2 25  1  0  0  0
  2 77  1  0  0  0
  2 78  1  0  0  0
  3  4  1  0  0  0
  3 79  1  0  0  0
  3 80  1  0  0  0
  4  5  1  0  0  0
  4 81  1  0  0  0
  4 82  1  0  0  0
  5  6  1  0  0  0
  5 26  1  0  0  0
  5 83  1  0  0  0
  6 25  1  0  0  0
  6 84  1  0  0  0
  6 85  1  0  0  0
  7  8  2  0  0  0
  7 26  1  0  0  0
  7 29  1  0  0  0
  8  9  1  0  0  0
  8 22  1  0  0  0
  9 10  1  0  0  0
  9 27  2  0  0  0
 10 11  2  0  0  0
 10 15  1  0  0  0
 11 12  1  0  0  0
 11 86  1  0  0  0
 12 13  2  0  0  0
 12 87  1  0  0  0
 13 14  1  0  0  0
 13 31  1  0  0  0
 14 15  2  0  0  0
 14 88  1  0  0  0
 15 89  1  0  0  0
 16 17  2  0  0  0
 16 21  1  0  0  0
 16 31  1  0  0  0
 17 18  1  0  0  0
 17 90  1  0  0  0
 18 19  2  0  0  0
 18 91  1  0  0  0
 19 20  1  0  0  0
 19 24  1  0  0  0
 20 21  2  0  0  0
 20 92  1  0  0  0
 21 23  1  0  0  0
 22 28  1  0  0  0
 22 32  2  0  0  0
 26 27  1  0  0  0
 28 93  1  0  0  0
 28 94  1  0  0  0
 29 95  1  0  0  0
 29 96  1  0  0  0
 33 34  1  0  0  0
 33 66  1  0  0  0
 33 70  2  0  0  0
 34 36  1  0  0  0
 34 59  1  0  0  0
 34 97  1  0  0  0
 35 44  2  0  0  0
 35 45  1  0  0  0
 35 68  1  0  0  0
 36 56  1  0  0  0
 36 98  1  0  0  0
 37 39  1  0  0  0
 37 47  1  0  0  0
 37 66  1  0  0  0
 37 99  1  0  0  0
 38 43  2  0  0  0
 38 46  1  0  0  0
 38 47  1  0  0  0
 39 64  1  0  0  0
 39 67  2  0  0  0
 40 52  1  0  0  0
 40 53  2  0  0  0
 40 58  1  0  0  0
 41100  1  0  0  0
 41101  1  0  0  0
 41102  1  0  0  0
 41 48  1  0  0  0
 42 43  1  0  0  0
 42 66  1  0  0  0
 42103  1  0  0  0
 42104  1  0  0  0
 43 44  1  0  0  0
 44105  1  0  0  0
 45 46  2  0  0  0
 45106  1  0  0  0
 46107  1  0  0  0
 47108  1  0  0  0
 47109  1  0  0  0
 48 56  1  0  0  0
 48 65  1  0  0  0
 48110  1  0  0  0
 49 50  1  0  0  0
 49 53  1  0  0  0
 49 64  1  0  0  0
 49111  1  0  0  0
 50 51  1  0  0  0
 50112  1  0  0  0
 50113  1  0  0  0
 51 52  1  0  0  0
 51114  1  0  0  0
 51115  1  0  0  0
 52116  1  0  0  0
 52117  1  0  0  0
 53 54  1  0  0  0
 54 55  2  0  0  0
 54118  1  0  0  0
 55 57  1  0  0  0
 55119  1  0  0  0
 56 69  2  0  0  0
 57 58  2  0  0  0
 57120  1  0  0  0
 58121  1  0  0  0
 59 60  1  0  0  0
 59 61  1  0  0  0
 59 62  1  0  0  0
 60122  1  0  0  0
 60123  1  0  0  0
 60124  1  0  0  0
 61125  1  0  0  0
 61126  1  0  0  0
 61127  1  0  0  0
 62128  1  0  0  0
 62129  1  0  0  0
 62130  1  0  0  0
 63 65  1  0  0  0
 63131  1  0  0  0
 63132  1  0  0  0
 63133  1  0  0  0
 64134  1  0  0  0
 65135  1  0  0  0
 68 73  1  0  0  0
 71 72  1  0  0  0
 71 74  1  0  0  0
 71136  1  0  0  0
 71137  1  0  0  0
 72 75  1  0  0  0
 72138  1  0  0  0
 72139  1  0  0  0
 73 74  1  0  0  0
 73140  1  0  0  0
 73141  1  0  0  0
 74 76  1  0  0  0
 74142  1  0  0  0
 75143  1  0  0  0
 76144  1  0  0  0
M  ISO  4   1 100  68 101  73 101  75 100
M  END
> <chiral flag>
0

> <version>
0

> <s_m_source_file>
/data/baiqing/PycharmProjects/Reinvent-master-3.2/result/LINK_invent/BTK/process_docking_weight1_custom_sum_contain_oxygen_bond_distance_aromatic_linkinvent_7_9_3/rearranged_h_0099.sdf

> <i_m_source_file_index>
6

> <r_mmod_Potential_Energy-OPLS-2005>
2239.58666992188

> <r_mmod_Stretch_Energy-OPLS-2005>
1091.81201171875

> <r_mmod_Bend_Energy-OPLS-2005>
600.590209960938

> <r_mmod_Torsional_Energy-OPLS-2005>
218.038665771484

> <r_mmod_Improper_Torsional_Energy-OPLS-2005>
3.67980623245239

> <r_mmod_Van_der_Waal_Energy-OPLS-2005>
109.254440307617

> <r_mmod_Electrostatic_Energy-OPLS-2005>
-341.275695800781

> <r_mmod_Solvation_Energy-OPLS-2005>
-238.98649597168

> <b_mmod_Minimization_Converged-OPLS-2005>
0

> <r_mmod_RMS_Derivative-OPLS-2005>
0.124971769750118

$$$$
6
                    3D
 Structure written by MMmdl.
177185  0  0  1  0            999 V2000
  -30.5798  -14.8068   20.4609 C   0  0  0  0  0  0
  -30.4390  -12.4908   19.4985 C   0  0  0  0  0  0
  -29.5287  -12.5251   18.2508 C   0  0  0  0  0  0
  -28.0546  -12.3322   18.6519 C   0  0  0  0  0  0
  -27.6432  -13.2344   19.8466 C   0  0  2  0  0  0
  -28.6805  -13.1929   20.9922 C   0  0  0  0  0  0
  -25.2523  -13.8192   20.5675 C   0  0  0  0  0  0
  -24.1820  -13.0425   20.9168 C   0  0  0  0  0  0
  -24.6389  -11.6917   20.8695 C   0  0  0  0  0  0
  -23.9043  -10.4305   21.0332 C   0  0  0  0  0  0
  -24.3618   -9.4239   21.9114 C   0  0  0  0  0  0
  -23.6316   -8.2268   22.0715 C   0  0  0  0  0  0
  -22.4290   -8.0271   21.3524 C   0  0  0  0  0  0
  -21.9895   -9.0220   20.4605 C   0  0  0  0  0  0
  -22.7198  -10.2113   20.2998 C   0  0  0  0  0  0
  -21.6880   -6.0713   22.5267 C   0  0  0  0  0  0
  -21.4031   -6.5623   23.8190 C   0  0  0  0  0  0
  -21.3668   -5.6773   24.9148 C   0  0  0  0  0  0
  -21.6042   -4.3031   24.7201 C   0  0  0  0  0  0
  -21.8830   -3.8119   23.4325 C   0  0  0  0  0  0
  -21.9209   -4.6946   22.3378 C   0  0  0  0  0  0
  -22.7835  -13.5223   21.1835 C   0  0  0  0  0  0
  -22.1670   -4.2126   21.0956 F   0  0  0  0  0  0
  -21.5624   -3.4519   25.7711 F   0  0  0  0  0  0
  -29.9835  -13.5606   20.4237 N   0  0  0  0  0  0
  -26.2947  -12.9388   20.3208 N   0  0  0  0  0  0
  -25.9329  -11.6532   20.5678 N   0  0  0  0  0  0
  -22.0484  -12.8231   22.0391 N   0  0  0  0  0  0
  -25.4177  -15.1940   20.4188 N   0  0  0  0  0  0
  -31.7501  -14.9235   20.0891 O   0  0  0  0  0  0
  -21.6668   -6.8859   21.4232 O   0  0  0  0  0  0
  -22.3514  -14.5492   20.6623 O   0  0  0  0  0  0
  -24.6354  -31.8542   23.1942 C   0  0  0  0  0  0
  -25.9164  -32.4738   23.8305 C   0  0  1  0  0  0
  -27.2164  -27.2086   20.1401 C   0  0  0  0  0  0
  -25.5953  -33.8542   24.2227 N   0  0  0  0  0  0
  -23.4374  -30.4724   21.5415 C   0  0  2  0  0  0
  -24.8862  -28.9170   20.1082 C   0  0  0  0  0  0
  -22.7547  -29.4573   22.4919 C   0  0  0  0  0  0
  -18.0307  -28.1394   22.8480 C   0  0  0  0  0  0
  -24.1508  -36.7266   23.2631 C   0  0  0  0  0  0
  -25.9897  -30.7474   21.3878 C   0  0  0  0  0  0
  -26.0607  -29.3658   20.7255 C   0  0  0  0  0  0
  -27.2262  -28.5259   20.7294 C   0  0  0  0  0  0
  -26.0245  -26.8558   19.4663 C   0  0  0  0  0  0
  -24.8778  -27.6731   19.4634 C   0  0  0  0  0  0
  -23.6599  -29.8095   20.1563 C   0  0  0  0  0  0
  -25.4143  -36.3063   24.0311 C   0  0  1  0  0  0
  -20.5912  -28.3703   23.1274 C   0  0  2  0  0  0
  -20.6796  -26.9415   22.5425 C   0  0  0  0  0  0
  -19.5777  -26.6386   21.5225 C   0  0  0  0  0  0
  -18.1945  -26.7942   22.1609 C   0  0  0  0  0  0
  -19.1557  -28.8875   23.2866 C   0  0  0  0  0  0
  -18.9463  -30.1471   23.8886 C   0  0  0  0  0  0
  -17.6460  -30.6590   24.0561 C   0  0  0  0  0  0
  -25.9085  -34.9432   23.5088 C   0  0  0  0  0  0
  -16.5351  -29.9080   23.6326 C   0  0  0  0  0  0
  -16.7286  -28.6511   23.0335 C   0  0  0  0  0  0
  -26.4491  -31.6552   25.0712 C   0  0  0  0  0  0
  -25.3685  -31.3745   26.1420 C   0  0  0  0  0  0
  -27.0290  -30.2931   24.6249 C   0  0  0  0  0  0
  -27.6088  -32.4251   25.7466 C   0  0  0  0  0  0
  -27.5603  -37.1798   24.8464 C   0  0  0  0  0  0
  -21.4253  -29.3030   22.3656 N   0  0  0  0  0  0
  -26.4317  -37.3768   23.9391 N   0  0  0  0  0  0
  -24.7064  -31.0442   22.0965 N   0  0  0  0  0  0
  -23.4221  -28.8128   23.3062 O   0  0  0  0  0  0
  -28.2796  -26.2620   20.2451 O   0  0  0  0  0  0
  -26.5669  -34.8926   22.4663 O   0  0  0  0  0  0
  -23.5490  -32.1398   23.7206 O   0  0  0  0  0  0
  -28.4943  -18.0543   19.9271 C   0  0  0  0  0  0
  -30.3852  -18.5057   21.3344 C   0  0  0  0  0  0
  -28.4927  -19.5610   19.4169 C   0  0  0  0  0  0
  -30.3784  -20.0495   20.8611 C   0  0  0  0  0  0
  -29.8790  -17.4268   20.3002 C   0  0  1  0  0  0
  -31.2978  -23.2313   16.6173 C   0  0  0  0  0  0
  -28.8107  -22.9425   16.5936 C   0  0  0  0  0  0
  -30.9486  -24.8669   20.9992 C   0  0  0  0  0  0
  -29.5901  -24.0025   22.9926 C   0  0  0  0  0  0
  -30.2052  -22.2352   18.6570 C   0  0  0  0  0  0
  -28.0347  -24.7762   19.9707 C   0  0  0  0  0  0
  -30.0313  -23.2377   17.4872 C   0  0  0  0  0  0
  -30.0121  -23.7598   21.5242 C   0  0  0  0  0  0
  -28.8002  -23.4393   20.6004 C   0  0  2  0  0  0
  -29.0444  -22.0726   19.6909 C   0  0  2  0  0  0
  -29.7805  -15.9278   20.7121 N   0  0  0  0  0  0
  -29.0737  -20.6224   20.3286 N   0  3  1  0  0  0
  -31.4830  -12.6220   19.2071 H   0  0  0  0  0  0
  -30.3811  -11.5157   19.9857 H   0  0  0  0  0  0
  -29.8289  -11.7516   17.5448 H   0  0  0  0  0  0
  -29.6509  -13.4813   17.7358 H   0  0  0  0  0  0
  -27.9250  -11.2828   18.9229 H   0  0  0  0  0  0
  -27.4003  -12.5094   17.7946 H   0  0  0  0  0  0
  -27.6293  -14.2519   19.4558 H   0  0  0  0  0  0
  -28.7248  -12.1994   21.4440 H   0  0  0  0  0  0
  -28.3981  -13.8846   21.7869 H   0  0  0  0  0  0
  -25.2757   -9.5751   22.4689 H   0  0  0  0  0  0
  -24.0012   -7.4684   22.7464 H   0  0  0  0  0  0
  -21.0798   -8.8707   19.8975 H   0  0  0  0  0  0
  -22.3581  -10.9630   19.6119 H   0  0  0  0  0  0
  -21.2038   -7.6128   23.9684 H   0  0  0  0  0  0
  -21.1480   -6.0494   25.9040 H   0  0  0  0  0  0
  -22.0615   -2.7588   23.2823 H   0  0  0  0  0  0
  -22.4107  -11.9951   22.4880 H   0  0  0  0  0  0
  -21.1072  -13.1217   22.2513 H   0  0  0  0  0  0
  -24.6426  -15.8376   20.5358 H   0  0  0  0  0  0
  -26.2597  -15.6462   20.0892 H   0  0  0  0  0  0
  -26.7254  -32.5372   23.1063 H   0  0  0  0  0  0
  -25.0052  -33.9680   25.0335 H   0  0  0  0  0  0
  -22.7376  -31.2965   21.3941 H   0  0  0  0  0  0
  -23.3803  -35.9557   23.3254 H   0  0  0  0  0  0
  -24.3603  -36.8929   22.2056 H   0  0  0  0  0  0
  -23.7239  -37.6443   23.6678 H   0  0  0  0  0  0
  -26.1480  -31.5073   20.6213 H   0  0  0  0  0  0
  -26.8585  -30.7858   22.0314 H   0  0  0  0  0  0
  -28.1187  -28.8637   21.2371 H   0  0  0  0  0  0
  -25.9402  -25.9144   18.9454 H   0  0  0  0  0  0
  -23.9862  -27.3301   18.9566 H   0  0  0  0  0  0
  -23.7934  -30.5886   19.4052 H   0  0  0  0  0  0
  -22.7775  -29.2494   19.8432 H   0  0  0  0  0  0
  -25.1336  -36.1903   25.0806 H   0  0  0  0  0  0
  -20.9987  -28.3266   24.1400 H   0  0  0  0  0  0
  -20.5698  -26.2307   23.3624 H   0  0  0  0  0  0
  -21.6662  -26.7449   22.1211 H   0  0  0  0  0  0
  -19.6923  -25.6294   21.1262 H   0  0  0  0  0  0
  -19.6715  -27.3191   20.6751 H   0  0  0  0  0  0
  -17.4227  -26.6712   21.3987 H   0  0  0  0  0  0
  -18.0302  -26.0084   22.8997 H   0  0  0  0  0  0
  -19.7935  -30.7298   24.2240 H   0  0  0  0  0  0
  -17.5003  -31.6262   24.5167 H   0  0  0  0  0  0
  -15.5346  -30.2965   23.7680 H   0  0  0  0  0  0
  -15.8685  -28.0833   22.7024 H   0  0  0  0  0  0
  -24.5877  -30.7079   25.7728 H   0  0  0  0  0  0
  -24.8862  -32.2932   26.4779 H   0  0  0  0  0  0
  -25.7973  -30.8962   27.0236 H   0  0  0  0  0  0
  -26.2851  -29.6714   24.1268 H   0  0  0  0  0  0
  -27.3888  -29.7181   25.4789 H   0  0  0  0  0  0
  -27.8782  -30.4120   23.9525 H   0  0  0  0  0  0
  -27.2738  -33.3555   26.2053 H   0  0  0  0  0  0
  -28.3887  -32.6786   25.0273 H   0  0  0  0  0  0
  -28.0754  -31.8357   26.5371 H   0  0  0  0  0  0
  -28.2632  -38.0086   24.7512 H   0  0  0  0  0  0
  -28.1104  -36.2635   24.6292 H   0  0  0  0  0  0
  -27.2329  -37.1444   25.8868 H   0  0  0  0  0  0
  -20.9453  -29.8726   21.6827 H   0  0  0  0  0  0
  -26.0204  -38.2840   24.1370 H   0  0  0  0  0  0
  -28.0332  -17.4390   19.1515 H   0  0  0  0  0  0
  -27.8287  -17.9892   20.7884 H   0  0  0  0  0  0
  -29.7932  -18.4281   22.2468 H   0  0  0  0  0  0
  -31.4018  -18.2475   21.6367 H   0  0  0  0  0  0
  -27.4599  -19.8346   19.1944 H   0  0  0  0  0  0
  -29.0197  -19.5781   18.4642 H   0  0  0  0  0  0
  -31.1600  -20.1730   20.1141 H   0  0  0  0  0  0
  -30.6905  -20.6580   21.7087 H   0  0  0  0  0  0
  -30.5264  -17.4683   19.4229 H   0  0  0  0  0  0
  -31.2263  -23.9527   15.8016 H   0  0  0  0  0  0
  -31.4613  -22.2485   16.1727 H   0  0  0  0  0  0
  -32.1862  -23.4802   17.1981 H   0  0  0  0  0  0
  -28.8636  -21.9426   16.1652 H   0  0  0  0  0  0
  -28.7549  -23.6461   15.7621 H   0  0  0  0  0  0
  -27.8653  -23.0262   17.1274 H   0  0  0  0  0  0
  -31.9058  -24.8481   21.5217 H   0  0  0  0  0  0
  -30.5331  -25.8627   21.1472 H   0  0  0  0  0  0
  -31.1618  -24.7518   19.9361 H   0  0  0  0  0  0
  -30.4590  -24.0636   23.6491 H   0  0  0  0  0  0
  -28.9756  -23.1893   23.3811 H   0  0  0  0  0  0
  -29.0178  -24.9224   23.1117 H   0  0  0  0  0  0
  -31.1178  -22.4843   19.1990 H   0  0  0  0  0  0
  -30.4119  -21.2712   18.1954 H   0  0  0  0  0  0
  -27.0043  -24.6004   20.2762 H   0  0  0  0  0  0
  -28.0029  -24.6723   18.8896 H   0  0  0  0  0  0
  -29.9330  -24.2464   17.8856 H   0  0  0  0  0  0
  -30.6287  -22.8642   21.5565 H   0  0  0  0  0  0
  -28.0415  -23.0615   21.2875 H   0  0  0  0  0  0
  -28.1235  -22.0314   19.1075 H   0  0  0  0  0  0
  -28.8702  -15.6650   21.0556 H   0  0  0  0  0  0
  -28.4425  -20.6653   21.1154 H   0  0  0  0  0  0
  1 25  1  0  0  0
  1 30  2  0  0  0
  1 86  1  0  0  0
  2  3  1  0  0  0
  2 25  1  0  0  0
  2 88  1  0  0  0
  2 89  1  0  0  0
  3  4  1  0  0  0
  3 90  1  0  0  0
  3 91  1  0  0  0
  4  5  1  0  0  0
  4 92  1  0  0  0
  4 93  1  0  0  0
  5  6  1  0  0  0
  5 26  1  0  0  0
  5 94  1  0  0  0
  6 25  1  0  0  0
  6 95  1  0  0  0
  6 96  1  0  0  0
  7  8  2  0  0  0
  7 26  1  0  0  0
  7 29  1  0  0  0
  8  9  1  0  0  0
  8 22  1  0  0  0
  9 10  1  0  0  0
  9 27  2  0  0  0
 10 11  2  0  0  0
 10 15  1  0  0  0
 11 12  1  0  0  0
 11 97  1  0  0  0
 12 13  2  0  0  0
 12 98  1  0  0  0
 13 14  1  0  0  0
 13 31  1  0  0  0
 14 15  2  0  0  0
 14 99  1  0  0  0
 15100  1  0  0  0
 16 17  2  0  0  0
 16 21  1  0  0  0
 16 31  1  0  0  0
 17 18  1  0  0  0
 17101  1  0  0  0
 18 19  2  0  0  0
 18102  1  0  0  0
 19 20  1  0  0  0
 19 24  1  0  0  0
 20 21  2  0  0  0
 20103  1  0  0  0
 21 23  1  0  0  0
 22 28  1  0  0  0
 22 32  2  0  0  0
 26 27  1  0  0  0
 28104  1  0  0  0
 28105  1  0  0  0
 29106  1  0  0  0
 29107  1  0  0  0
 33 34  1  0  0  0
 33 66  1  0  0  0
 33 70  2  0  0  0
 34 36  1  0  0  0
 34 59  1  0  0  0
 34108  1  0  0  0
 35 44  2  0  0  0
 35 45  1  0  0  0
 35 68  1  0  0  0
 36 56  1  0  0  0
 36109  1  0  0  0
 37 39  1  0  0  0
 37 47  1  0  0  0
 37 66  1  0  0  0
 37110  1  0  0  0
 38 43  2  0  0  0
 38 46  1  0  0  0
 38 47  1  0  0  0
 39 64  1  0  0  0
 39 67  2  0  0  0
 40 52  1  0  0  0
 40 53  2  0  0  0
 40 58  1  0  0  0
 41111  1  0  0  0
 41112  1  0  0  0
 41113  1  0  0  0
 41 48  1  0  0  0
 42 43  1  0  0  0
 42 66  1  0  0  0
 42114  1  0  0  0
 42115  1  0  0  0
 43 44  1  0  0  0
 44116  1  0  0  0
 45 46  2  0  0  0
 45117  1  0  0  0
 46118  1  0  0  0
 47119  1  0  0  0
 47120  1  0  0  0
 48 56  1  0  0  0
 48 65  1  0  0  0
 48121  1  0  0  0
 49 50  1  0  0  0
 49 53  1  0  0  0
 49 64  1  0  0  0
 49122  1  0  0  0
 50 51  1  0  0  0
 50123  1  0  0  0
 50124  1  0  0  0
 51 52  1  0  0  0
 51125  1  0  0  0
 51126  1  0  0  0
 52127  1  0  0  0
 52128  1  0  0  0
 53 54  1  0  0  0
 54 55  2  0  0  0
 54129  1  0  0  0
 55 57  1  0  0  0
 55130  1  0  0  0
 56 69  2  0  0  0
 57 58  2  0  0  0
 57131  1  0  0  0
 58132  1  0  0  0
 59 60  1  0  0  0
 59 61  1  0  0  0
 59 62  1  0  0  0
 60133  1  0  0  0
 60134  1  0  0  0
 60135  1  0  0  0
 61136  1  0  0  0
 61137  1  0  0  0
 61138  1  0  0  0
 62139  1  0  0  0
 62140  1  0  0  0
 62141  1  0  0  0
 63 65  1  0  0  0
 63142  1  0  0  0
 63143  1  0  0  0
 63144  1  0  0  0
 64145  1  0  0  0
 65146  1  0  0  0
 68 81  1  0  0  0
 71 73  1  0  0  0
 71 75  1  0  0  0
 71147  1  0  0  0
 71148  1  0  0  0
 72 74  1  0  0  0
 72 75  1  0  0  0
 72149  1  0  0  0
 72150  1  0  0  0
 73151  1  0  0  0
 73152  1  0  0  0
 73 87  1  0  0  0
 74 87  1  0  0  0
 74153  1  0  0  0
 74154  1  0  0  0
 75 86  1  0  0  0
 75155  1  0  0  0
 76156  1  0  0  0
 76157  1  0  0  0
 76158  1  0  0  0
 76 82  1  0  0  0
 77 82  1  0  0  0
 77159  1  0  0  0
 77160  1  0  0  0
 77161  1  0  0  0
 78162  1  0  0  0
 78163  1  0  0  0
 78164  1  0  0  0
 78 83  1  0  0  0
 79 83  1  0  0  0
 79165  1  0  0  0
 79166  1  0  0  0
 79167  1  0  0  0
 80 82  1  0  0  0
 80168  1  0  0  0
 80169  1  0  0  0
 80 85  1  0  0  0
 81170  1  0  0  0
 81171  1  0  0  0
 81 84  1  0  0  0
 82172  1  0  0  0
 83 84  1  0  0  0
 83173  1  0  0  0
 84 85  1  0  0  0
 84174  1  0  0  0
 85 87  1  0  0  0
 85175  1  0  0  0
 86176  1  0  0  0
 87177  1  0  0  0
M  CHG  1  87   1
M  ISO  4   1 100  68 101  81 101  86 100
M  END
> <chiral flag>
0

> <version>
0

> <s_m_source_file>
/data/baiqing/PycharmProjects/Reinvent-master-3.2/result/LINK_invent/BTK/process_docking_weight1_custom_sum_contain_oxygen_bond_distance_aromatic_linkinvent_7_9_3/rearranged_h_0099.sdf

> <i_m_source_file_index>
7

> <r_mmod_Potential_Energy-OPLS-2005>
356.512512207031

> <r_mmod_Stretch_Energy-OPLS-2005>
180.913223266602

> <r_mmod_Bend_Energy-OPLS-2005>
248.582443237305

> <r_mmod_Torsional_Energy-OPLS-2005>
299.279144287109

> <r_mmod_Improper_Torsional_Energy-OPLS-2005>
5.35158681869507

> <r_mmod_Van_der_Waal_Energy-OPLS-2005>
118.851982116699

> <r_mmod_Electrostatic_Energy-OPLS-2005>
-175.449676513672

> <r_mmod_Solvation_Energy-OPLS-2005>
-442.053527832031

> <b_mmod_Minimization_Converged-OPLS-2005>
0

> <r_mmod_RMS_Derivative-OPLS-2005>
4.32700777053833

$$$$
7
                    3D
 Structure written by MMmdl.
175183  0  0  1  0            999 V2000
  -30.6863  -14.5651   20.5114 C   0  0  0  0  0  0
  -30.4212  -12.3482   19.4417 C   0  0  0  0  0  0
  -29.4988  -12.4947   18.2144 C   0  0  0  0  0  0
  -28.0220  -12.3465   18.6279 C   0  0  0  0  0  0
  -27.6526  -13.2183   19.8601 C   0  0  2  0  0  0
  -28.6983  -13.0737   20.9881 C   0  0  0  0  0  0
  -25.2557  -13.8179   20.5685 C   0  0  0  0  0  0
  -24.1828  -13.0440   20.9200 C   0  0  0  0  0  0
  -24.6408  -11.6917   20.8741 C   0  0  0  0  0  0
  -23.9072  -10.4288   21.0397 C   0  0  0  0  0  0
  -24.3630   -9.4208   21.9178 C   0  0  0  0  0  0
  -23.6309   -8.2243   22.0752 C   0  0  0  0  0  0
  -22.4280   -8.0282   21.3554 C   0  0  0  0  0  0
  -21.9919   -9.0247   20.4647 C   0  0  0  0  0  0
  -22.7245  -10.2129   20.3052 C   0  0  0  0  0  0
  -21.6854   -6.0737   22.5281 C   0  0  0  0  0  0
  -21.4000   -6.5632   23.8217 C   0  0  0  0  0  0
  -21.3664   -5.6785   24.9178 C   0  0  0  0  0  0
  -21.6055   -4.3053   24.7225 C   0  0  0  0  0  0
  -21.8812   -3.8153   23.4344 C   0  0  0  0  0  0
  -21.9193   -4.6967   22.3402 C   0  0  0  0  0  0
  -22.7848  -13.5232   21.1879 C   0  0  0  0  0  0
  -22.1658   -4.2155   21.0980 F   0  0  0  0  0  0
  -21.5650   -3.4541   25.7736 F   0  0  0  0  0  0
  -30.0176  -13.3789   20.4164 N   0  0  0  0  0  0
  -26.2991  -12.9381   20.3321 N   0  0  0  0  0  0
  -25.9334  -11.6523   20.5748 N   0  0  0  0  0  0
  -22.0496  -12.8206   22.0422 N   0  0  0  0  0  0
  -25.4257  -15.1898   20.4063 N   0  0  0  0  0  0
  -31.8532  -14.6831   20.1310 O   0  0  0  0  0  0
  -21.6657   -6.8877   21.4237 O   0  0  0  0  0  0
  -22.3526  -14.5537   20.6728 O   0  0  0  0  0  0
  -24.6244  -31.8634   23.2066 C   0  0  0  0  0  0
  -25.9101  -32.4799   23.8380 C   0  0  1  0  0  0
  -27.2273  -27.3546   20.0890 C   0  0  0  0  0  0
  -25.5956  -33.8600   24.2310 N   0  0  0  0  0  0
  -23.4171  -30.4885   21.5468 C   0  0  2  0  0  0
  -24.8613  -28.9522   20.1050 C   0  0  0  0  0  0
  -22.7479  -29.4643   22.4939 C   0  0  0  0  0  0
  -18.0284  -28.1370   22.8502 C   0  0  0  0  0  0
  -24.1474  -36.7259   23.2642 C   0  0  0  0  0  0
  -25.9552  -30.7951   21.3811 C   0  0  0  0  0  0
  -26.0243  -29.4262   20.7229 C   0  0  0  0  0  0
  -27.2029  -28.6289   20.7261 C   0  0  0  0  0  0
  -26.0498  -26.9400   19.4312 C   0  0  0  0  0  0
  -24.8731  -27.7081   19.4557 C   0  0  0  0  0  0
  -23.6295  -29.8291   20.1583 C   0  0  0  0  0  0
  -25.4105  -36.3086   24.0330 C   0  0  1  0  0  0
  -20.5894  -28.3679   23.1270 C   0  0  2  0  0  0
  -20.6773  -26.9400   22.5404 C   0  0  0  0  0  0
  -19.5739  -26.6362   21.5221 C   0  0  0  0  0  0
  -18.1922  -26.7914   22.1628 C   0  0  0  0  0  0
  -19.1545  -28.8838   23.2891 C   0  0  0  0  0  0
  -18.9484  -30.1443   23.8904 C   0  0  0  0  0  0
  -17.6480  -30.6585   24.0565 C   0  0  0  0  0  0
  -25.9062  -34.9468   23.5110 C   0  0  0  0  0  0
  -16.5373  -29.9085   23.6342 C   0  0  0  0  0  0
  -16.7277  -28.6490   23.0372 C   0  0  0  0  0  0
  -26.4512  -31.6617   25.0748 C   0  0  0  0  0  0
  -25.3774  -31.3746   26.1506 C   0  0  0  0  0  0
  -27.0373  -30.3063   24.6174 C   0  0  0  0  0  0
  -27.6082  -32.4368   25.7494 C   0  0  0  0  0  0
  -27.5576  -37.1777   24.8475 C   0  0  0  0  0  0
  -21.4198  -29.3044   22.3673 N   0  0  0  0  0  0
  -26.4273  -37.3795   23.9444 N   0  0  0  0  0  0
  -24.6833  -31.0657   22.1006 N   0  0  0  0  0  0
  -23.4217  -28.8182   23.3006 O   0  0  0  0  0  0
  -28.3483  -26.5252   20.1718 O   0  0  0  0  0  0
  -26.5609  -34.8929   22.4661 O   0  0  0  0  0  0
  -23.5405  -32.1436   23.7387 O   0  0  0  0  0  0
  -28.2167  -20.9279   22.4843 C   0  0  0  0  0  0
  -28.4727  -18.7229   22.5591 C   0  0  0  0  0  0
  -27.9723  -19.7706   23.2785 C   0  0  0  0  0  0
  -28.8130  -20.5758   21.3010 C   0  0  0  0  0  0
  -26.3202  -18.4963   24.6716 C   0  0  0  0  0  0
  -26.4797  -20.9795   24.9154 C   0  0  0  0  0  0
  -28.3477  -19.5164   25.7335 C   0  0  0  0  0  0
  -26.8542  -23.6634   19.3030 C   0  0  0  0  0  0
  -28.8450  -23.4530   17.8087 C   0  0  0  0  0  0
  -29.1373  -21.4916   20.1160 C   0  0  0  0  0  0
  -29.0968  -23.0835   20.3060 C   0  0  0  0  0  0
  -29.5211  -18.2114   20.3510 C   0  0  0  0  0  0
  -30.4635  -17.0718   20.9123 C   0  0  0  0  0  0
  -28.6583  -25.5342   19.1450 C   0  0  0  0  0  0
  -27.2863  -19.6960   24.6358 C   0  0  0  0  0  0
  -28.3639  -23.9527   19.1964 C   0  0  0  0  0  0
  -28.9931  -19.1665   21.3559 N   0  0  0  0  0  0
  -29.9630  -15.6629   20.8599 N   0  0  0  0  0  0
  -31.4667  -12.4375   19.1417 H   0  0  0  0  0  0
  -30.3255  -11.3531   19.8796 H   0  0  0  0  0  0
  -29.7523  -11.7511   17.4571 H   0  0  0  0  0  0
  -29.6544  -13.4694   17.7514 H   0  0  0  0  0  0
  -27.8483  -11.2935   18.8495 H   0  0  0  0  0  0
  -27.3719  -12.5886   17.7864 H   0  0  0  0  0  0
  -27.6713  -14.2540   19.5218 H   0  0  0  0  0  0
  -28.6936  -12.0573   21.3850 H   0  0  0  0  0  0
  -28.4627  -13.7282   21.8292 H   0  0  0  0  0  0
  -25.2768   -9.5703   22.4762 H   0  0  0  0  0  0
  -24.0033   -7.4626   22.7452 H   0  0  0  0  0  0
  -21.0871   -8.8744   19.8933 H   0  0  0  0  0  0
  -22.3693  -10.9669   19.6165 H   0  0  0  0  0  0
  -21.1954   -7.6132   23.9720 H   0  0  0  0  0  0
  -21.1512   -6.0519   25.9087 H   0  0  0  0  0  0
  -22.0592   -2.7619   23.2843 H   0  0  0  0  0  0
  -22.4105  -11.9863   22.4799 H   0  0  0  0  0  0
  -21.1094  -13.1212   22.2593 H   0  0  0  0  0  0
  -24.6608  -15.8458   20.5181 H   0  0  0  0  0  0
  -26.2724  -15.6290   20.0692 H   0  0  0  0  0  0
  -26.7155  -32.5477   23.1115 H   0  0  0  0  0  0
  -25.0222  -33.9763   25.0536 H   0  0  0  0  0  0
  -22.7120  -31.3102   21.4067 H   0  0  0  0  0  0
  -23.3767  -35.9565   23.3298 H   0  0  0  0  0  0
  -24.3559  -36.8878   22.2062 H   0  0  0  0  0  0
  -23.7182  -37.6432   23.6664 H   0  0  0  0  0  0
  -26.0925  -31.5564   20.6123 H   0  0  0  0  0  0
  -26.8342  -30.8368   22.0119 H   0  0  0  0  0  0
  -28.0917  -28.9839   21.2298 H   0  0  0  0  0  0
  -26.0091  -26.0135   18.8947 H   0  0  0  0  0  0
  -23.9867  -27.3418   18.9569 H   0  0  0  0  0  0
  -23.7495  -30.6102   19.4064 H   0  0  0  0  0  0
  -22.7499  -29.2601   19.8527 H   0  0  0  0  0  0
  -25.1266  -36.1941   25.0816 H   0  0  0  0  0  0
  -21.0012  -28.3236   24.1375 H   0  0  0  0  0  0
  -20.5686  -26.2294   23.3606 H   0  0  0  0  0  0
  -21.6635  -26.7413   22.1190 H   0  0  0  0  0  0
  -19.6906  -25.6275   21.1239 H   0  0  0  0  0  0
  -19.6664  -27.3186   20.6763 H   0  0  0  0  0  0
  -17.4200  -26.6701   21.4016 H   0  0  0  0  0  0
  -18.0295  -26.0033   22.8995 H   0  0  0  0  0  0
  -19.7967  -30.7267   24.2260 H   0  0  0  0  0  0
  -17.5045  -31.6281   24.5147 H   0  0  0  0  0  0
  -15.5380  -30.3006   23.7646 H   0  0  0  0  0  0
  -15.8668  -28.0817   22.7098 H   0  0  0  0  0  0
  -24.5934  -30.7093   25.7867 H   0  0  0  0  0  0
  -24.8989  -32.2906   26.4983 H   0  0  0  0  0  0
  -25.8134  -30.8916   27.0263 H   0  0  0  0  0  0
  -26.2942  -29.6803   24.1220 H   0  0  0  0  0  0
  -27.4139  -29.7322   25.4651 H   0  0  0  0  0  0
  -27.8776  -30.4381   23.9352 H   0  0  0  0  0  0
  -27.2707  -33.3693   26.2026 H   0  0  0  0  0  0
  -28.3898  -32.6893   25.0319 H   0  0  0  0  0  0
  -28.0741  -31.8535   26.5441 H   0  0  0  0  0  0
  -28.2578  -38.0104   24.7580 H   0  0  0  0  0  0
  -28.1077  -36.2623   24.6210 H   0  0  0  0  0  0
  -27.2294  -37.1324   25.8882 H   0  0  0  0  0  0
  -20.9380  -29.8798   21.6911 H   0  0  0  0  0  0
  -26.0139  -38.2849   24.1519 H   0  0  0  0  0  0
  -27.9317  -21.9341   22.7519 H   0  0  0  0  0  0
  -28.4817  -17.6672   22.7999 H   0  0  0  0  0  0
  -25.5651  -18.5704   23.8879 H   0  0  0  0  0  0
  -25.7975  -18.4359   25.6270 H   0  0  0  0  0  0
  -26.8427  -17.5490   24.5348 H   0  0  0  0  0  0
  -25.7271  -21.1506   24.1444 H   0  0  0  0  0  0
  -27.1199  -21.8615   24.9545 H   0  0  0  0  0  0
  -25.9590  -20.9219   25.8722 H   0  0  0  0  0  0
  -28.9228  -18.6014   25.5855 H   0  0  0  0  0  0
  -27.8913  -19.4569   26.7224 H   0  0  0  0  0  0
  -29.0523  -20.3486   25.7466 H   0  0  0  0  0  0
  -26.6407  -22.5983   19.3928 H   0  0  0  0  0  0
  -26.3173  -24.0033   18.4178 H   0  0  0  0  0  0
  -26.4256  -24.1456   20.1824 H   0  0  0  0  0  0
  -28.5810  -22.4181   17.6002 H   0  0  0  0  0  0
  -29.9283  -23.5362   17.7059 H   0  0  0  0  0  0
  -28.4055  -24.0337   16.9964 H   0  0  0  0  0  0
  -28.4420  -21.1999   19.3334 H   0  0  0  0  0  0
  -30.1188  -21.2281   19.7211 H   0  0  0  0  0  0
  -30.1270  -23.4298   20.4065 H   0  0  0  0  0  0
  -28.6401  -23.3373   21.2599 H   0  0  0  0  0  0
  -28.6718  -17.7686   19.8305 H   0  0  0  0  0  0
  -30.0611  -18.7814   19.5957 H   0  0  0  0  0  0
  -30.7538  -17.2920   21.9396 H   0  0  0  0  0  0
  -31.3983  -17.1357   20.3509 H   0  0  0  0  0  0
  -28.2631  -25.9306   18.2079 H   0  0  0  0  0  0
  -29.7375  -25.6337   19.0221 H   0  0  0  0  0  0
  -28.9990  -15.5059   21.1106 H   0  0  0  0  0  0
  1 25  1  0  0  0
  1 30  2  0  0  0
  1 88  1  0  0  0
  2  3  1  0  0  0
  2 25  1  0  0  0
  2 89  1  0  0  0
  2 90  1  0  0  0
  3  4  1  0  0  0
  3 91  1  0  0  0
  3 92  1  0  0  0
  4  5  1  0  0  0
  4 93  1  0  0  0
  4 94  1  0  0  0
  5  6  1  0  0  0
  5 26  1  0  0  0
  5 95  1  0  0  0
  6 25  1  0  0  0
  6 96  1  0  0  0
  6 97  1  0  0  0
  7  8  2  0  0  0
  7 26  1  0  0  0
  7 29  1  0  0  0
  8  9  1  0  0  0
  8 22  1  0  0  0
  9 10  1  0  0  0
  9 27  2  0  0  0
 10 11  2  0  0  0
 10 15  1  0  0  0
 11 12  1  0  0  0
 11 98  1  0  0  0
 12 13  2  0  0  0
 12 99  1  0  0  0
 13 14  1  0  0  0
 13 31  1  0  0  0
 14 15  2  0  0  0
 14100  1  0  0  0
 15101  1  0  0  0
 16 17  2  0  0  0
 16 21  1  0  0  0
 16 31  1  0  0  0
 17 18  1  0  0  0
 17102  1  0  0  0
 18 19  2  0  0  0
 18103  1  0  0  0
 19 20  1  0  0  0
 19 24  1  0  0  0
 20 21  2  0  0  0
 20104  1  0  0  0
 21 23  1  0  0  0
 22 28  1  0  0  0
 22 32  2  0  0  0
 26 27  1  0  0  0
 28105  1  0  0  0
 28106  1  0  0  0
 29107  1  0  0  0
 29108  1  0  0  0
 33 34  1  0  0  0
 33 66  1  0  0  0
 33 70  2  0  0  0
 34 36  1  0  0  0
 34 59  1  0  0  0
 34109  1  0  0  0
 35 44  2  0  0  0
 35 45  1  0  0  0
 35 68  1  0  0  0
 36 56  1  0  0  0
 36110  1  0  0  0
 37 39  1  0  0  0
 37 47  1  0  0  0
 37 66  1  0  0  0
 37111  1  0  0  0
 38 43  2  0  0  0
 38 46  1  0  0  0
 38 47  1  0  0  0
 39 64  1  0  0  0
 39 67  2  0  0  0
 40 52  1  0  0  0
 40 53  2  0  0  0
 40 58  1  0  0  0
 41112  1  0  0  0
 41113  1  0  0  0
 41114  1  0  0  0
 41 48  1  0  0  0
 42 43  1  0  0  0
 42 66  1  0  0  0
 42115  1  0  0  0
 42116  1  0  0  0
 43 44  1  0  0  0
 44117  1  0  0  0
 45 46  2  0  0  0
 45118  1  0  0  0
 46119  1  0  0  0
 47120  1  0  0  0
 47121  1  0  0  0
 48 56  1  0  0  0
 48 65  1  0  0  0
 48122  1  0  0  0
 49 50  1  0  0  0
 49 53  1  0  0  0
 49 64  1  0  0  0
 49123  1  0  0  0
 50 51  1  0  0  0
 50124  1  0  0  0
 50125  1  0  0  0
 51 52  1  0  0  0
 51126  1  0  0  0
 51127  1  0  0  0
 52128  1  0  0  0
 52129  1  0  0  0
 53 54  1  0  0  0
 54 55  2  0  0  0
 54130  1  0  0  0
 55 57  1  0  0  0
 55131  1  0  0  0
 56 69  2  0  0  0
 57 58  2  0  0  0
 57132  1  0  0  0
 58133  1  0  0  0
 59 60  1  0  0  0
 59 61  1  0  0  0
 59 62  1  0  0  0
 60134  1  0  0  0
 60135  1  0  0  0
 60136  1  0  0  0
 61137  1  0  0  0
 61138  1  0  0  0
 61139  1  0  0  0
 62140  1  0  0  0
 62141  1  0  0  0
 62142  1  0  0  0
 63 65  1  0  0  0
 63143  1  0  0  0
 63144  1  0  0  0
 63145  1  0  0  0
 64146  1  0  0  0
 65147  1  0  0  0
 68 84  1  0  0  0
 71 73  1  0  0  0
 71 74  2  0  0  0
 71148  1  0  0  0
 72 73  2  0  0  0
 72 87  1  0  0  0
 72149  1  0  0  0
 73 85  1  0  0  0
 74 80  1  0  0  0
 74 87  1  0  0  0
 75150  1  0  0  0
 75151  1  0  0  0
 75152  1  0  0  0
 75 85  1  0  0  0
 76 85  1  0  0  0
 76153  1  0  0  0
 76154  1  0  0  0
 76155  1  0  0  0
 77 85  1  0  0  0
 77156  1  0  0  0
 77157  1  0  0  0
 77158  1  0  0  0
 78159  1  0  0  0
 78160  1  0  0  0
 78161  1  0  0  0
 78 86  1  0  0  0
 79 86  1  0  0  0
 79162  1  0  0  0
 79163  1  0  0  0
 79164  1  0  0  0
 80 81  1  0  0  0
 80165  1  0  0  0
 80166  1  0  0  0
 81 86  1  0  0  0
 81167  1  0  0  0
 81168  1  0  0  0
 82 83  1  0  0  0
 82 87  1  0  0  0
 82169  1  0  0  0
 82170  1  0  0  0
 83 88  1  0  0  0
 83171  1  0  0  0
 83172  1  0  0  0
 84 86  1  0  0  0
 84173  1  0  0  0
 84174  1  0  0  0
 88175  1  0  0  0
M  ISO  4   1 100  68 101  84 101  88 100
M  END
> <chiral flag>
0

> <version>
0

> <s_m_source_file>
/data/baiqing/PycharmProjects/Reinvent-master-3.2/result/LINK_invent/BTK/process_docking_weight1_custom_sum_contain_oxygen_bond_distance_aromatic_linkinvent_7_9_3/rearranged_h_0099.sdf

> <i_m_source_file_index>
8

> <r_mmod_Potential_Energy-OPLS-2005>
24.6332302093506

> <r_mmod_Stretch_Energy-OPLS-2005>
71.5898132324219

> <r_mmod_Bend_Energy-OPLS-2005>
171.124237060547

> <r_mmod_Torsional_Energy-OPLS-2005>
244.496520996094

> <r_mmod_Improper_Torsional_Energy-OPLS-2005>
4.53167724609375

> <r_mmod_Van_der_Waal_Energy-OPLS-2005>
133.156860351562

> <r_mmod_Electrostatic_Energy-OPLS-2005>
-438.576354980469

> <r_mmod_Solvation_Energy-OPLS-2005>
-197.176803588867

> <b_mmod_Minimization_Converged-OPLS-2005>
0

> <r_mmod_RMS_Derivative-OPLS-2005>
2.32683682441711

$$$$
8
                    3D
 Structure written by MMmdl.
152159  0  0  1  0            999 V2000
  -30.3228  -15.5985   20.3181 C   0  0  0  0  0  0
  -30.4317  -13.0650   19.4945 C   0  0  0  0  0  0
  -29.5325  -12.6477   18.2953 C   0  0  0  0  0  0
  -28.1069  -12.2971   18.7492 C   0  0  0  0  0  0
  -27.5995  -13.2926   19.8167 C   0  0  2  0  0  0
  -28.6429  -13.5809   20.9252 C   0  0  0  0  0  0
  -25.2265  -13.8181   20.5755 C   0  0  0  0  0  0
  -24.1679  -13.0344   20.9281 C   0  0  0  0  0  0
  -24.6406  -11.6873   20.8800 C   0  0  0  0  0  0
  -23.9112  -10.4236   21.0413 C   0  0  0  0  0  0
  -24.3647   -9.4150   21.9190 C   0  0  0  0  0  0
  -23.6303   -8.2199   22.0760 C   0  0  0  0  0  0
  -22.4281   -8.0257   21.3544 C   0  0  0  0  0  0
  -21.9934   -9.0231   20.4637 C   0  0  0  0  0  0
  -22.7283  -10.2100   20.3046 C   0  0  0  0  0  0
  -21.6840   -6.0726   22.5270 C   0  0  0  0  0  0
  -21.4012   -6.5636   23.8208 C   0  0  0  0  0  0
  -21.3666   -5.6798   24.9170 C   0  0  0  0  0  0
  -21.6039   -4.3060   24.7226 C   0  0  0  0  0  0
  -21.8819   -3.8146   23.4346 C   0  0  0  0  0  0
  -21.9185   -4.6955   22.3402 C   0  0  0  0  0  0
  -22.7687  -13.5090   21.1929 C   0  0  0  0  0  0
  -22.1657   -4.2140   21.0978 F   0  0  0  0  0  0
  -21.5622   -3.4542   25.7740 F   0  0  0  0  0  0
  -29.7968  -14.2335   20.2509 N   0  0  0  0  0  0
  -26.2787  -12.9539   20.3285 N   0  0  0  0  0  0
  -25.9371  -11.6619   20.5786 N   0  0  0  0  0  0
  -22.0390  -12.8063   22.0499 N   0  0  0  0  0  0
  -25.3630  -15.1913   20.4114 N   0  0  0  0  0  0
  -31.5641  -15.5299   20.2093 O   0  0  0  0  0  0
  -21.6626   -6.8861   21.4235 O   0  0  0  0  0  0
  -22.3346  -14.5397   20.6783 O   0  0  0  0  0  0
  -24.6801  -31.8033   23.1556 C   0  0  0  0  0  0
  -25.9386  -32.4488   23.8085 C   0  0  1  0  0  0
  -27.2340  -26.7578   20.1953 C   0  0  0  0  0  0
  -25.5972  -33.8315   24.1970 N   0  0  0  0  0  0
  -23.5052  -30.4080   21.5063 C   0  0  2  0  0  0
  -24.9627  -28.7591   20.1174 C   0  0  0  0  0  0
  -22.7746  -29.4340   22.4707 C   0  0  0  0  0  0
  -18.0348  -28.1443   22.8459 C   0  0  0  0  0  0
  -24.1500  -36.7172   23.2651 C   0  0  0  0  0  0
  -26.0829  -30.5566   21.4099 C   0  0  0  0  0  0
  -26.1517  -29.1274   20.7570 C   0  0  0  0  0  0
  -27.2756  -28.1536   20.7621 C   0  0  0  0  0  0
  -26.0092  -26.5837   19.5051 C   0  0  0  0  0  0
  -24.9268  -27.5125   19.4699 C   0  0  0  0  0  0
  -23.7575  -29.7095   20.1405 C   0  0  0  0  0  0
  -25.4150  -36.2909   24.0282 C   0  0  1  0  0  0
  -20.5974  -28.3808   23.1154 C   0  0  2  0  0  0
  -20.6823  -26.9453   22.5413 C   0  0  0  0  0  0
  -19.5798  -26.6357   21.5244 C   0  0  0  0  0  0
  -18.1992  -26.7948   22.1667 C   0  0  0  0  0  0
  -19.1605  -28.8945   23.2793 C   0  0  0  0  0  0
  -18.9496  -30.1535   23.8830 C   0  0  0  0  0  0
  -17.6480  -30.6616   24.0539 C   0  0  0  0  0  0
  -25.9117  -34.9296   23.4963 C   0  0  0  0  0  0
  -16.5381  -29.9094   23.6346 C   0  0  0  0  0  0
  -16.7323  -28.6526   23.0348 C   0  0  0  0  0  0
  -26.4590  -31.6506   25.0686 C   0  0  0  0  0  0
  -25.3678  -31.3809   26.1316 C   0  0  0  0  0  0
  -27.0495  -30.2849   24.6539 C   0  0  0  0  0  0
  -27.6046  -32.4350   25.7510 C   0  0  0  0  0  0
  -27.5564  -37.1743   24.8466 C   0  0  0  0  0  0
  -21.4399  -29.3053   22.3462 N   0  0  0  0  0  0
  -26.4278  -37.3661   23.9399 N   0  0  0  0  0  0
  -24.7794  -30.9540   22.0771 N   0  0  0  0  0  0
  -23.4216  -28.7920   23.3023 O   0  0  0  0  0  0
  -28.2209  -25.5760   20.2577 O   0  0  0  0  0  0
  -26.5751  -34.8866   22.4573 O   0  0  0  0  0  0
  -23.5821  -32.1062   23.6538 O   0  0  0  0  0  0
  -28.2155  -20.2045   18.7229 C   0  0  0  0  0  0
  -29.7663  -22.3954   21.6448 C   0  0  0  0  0  0
  -28.1174  -16.8472   20.2239 C   0  0  0  0  0  0
  -29.8397  -18.7159   20.3436 C   0  0  0  0  0  0
  -28.0376  -23.8515   20.1361 C   0  0  0  0  0  0
  -28.8188  -20.3320   20.1288 C   0  0  1  0  0  0
  -29.0520  -22.2303   20.3020 C   0  0  2  0  0  0
  -29.5672  -16.9713   20.3111 N   0  0  0  0  0  0
  -31.4075  -13.3519   19.0997 H   0  0  0  0  0  0
  -30.6282  -12.2149   20.1518 H   0  0  0  0  0  0
  -29.9743  -11.8082   17.7568 H   0  0  0  0  0  0
  -29.4844  -13.4736   17.5834 H   0  0  0  0  0  0
  -28.1273  -11.2922   19.1723 H   0  0  0  0  0  0
  -27.4284  -12.2621   17.8956 H   0  0  0  0  0  0
  -27.4642  -14.2199   19.2612 H   0  0  0  0  0  0
  -28.9251  -12.6696   21.4557 H   0  0  0  0  0  0
  -28.2320  -14.2341   21.6920 H   0  0  0  0  0  0
  -25.2779   -9.5610   22.4788 H   0  0  0  0  0  0
  -23.9990   -7.4583   22.7488 H   0  0  0  0  0  0
  -21.0861   -8.8754   19.8941 H   0  0  0  0  0  0
  -22.3742  -10.9650   19.6164 H   0  0  0  0  0  0
  -21.2011   -7.6148   23.9702 H   0  0  0  0  0  0
  -21.1497   -6.0531   25.9075 H   0  0  0  0  0  0
  -22.0596   -2.7605   23.2844 H   0  0  0  0  0  0
  -22.4049  -11.9712   22.4845 H   0  0  0  0  0  0
  -21.0989  -13.1027   22.2725 H   0  0  0  0  0  0
  -24.5782  -15.8211   20.5308 H   0  0  0  0  0  0
  -26.1960  -15.6537   20.0770 H   0  0  0  0  0  0
  -26.7466  -32.4981   23.0798 H   0  0  0  0  0  0
  -25.0023  -33.9370   25.0062 H   0  0  0  0  0  0
  -22.8285  -31.2449   21.3198 H   0  0  0  0  0  0
  -23.3761  -35.9496   23.3273 H   0  0  0  0  0  0
  -24.3571  -36.8872   22.2071 H   0  0  0  0  0  0
  -23.7264  -37.6347   23.6754 H   0  0  0  0  0  0
  -26.2768  -31.2860   20.6222 H   0  0  0  0  0  0
  -26.9367  -30.6243   22.0722 H   0  0  0  0  0  0
  -28.1762  -28.4431   21.2861 H   0  0  0  0  0  0
  -25.8533  -25.6383   19.0050 H   0  0  0  0  0  0
  -24.0281  -27.2249   18.9438 H   0  0  0  0  0  0
  -23.9335  -30.4704   19.3793 H   0  0  0  0  0  0
  -22.8645  -29.1748   19.8165 H   0  0  0  0  0  0
  -25.1358  -36.1674   25.0769 H   0  0  0  0  0  0
  -21.0044  -28.3474   24.1282 H   0  0  0  0  0  0
  -20.5740  -26.2392   23.3673 H   0  0  0  0  0  0
  -21.6685  -26.7422   22.1211 H   0  0  0  0  0  0
  -19.6947  -25.6243   21.1337 H   0  0  0  0  0  0
  -19.6721  -27.3125   20.6734 H   0  0  0  0  0  0
  -17.4242  -26.6645   21.4096 H   0  0  0  0  0  0
  -18.0400  -26.0148   22.9123 H   0  0  0  0  0  0
  -19.7954  -30.7390   24.2162 H   0  0  0  0  0  0
  -17.5016  -31.6282   24.5149 H   0  0  0  0  0  0
  -15.5373  -30.2974   23.7713 H   0  0  0  0  0  0
  -15.8734  -28.0823   22.7069 H   0  0  0  0  0  0
  -24.5902  -30.7109   25.7633 H   0  0  0  0  0  0
  -24.8820  -32.3019   26.4545 H   0  0  0  0  0  0
  -25.7872  -30.9117   27.0223 H   0  0  0  0  0  0
  -26.3174  -29.6494   24.1542 H   0  0  0  0  0  0
  -27.3947  -29.7277   25.5255 H   0  0  0  0  0  0
  -27.9159  -30.3984   24.0024 H   0  0  0  0  0  0
  -27.2594  -33.3722   26.1899 H   0  0  0  0  0  0
  -28.3965  -32.6791   25.0415 H   0  0  0  0  0  0
  -28.0598  -31.8596   26.5587 H   0  0  0  0  0  0
  -28.2553  -38.0063   24.7485 H   0  0  0  0  0  0
  -28.1079  -36.2573   24.6318 H   0  0  0  0  0  0
  -27.2269  -37.1420   25.8868 H   0  0  0  0  0  0
  -20.9702  -29.8717   21.6529 H   0  0  0  0  0  0
  -26.0100  -38.2707   24.1399 H   0  0  0  0  0  0
  -28.9323  -20.5212   17.9647 H   0  0  0  0  0  0
  -27.3323  -20.8364   18.6137 H   0  0  0  0  0  0
  -27.9236  -19.1812   18.4892 H   0  0  0  0  0  0
  -30.1754  -23.4015   21.7495 H   0  0  0  0  0  0
  -29.0790  -22.2241   22.4719 H   0  0  0  0  0  0
  -30.5943  -21.6937   21.7446 H   0  0  0  0  0  0
  -27.6009  -17.7900   20.3987 H   0  0  0  0  0  0
  -27.7430  -16.1732   20.9861 H   0  0  0  0  0  0
  -27.8249  -16.4954   19.2343 H   0  0  0  0  0  0
  -30.3153  -18.8467   21.3162 H   0  0  0  0  0  0
  -30.6697  -18.8361   19.6454 H   0  0  0  0  0  0
  -27.2027  -23.6809   20.8174 H   0  0  0  0  0  0
  -27.5832  -23.7548   19.1502 H   0  0  0  0  0  0
  -27.9982  -20.1539   20.8257 H   0  0  0  0  0  0
  -29.8209  -22.4063   19.5476 H   0  0  0  0  0  0
  1 25  1  0  0  0
  1 30  2  0  0  0
  1 78  1  0  0  0
  2  3  1  0  0  0
  2 25  1  0  0  0
  2 79  1  0  0  0
  2 80  1  0  0  0
  3  4  1  0  0  0
  3 81  1  0  0  0
  3 82  1  0  0  0
  4  5  1  0  0  0
  4 83  1  0  0  0
  4 84  1  0  0  0
  5  6  1  0  0  0
  5 26  1  0  0  0
  5 85  1  0  0  0
  6 25  1  0  0  0
  6 86  1  0  0  0
  6 87  1  0  0  0
  7  8  2  0  0  0
  7 26  1  0  0  0
  7 29  1  0  0  0
  8  9  1  0  0  0
  8 22  1  0  0  0
  9 10  1  0  0  0
  9 27  2  0  0  0
 10 11  2  0  0  0
 10 15  1  0  0  0
 11 12  1  0  0  0
 11 88  1  0  0  0
 12 13  2  0  0  0
 12 89  1  0  0  0
 13 14  1  0  0  0
 13 31  1  0  0  0
 14 15  2  0  0  0
 14 90  1  0  0  0
 15 91  1  0  0  0
 16 17  2  0  0  0
 16 21  1  0  0  0
 16 31  1  0  0  0
 17 18  1  0  0  0
 17 92  1  0  0  0
 18 19  2  0  0  0
 18 93  1  0  0  0
 19 20  1  0  0  0
 19 24  1  0  0  0
 20 21  2  0  0  0
 20 94  1  0  0  0
 21 23  1  0  0  0
 22 28  1  0  0  0
 22 32  2  0  0  0
 26 27  1  0  0  0
 28 95  1  0  0  0
 28 96  1  0  0  0
 29 97  1  0  0  0
 29 98  1  0  0  0
 33 34  1  0  0  0
 33 66  1  0  0  0
 33 70  2  0  0  0
 34 36  1  0  0  0
 34 59  1  0  0  0
 34 99  1  0  0  0
 35 44  2  0  0  0
 35 45  1  0  0  0
 35 68  1  0  0  0
 36 56  1  0  0  0
 36100  1  0  0  0
 37 39  1  0  0  0
 37 47  1  0  0  0
 37 66  1  0  0  0
 37101  1  0  0  0
 38 43  2  0  0  0
 38 46  1  0  0  0
 38 47  1  0  0  0
 39 64  1  0  0  0
 39 67  2  0  0  0
 40 52  1  0  0  0
 40 53  2  0  0  0
 40 58  1  0  0  0
 41102  1  0  0  0
 41103  1  0  0  0
 41104  1  0  0  0
 41 48  1  0  0  0
 42 43  1  0  0  0
 42 66  1  0  0  0
 42105  1  0  0  0
 42106  1  0  0  0
 43 44  1  0  0  0
 44107  1  0  0  0
 45 46  2  0  0  0
 45108  1  0  0  0
 46109  1  0  0  0
 47110  1  0  0  0
 47111  1  0  0  0
 48 56  1  0  0  0
 48 65  1  0  0  0
 48112  1  0  0  0
 49 50  1  0  0  0
 49 53  1  0  0  0
 49 64  1  0  0  0
 49113  1  0  0  0
 50 51  1  0  0  0
 50114  1  0  0  0
 50115  1  0  0  0
 51 52  1  0  0  0
 51116  1  0  0  0
 51117  1  0  0  0
 52118  1  0  0  0
 52119  1  0  0  0
 53 54  1  0  0  0
 54 55  2  0  0  0
 54120  1  0  0  0
 55 57  1  0  0  0
 55121  1  0  0  0
 56 69  2  0  0  0
 57 58  2  0  0  0
 57122  1  0  0  0
 58123  1  0  0  0
 59 60  1  0  0  0
 59 61  1  0  0  0
 59 62  1  0  0  0
 60124  1  0  0  0
 60125  1  0  0  0
 60126  1  0  0  0
 61127  1  0  0  0
 61128  1  0  0  0
 61129  1  0  0  0
 62130  1  0  0  0
 62131  1  0  0  0
 62132  1  0  0  0
 63 65  1  0  0  0
 63133  1  0  0  0
 63134  1  0  0  0
 63135  1  0  0  0
 64136  1  0  0  0
 65137  1  0  0  0
 68 75  1  0  0  0
 71138  1  0  0  0
 71139  1  0  0  0
 71140  1  0  0  0
 71 76  1  0  0  0
 72141  1  0  0  0
 72142  1  0  0  0
 72143  1  0  0  0
 72 77  1  0  0  0
 73 78  1  0  0  0
 73144  1  0  0  0
 73145  1  0  0  0
 73146  1  0  0  0
 74 76  1  0  0  0
 74 78  1  0  0  0
 74147  1  0  0  0
 74148  1  0  0  0
 75 77  1  0  0  0
 75149  1  0  0  0
 75150  1  0  0  0
 76 77  1  0  0  0
 76151  1  0  0  0
 77152  1  0  0  0
M  ISO  4   1 100  68 101  75 101  78 100
M  END
> <chiral flag>
0

> <version>
0

> <s_m_source_file>
/data/baiqing/PycharmProjects/Reinvent-master-3.2/result/LINK_invent/BTK/process_docking_weight1_custom_sum_contain_oxygen_bond_distance_aromatic_linkinvent_7_9_3/rearranged_h_0099.sdf

> <i_m_source_file_index>
9

> <r_mmod_Potential_Energy-OPLS-2005>
2427.40502929688

> <r_mmod_Stretch_Energy-OPLS-2005>
1099.23583984375

> <r_mmod_Bend_Energy-OPLS-2005>
605.671569824219

> <r_mmod_Torsional_Energy-OPLS-2005>
282.698577880859

> <r_mmod_Improper_Torsional_Energy-OPLS-2005>
3.9614086151123

> <r_mmod_Van_der_Waal_Energy-OPLS-2005>
109.989212036133

> <r_mmod_Electrostatic_Energy-OPLS-2005>
-284.363006591797

> <r_mmod_Solvation_Energy-OPLS-2005>
-202.643081665039

> <b_mmod_Minimization_Converged-OPLS-2005>
0

> <r_mmod_RMS_Derivative-OPLS-2005>
2.68987631797791

$$$$
9
                    3D
 Structure written by MMmdl.
160168  0  0  1  0            999 V2000
  -30.6111  -14.7347   20.4748 C   0  0  0  0  0  0
  -30.4352  -12.4632   19.4462 C   0  0  0  0  0  0
  -29.5126  -12.5341   18.2117 C   0  0  0  0  0  0
  -28.0358  -12.3533   18.6255 C   0  0  0  0  0  0
  -27.6406  -13.2374   19.8424 C   0  0  2  0  0  0
  -28.6898  -13.1424   20.9687 C   0  0  0  0  0  0
  -25.2494  -13.8192   20.5661 C   0  0  0  0  0  0
  -24.1798  -13.0427   20.9192 C   0  0  0  0  0  0
  -24.6411  -11.6905   20.8710 C   0  0  0  0  0  0
  -23.9084  -10.4287   21.0366 C   0  0  0  0  0  0
  -24.3621   -9.4210   21.9150 C   0  0  0  0  0  0
  -23.6296   -8.2246   22.0724 C   0  0  0  0  0  0
  -22.4271   -8.0289   21.3529 C   0  0  0  0  0  0
  -21.9917   -9.0255   20.4617 C   0  0  0  0  0  0
  -22.7260  -10.2120   20.3016 C   0  0  0  0  0  0
  -21.6838   -6.0733   22.5284 C   0  0  0  0  0  0
  -21.4027   -6.5625   23.8232 C   0  0  0  0  0  0
  -21.3659   -5.6769   24.9185 C   0  0  0  0  0  0
  -21.6045   -4.3038   24.7227 C   0  0  0  0  0  0
  -21.8823   -3.8133   23.4348 C   0  0  0  0  0  0
  -21.9203   -4.6959   22.3408 C   0  0  0  0  0  0
  -22.7813  -13.5198   21.1869 C   0  0  0  0  0  0
  -22.1654   -4.2136   21.0984 F   0  0  0  0  0  0
  -21.5636   -3.4519   25.7738 F   0  0  0  0  0  0
  -29.9827  -13.5135   20.3821 N   0  0  0  0  0  0
  -26.2933  -12.9404   20.3221 N   0  0  0  0  0  0
  -25.9336  -11.6525   20.5668 N   0  0  0  0  0  0
  -22.0457  -12.8174   22.0419 N   0  0  0  0  0  0
  -25.4151  -15.1928   20.4057 N   0  0  0  0  0  0
  -31.8137  -14.8274   20.2214 O   0  0  0  0  0  0
  -21.6634   -6.8882   21.4239 O   0  0  0  0  0  0
  -22.3484  -14.5512   20.6740 O   0  0  0  0  0  0
  -24.6229  -31.8563   23.1992 C   0  0  0  0  0  0
  -25.9088  -32.4747   23.8324 C   0  0  1  0  0  0
  -27.1980  -27.2748   20.1308 C   0  0  0  0  0  0
  -25.5893  -33.8559   24.2241 N   0  0  0  0  0  0
  -23.4214  -30.4815   21.5363 C   0  0  2  0  0  0
  -24.8668  -28.9334   20.1018 C   0  0  0  0  0  0
  -22.7443  -29.4631   22.4861 C   0  0  0  0  0  0
  -18.0267  -28.1447   22.8475 C   0  0  0  0  0  0
  -24.1501  -36.7295   23.2637 C   0  0  0  0  0  0
  -25.9665  -30.7718   21.3869 C   0  0  0  0  0  0
  -26.0356  -29.3973   20.7226 C   0  0  0  0  0  0
  -27.2074  -28.5805   20.7274 C   0  0  0  0  0  0
  -26.0264  -26.8922   19.4458 C   0  0  0  0  0  0
  -24.8664  -27.6895   19.4518 C   0  0  0  0  0  0
  -23.6379  -29.8189   20.1515 C   0  0  0  0  0  0
  -25.4135  -36.3068   24.0302 C   0  0  1  0  0  0
  -20.5880  -28.3750   23.1311 C   0  0  2  0  0  0
  -20.6729  -26.9391   22.5642 C   0  0  0  0  0  0
  -19.5784  -26.6351   21.5340 C   0  0  0  0  0  0
  -18.1923  -26.7987   22.1623 C   0  0  0  0  0  0
  -19.1537  -28.8896   23.2897 C   0  0  0  0  0  0
  -18.9485  -30.1476   23.8932 C   0  0  0  0  0  0
  -17.6514  -30.6634   24.0627 C   0  0  0  0  0  0
  -25.9052  -34.9440   23.5081 C   0  0  0  0  0  0
  -16.5373  -29.9164   23.6380 C   0  0  0  0  0  0
  -16.7271  -28.6599   23.0342 C   0  0  0  0  0  0
  -26.4477  -31.6554   25.0707 C   0  0  0  0  0  0
  -25.3714  -31.3759   26.1443 C   0  0  0  0  0  0
  -27.0342  -30.2937   24.6262 C   0  0  0  0  0  0
  -27.5977  -32.4349   25.7519 C   0  0  0  0  0  0
  -27.5593  -37.1808   24.8462 C   0  0  0  0  0  0
  -21.4152  -29.3055   22.3614 N   0  0  0  0  0  0
  -26.4314  -37.3762   23.9378 N   0  0  0  0  0  0
  -24.6872  -31.0592   22.0931 N   0  0  0  0  0  0
  -23.4166  -28.8192   23.2979 O   0  0  0  0  0  0
  -28.2803  -26.3703   20.1769 O   0  0  0  0  0  0
  -26.5673  -34.8885   22.4686 O   0  0  0  0  0  0
  -23.5371  -32.1378   23.7288 O   0  0  0  0  0  0
  -29.1120  -19.6807   21.0407 C   0  0  0  0  0  0
  -29.9179  -18.6656   20.5310 C   0  0  0  0  0  0
  -30.5450  -19.2983   19.4090 C   0  0  0  0  0  0
  -30.1630  -20.6294   19.3356 C   0  0  0  0  0  0
  -31.5487  -18.6384   18.5015 C   0  0  0  0  0  0
  -30.6516  -21.6673   18.3644 C   0  0  0  0  0  0
  -26.7558  -24.7175   21.4319 C   0  0  0  0  0  0
  -30.2809  -17.2408   21.1602 C   0  0  0  0  0  0
  -28.7018  -23.6682   20.0267 C   0  0  0  0  0  0
  -28.6331  -22.2461   20.8154 C   0  0  0  0  0  0
  -28.1352  -24.9916   20.7812 C   0  0  1  0  0  0
  -29.2728  -20.9217   20.3688 N   0  0  0  0  0  0
  -29.8393  -15.8673   20.6674 N   0  0  0  0  0  0
  -31.4764  -12.5990   19.1525 H   0  0  0  0  0  0
  -30.3750  -11.4776   19.9103 H   0  0  0  0  0  0
  -29.7969  -11.7859   17.4698 H   0  0  0  0  0  0
  -29.6358  -13.5033   17.7260 H   0  0  0  0  0  0
  -27.8952  -11.2992   18.8682 H   0  0  0  0  0  0
  -27.3804  -12.5611   17.7786 H   0  0  0  0  0  0
  -27.6375  -14.2683   19.4855 H   0  0  0  0  0  0
  -28.7293  -12.1223   21.3531 H   0  0  0  0  0  0
  -28.4329  -13.7820   21.8146 H   0  0  0  0  0  0
  -25.2768   -9.5668   22.4718 H   0  0  0  0  0  0
  -23.9996   -7.4619   22.7432 H   0  0  0  0  0  0
  -21.0860   -8.8796   19.8907 H   0  0  0  0  0  0
  -22.3755  -10.9648   19.6107 H   0  0  0  0  0  0
  -21.2006   -7.6125   23.9743 H   0  0  0  0  0  0
  -21.1475   -6.0478   25.9088 H   0  0  0  0  0  0
  -22.0597   -2.7589   23.2861 H   0  0  0  0  0  0
  -22.4054  -11.9867   22.4872 H   0  0  0  0  0  0
  -21.1040  -13.1149   22.2557 H   0  0  0  0  0  0
  -24.6361  -15.8369   20.4947 H   0  0  0  0  0  0
  -26.2613  -15.6402   20.0757 H   0  0  0  0  0  0
  -26.7145  -32.5394   23.1049 H   0  0  0  0  0  0
  -24.9992  -33.9696   25.0356 H   0  0  0  0  0  0
  -22.7153  -31.3010   21.3882 H   0  0  0  0  0  0
  -23.3735  -35.9663   23.3345 H   0  0  0  0  0  0
  -24.3539  -36.8907   22.2039 H   0  0  0  0  0  0
  -23.7283  -37.6496   23.6685 H   0  0  0  0  0  0
  -26.1164  -31.5416   20.6292 H   0  0  0  0  0  0
  -26.8383  -30.8020   22.0331 H   0  0  0  0  0  0
  -28.0994  -28.9229   21.2328 H   0  0  0  0  0  0
  -25.9957  -25.9439   18.9230 H   0  0  0  0  0  0
  -23.9779  -27.3351   18.9479 H   0  0  0  0  0  0
  -23.7589  -30.5952   19.3932 H   0  0  0  0  0  0
  -22.7575  -29.2500   19.8479 H   0  0  0  0  0  0
  -25.1314  -36.1917   25.0788 H   0  0  0  0  0  0
  -20.9988  -28.3420   24.1425 H   0  0  0  0  0  0
  -20.5425  -26.2414   23.3944 H   0  0  0  0  0  0
  -21.6651  -26.7285   22.1627 H   0  0  0  0  0  0
  -19.6939  -25.6253   21.1356 H   0  0  0  0  0  0
  -19.6794  -27.3176   20.6892 H   0  0  0  0  0  0
  -17.4234  -26.6790   21.3958 H   0  0  0  0  0  0
  -18.0230  -26.0129   22.9020 H   0  0  0  0  0  0
  -19.7991  -30.7274   24.2312 H   0  0  0  0  0  0
  -17.5132  -31.6281   24.5304 H   0  0  0  0  0  0
  -15.5402  -30.3118   23.7776 H   0  0  0  0  0  0
  -15.8668  -28.0966   22.7034 H   0  0  0  0  0  0
  -24.5831  -30.7162   25.7805 H   0  0  0  0  0  0
  -24.9005  -32.2981   26.4866 H   0  0  0  0  0  0
  -25.7979  -30.8922   27.0237 H   0  0  0  0  0  0
  -26.2947  -29.6668   24.1258 H   0  0  0  0  0  0
  -27.3948  -29.7201   25.4817 H   0  0  0  0  0  0
  -27.8869  -30.4174   23.9574 H   0  0  0  0  0  0
  -27.2468  -33.3617   26.2087 H   0  0  0  0  0  0
  -28.3794  -32.6981   25.0380 H   0  0  0  0  0  0
  -28.0668  -31.8538   26.5476 H   0  0  0  0  0  0
  -28.2604  -38.0105   24.7465 H   0  0  0  0  0  0
  -28.1070  -36.2607   24.6359 H   0  0  0  0  0  0
  -27.2278  -37.1580   25.8854 H   0  0  0  0  0  0
  -20.9279  -29.8801   21.6884 H   0  0  0  0  0  0
  -26.0177  -38.2830   24.1349 H   0  0  0  0  0  0
  -28.4716  -19.6514   21.9155 H   0  0  0  0  0  0
  -31.5506  -17.5571   18.6315 H   0  0  0  0  0  0
  -32.5496  -19.0157   18.7142 H   0  0  0  0  0  0
  -31.3237  -18.8488   17.4559 H   0  0  0  0  0  0
  -31.4013  -21.2516   17.6890 H   0  0  0  0  0  0
  -31.1436  -22.4920   18.8794 H   0  0  0  0  0  0
  -29.8399  -22.0567   17.7488 H   0  0  0  0  0  0
  -26.4136  -25.5533   22.0445 H   0  0  0  0  0  0
  -26.7794  -23.8585   22.1004 H   0  0  0  0  0  0
  -25.9917  -24.5171   20.6852 H   0  0  0  0  0  0
  -29.9558  -17.2841   22.2014 H   0  0  0  0  0  0
  -31.3692  -17.2327   21.2258 H   0  0  0  0  0  0
  -28.1836  -23.5617   19.0711 H   0  0  0  0  0  0
  -29.7369  -23.8853   19.7743 H   0  0  0  0  0  0
  -27.5765  -22.0184   20.9594 H   0  0  0  0  0  0
  -29.0190  -22.4292   21.8187 H   0  0  0  0  0  0
  -28.7973  -25.0829   21.6420 H   0  0  0  0  0  0
  -28.8450  -15.6973   20.7023 H   0  0  0  0  0  0
  1 25  1  0  0  0
  1 30  2  0  0  0
  1 83  1  0  0  0
  2  3  1  0  0  0
  2 25  1  0  0  0
  2 84  1  0  0  0
  2 85  1  0  0  0
  3  4  1  0  0  0
  3 86  1  0  0  0
  3 87  1  0  0  0
  4  5  1  0  0  0
  4 88  1  0  0  0
  4 89  1  0  0  0
  5  6  1  0  0  0
  5 26  1  0  0  0
  5 90  1  0  0  0
  6 25  1  0  0  0
  6 91  1  0  0  0
  6 92  1  0  0  0
  7  8  2  0  0  0
  7 26  1  0  0  0
  7 29  1  0  0  0
  8  9  1  0  0  0
  8 22  1  0  0  0
  9 10  1  0  0  0
  9 27  2  0  0  0
 10 11  2  0  0  0
 10 15  1  0  0  0
 11 12  1  0  0  0
 11 93  1  0  0  0
 12 13  2  0  0  0
 12 94  1  0  0  0
 13 14  1  0  0  0
 13 31  1  0  0  0
 14 15  2  0  0  0
 14 95  1  0  0  0
 15 96  1  0  0  0
 16 17  2  0  0  0
 16 21  1  0  0  0
 16 31  1  0  0  0
 17 18  1  0  0  0
 17 97  1  0  0  0
 18 19  2  0  0  0
 18 98  1  0  0  0
 19 20  1  0  0  0
 19 24  1  0  0  0
 20 21  2  0  0  0
 20 99  1  0  0  0
 21 23  1  0  0  0
 22 28  1  0  0  0
 22 32  2  0  0  0
 26 27  1  0  0  0
 28100  1  0  0  0
 28101  1  0  0  0
 29102  1  0  0  0
 29103  1  0  0  0
 33 34  1  0  0  0
 33 66  1  0  0  0
 33 70  2  0  0  0
 34 36  1  0  0  0
 34 59  1  0  0  0
 34104  1  0  0  0
 35 44  2  0  0  0
 35 45  1  0  0  0
 35 68  1  0  0  0
 36 56  1  0  0  0
 36105  1  0  0  0
 37 39  1  0  0  0
 37 47  1  0  0  0
 37 66  1  0  0  0
 37106  1  0  0  0
 38 43  2  0  0  0
 38 46  1  0  0  0
 38 47  1  0  0  0
 39 64  1  0  0  0
 39 67  2  0  0  0
 40 52  1  0  0  0
 40 53  2  0  0  0
 40 58  1  0  0  0
 41107  1  0  0  0
 41108  1  0  0  0
 41109  1  0  0  0
 41 48  1  0  0  0
 42 43  1  0  0  0
 42 66  1  0  0  0
 42110  1  0  0  0
 42111  1  0  0  0
 43 44  1  0  0  0
 44112  1  0  0  0
 45 46  2  0  0  0
 45113  1  0  0  0
 46114  1  0  0  0
 47115  1  0  0  0
 47116  1  0  0  0
 48 56  1  0  0  0
 48 65  1  0  0  0
 48117  1  0  0  0
 49 50  1  0  0  0
 49 53  1  0  0  0
 49 64  1  0  0  0
 49118  1  0  0  0
 50 51  1  0  0  0
 50119  1  0  0  0
 50120  1  0  0  0
 51 52  1  0  0  0
 51121  1  0  0  0
 51122  1  0  0  0
 52123  1  0  0  0
 52124  1  0  0  0
 53 54  1  0  0  0
 54 55  2  0  0  0
 54125  1  0  0  0
 55 57  1  0  0  0
 55126  1  0  0  0
 56 69  2  0  0  0
 57 58  2  0  0  0
 57127  1  0  0  0
 58128  1  0  0  0
 59 60  1  0  0  0
 59 61  1  0  0  0
 59 62  1  0  0  0
 60129  1  0  0  0
 60130  1  0  0  0
 60131  1  0  0  0
 61132  1  0  0  0
 61133  1  0  0  0
 61134  1  0  0  0
 62135  1  0  0  0
 62136  1  0  0  0
 62137  1  0  0  0
 63 65  1  0  0  0
 63138  1  0  0  0
 63139  1  0  0  0
 63140  1  0  0  0
 64141  1  0  0  0
 65142  1  0  0  0
 68 81  1  0  0  0
 71 72  2  0  0  0
 71 82  1  0  0  0
 71143  1  0  0  0
 72 73  1  0  0  0
 72 78  1  0  0  0
 73 74  2  0  0  0
 73 75  1  0  0  0
 74 76  1  0  0  0
 74 82  1  0  0  0
 75144  1  0  0  0
 75145  1  0  0  0
 75146  1  0  0  0
 76147  1  0  0  0
 76148  1  0  0  0
 76149  1  0  0  0
 77150  1  0  0  0
 77151  1  0  0  0
 77152  1  0  0  0
 77 81  1  0  0  0
 78 83  1  0  0  0
 78153  1  0  0  0
 78154  1  0  0  0
 79 80  1  0  0  0
 79 81  1  0  0  0
 79155  1  0  0  0
 79156  1  0  0  0
 80 82  1  0  0  0
 80157  1  0  0  0
 80158  1  0  0  0
 81159  1  0  0  0
 83160  1  0  0  0
M  ISO  4   1 100  68 101  81 101  83 100
M  END
> <chiral flag>
0

> <version>
0

> <s_m_source_file>
/data/baiqing/PycharmProjects/Reinvent-master-3.2/result/LINK_invent/BTK/process_docking_weight1_custom_sum_contain_oxygen_bond_distance_aromatic_linkinvent_7_9_3/rearranged_h_0099.sdf

> <i_m_source_file_index>
10

> <r_mmod_Potential_Energy-OPLS-2005>
121.265281677246

> <r_mmod_Stretch_Energy-OPLS-2005>
118.841903686523

> <r_mmod_Bend_Energy-OPLS-2005>
199.595993041992

> <r_mmod_Torsional_Energy-OPLS-2005>
254.356063842773

> <r_mmod_Improper_Torsional_Energy-OPLS-2005>
6.66912269592285

> <r_mmod_Van_der_Waal_Energy-OPLS-2005>
118.032196044922

> <r_mmod_Electrostatic_Energy-OPLS-2005>
-447.850433349609

> <r_mmod_Solvation_Energy-OPLS-2005>
-211.900512695312

> <b_mmod_Minimization_Converged-OPLS-2005>
0

> <r_mmod_RMS_Derivative-OPLS-2005>
5.67020320892334

$$$$
10
                    3D
 Structure written by MMmdl.
172181  0  0  1  0            999 V2000
  -30.7812  -14.3864   20.6045 C   0  0  0  0  0  0
  -30.4061  -12.2670   19.4216 C   0  0  0  0  0  0
  -29.4918  -12.5047   18.2062 C   0  0  0  0  0  0
  -28.0136  -12.3726   18.6144 C   0  0  0  0  0  0
  -27.6641  -13.2097   19.8756 C   0  0  2  0  0  0
  -28.7039  -12.9909   20.9995 C   0  0  0  0  0  0
  -25.2602  -13.8176   20.5683 C   0  0  0  0  0  0
  -24.1861  -13.0456   20.9191 C   0  0  0  0  0  0
  -24.6409  -11.6928   20.8735 C   0  0  0  0  0  0
  -23.9053  -10.4339   21.0390 C   0  0  0  0  0  0
  -24.3617   -9.4249   21.9166 C   0  0  0  0  0  0
  -23.6323   -8.2270   22.0720 C   0  0  0  0  0  0
  -22.4289   -8.0303   21.3541 C   0  0  0  0  0  0
  -21.9919   -9.0261   20.4613 C   0  0  0  0  0  0
  -22.7234  -10.2148   20.3034 C   0  0  0  0  0  0
  -21.6867   -6.0761   22.5290 C   0  0  0  0  0  0
  -21.4008   -6.5638   23.8231 C   0  0  0  0  0  0
  -21.3677   -5.6781   24.9186 C   0  0  0  0  0  0
  -21.6056   -4.3053   24.7222 C   0  0  0  0  0  0
  -21.8829   -3.8162   23.4339 C   0  0  0  0  0  0
  -21.9202   -4.6990   22.3411 C   0  0  0  0  0  0
  -22.7883  -13.5248   21.1854 C   0  0  0  0  0  0
  -22.1667   -4.2184   21.0990 F   0  0  0  0  0  0
  -21.5636   -3.4523   25.7724 F   0  0  0  0  0  0
  -30.0395  -13.2603   20.4426 N   0  0  0  0  0  0
  -26.3049  -12.9356   20.3362 N   0  0  0  0  0  0
  -25.9336  -11.6521   20.5773 N   0  0  0  0  0  0
  -22.0516  -12.8232   22.0395 N   0  0  0  0  0  0
  -25.4332  -15.1913   20.4132 N   0  0  0  0  0  0
  -31.8995  -14.5133   20.1118 O   0  0  0  0  0  0
  -21.6651   -6.8898   21.4255 O   0  0  0  0  0  0
  -22.3584  -14.5577   20.6733 O   0  0  0  0  0  0
  -24.6149  -31.8684   23.2100 C   0  0  0  0  0  0
  -25.9048  -32.4816   23.8393 C   0  0  1  0  0  0
  -27.2284  -27.4590   20.1064 C   0  0  0  0  0  0
  -25.5923  -33.8609   24.2349 N   0  0  0  0  0  0
  -23.4017  -30.4957   21.5470 C   0  0  2  0  0  0
  -24.8459  -28.9604   20.1160 C   0  0  0  0  0  0
  -22.7412  -29.4697   22.4947 C   0  0  0  0  0  0
  -18.0282  -28.1378   22.8502 C   0  0  0  0  0  0
  -24.1491  -36.7306   23.2643 C   0  0  0  0  0  0
  -25.9275  -30.8439   21.3561 C   0  0  0  0  0  0
  -26.0045  -29.4777   20.7123 C   0  0  0  0  0  0
  -27.2027  -28.7358   20.7009 C   0  0  0  0  0  0
  -26.0604  -26.9492   19.5014 C   0  0  0  0  0  0
  -24.8673  -27.6924   19.5084 C   0  0  0  0  0  0
  -23.6103  -29.8255   20.1610 C   0  0  0  0  0  0
  -25.4098  -36.3109   24.0366 C   0  0  1  0  0  0
  -20.5881  -28.3692   23.1291 C   0  0  2  0  0  0
  -20.6774  -26.9420   22.5407 C   0  0  0  0  0  0
  -19.5745  -26.6396   21.5220 C   0  0  0  0  0  0
  -18.1932  -26.7933   22.1628 C   0  0  0  0  0  0
  -19.1536  -28.8843   23.2910 C   0  0  0  0  0  0
  -18.9454  -30.1447   23.8933 C   0  0  0  0  0  0
  -17.6457  -30.6588   24.0583 C   0  0  0  0  0  0
  -25.9023  -34.9479   23.5132 C   0  0  0  0  0  0
  -16.5349  -29.9100   23.6314 C   0  0  0  0  0  0
  -16.7273  -28.6506   23.0349 C   0  0  0  0  0  0
  -26.4490  -31.6575   25.0697 C   0  0  0  0  0  0
  -25.3781  -31.3666   26.1464 C   0  0  0  0  0  0
  -27.0289  -30.3027   24.6015 C   0  0  0  0  0  0
  -27.6071  -32.4281   25.7461 C   0  0  0  0  0  0
  -27.5584  -37.1799   24.8478 C   0  0  0  0  0  0
  -21.4129  -29.3072   22.3685 N   0  0  0  0  0  0
  -26.4291  -37.3794   23.9420 N   0  0  0  0  0  0
  -24.6673  -31.0826   22.0970 N   0  0  0  0  0  0
  -23.4189  -28.8232   23.2984 O   0  0  0  0  0  0
  -28.3788  -26.7175   20.1076 O   0  0  0  0  0  0
  -26.5578  -34.8937   22.4702 O   0  0  0  0  0  0
  -23.5346  -32.1422   23.7509 O   0  0  0  0  0  0
  -32.8575  -22.0021   20.0641 C   0  0  0  0  0  0
  -31.8578  -22.8390   20.5832 C   0  0  0  0  0  0
  -30.3479  -20.9367   20.7549 C   0  0  0  0  0  0
  -32.6169  -20.6310   19.8261 C   0  0  0  0  0  0
  -30.5786  -22.3266   20.8778 C   0  0  0  0  0  0
  -33.3818  -19.5964   19.2085 C   0  0  0  0  0  0
  -31.3565  -20.0962   20.2224 C   0  0  0  0  0  0
  -32.5797  -18.4740   19.1990 C   0  0  0  0  0  0
  -34.7587  -19.7697   18.6307 C   0  0  0  0  0  0
  -34.1593  -16.4955   18.8503 C   0  0  0  0  0  0
  -32.6722  -17.3073   16.9562 C   0  0  0  0  0  0
  -29.4616  -23.2762   21.2947 C   0  0  0  0  0  0
  -29.3760  -24.5433   20.4142 C   0  0  0  0  0  0
  -30.3795  -17.7448   20.3052 C   0  0  0  0  0  0
  -30.8321  -16.7375   21.4000 C   0  0  0  0  0  0
  -28.2771  -25.5060   20.8584 C   0  0  0  0  0  0
  -32.8301  -17.1706   18.4807 C   0  0  0  0  0  0
  -31.4151  -18.7281   19.9477 N   0  0  0  0  0  0
  -30.2059  -15.4124   21.2456 N   0  0  0  0  0  0
  -31.4561  -12.3201   19.1267 H   0  0  0  0  0  0
  -30.2683  -11.2606   19.8173 H   0  0  0  0  0  0
  -29.7350  -11.7969   17.4120 H   0  0  0  0  0  0
  -29.6745  -13.4983   17.7962 H   0  0  0  0  0  0
  -27.8177  -11.3174   18.8044 H   0  0  0  0  0  0
  -27.3714  -12.6621   17.7804 H   0  0  0  0  0  0
  -27.7081  -14.2573   19.5806 H   0  0  0  0  0  0
  -28.6621  -11.9613   21.3577 H   0  0  0  0  0  0
  -28.4823  -13.6154   21.8655 H   0  0  0  0  0  0
  -25.2757   -9.5757   22.4730 H   0  0  0  0  0  0
  -24.0077   -7.4658   22.7409 H   0  0  0  0  0  0
  -21.0869   -8.8767   19.8885 H   0  0  0  0  0  0
  -22.3704  -10.9684   19.6139 H   0  0  0  0  0  0
  -21.1969   -7.6135   23.9753 H   0  0  0  0  0  0
  -21.1488   -6.0488   25.9092 H   0  0  0  0  0  0
  -22.0591   -2.7623   23.2823 H   0  0  0  0  0  0
  -22.4101  -11.9878   22.4786 H   0  0  0  0  0  0
  -21.1113  -13.1224   22.2542 H   0  0  0  0  0  0
  -24.6663  -15.8447   20.5192 H   0  0  0  0  0  0
  -26.2932  -15.6351   20.1139 H   0  0  0  0  0  0
  -26.7127  -32.5533   23.1162 H   0  0  0  0  0  0
  -25.0144  -33.9774   25.0548 H   0  0  0  0  0  0
  -22.6942  -31.3145   21.4024 H   0  0  0  0  0  0
  -23.3753  -35.9639   23.3323 H   0  0  0  0  0  0
  -24.3598  -36.8881   22.2052 H   0  0  0  0  0  0
  -23.7241  -37.6530   23.6610 H   0  0  0  0  0  0
  -26.0348  -31.5990   20.5752 H   0  0  0  0  0  0
  -26.8228  -30.9049   21.9622 H   0  0  0  0  0  0
  -28.0961  -29.1321   21.1643 H   0  0  0  0  0  0
  -26.0758  -25.9761   19.0329 H   0  0  0  0  0  0
  -23.9786  -27.2827   19.0491 H   0  0  0  0  0  0
  -23.7268  -30.5995   19.4013 H   0  0  0  0  0  0
  -22.7350  -29.2462   19.8572 H   0  0  0  0  0  0
  -25.1265  -36.1989   25.0860 H   0  0  0  0  0  0
  -20.9995  -28.3248   24.1398 H   0  0  0  0  0  0
  -20.5692  -26.2295   23.3598 H   0  0  0  0  0  0
  -21.6630  -26.7458   22.1170 H   0  0  0  0  0  0
  -19.6910  -25.6318   21.1220 H   0  0  0  0  0  0
  -19.6670  -27.3229   20.6771 H   0  0  0  0  0  0
  -17.4195  -26.6712   21.4025 H   0  0  0  0  0  0
  -18.0311  -26.0067   22.9002 H   0  0  0  0  0  0
  -19.7937  -30.7264   24.2299 H   0  0  0  0  0  0
  -17.5015  -31.6264   24.5197 H   0  0  0  0  0  0
  -15.5356  -30.3024   23.7610 H   0  0  0  0  0  0
  -15.8669  -28.0847   22.7038 H   0  0  0  0  0  0
  -24.5971  -30.6985   25.7818 H   0  0  0  0  0  0
  -24.8968  -32.2818   26.4912 H   0  0  0  0  0  0
  -25.8177  -30.8851   27.0212 H   0  0  0  0  0  0
  -26.2783  -29.6795   24.1138 H   0  0  0  0  0  0
  -27.4178  -29.7232   25.4402 H   0  0  0  0  0  0
  -27.8571  -30.4372   23.9055 H   0  0  0  0  0  0
  -27.2705  -33.3596   26.2023 H   0  0  0  0  0  0
  -28.3890  -32.6812   25.0284 H   0  0  0  0  0  0
  -28.0726  -31.8413   26.5391 H   0  0  0  0  0  0
  -28.2600  -38.0099   24.7513 H   0  0  0  0  0  0
  -28.1084  -36.2627   24.6300 H   0  0  0  0  0  0
  -27.2311  -37.1445   25.8888 H   0  0  0  0  0  0
  -20.9277  -29.8808   21.6932 H   0  0  0  0  0  0
  -26.0195  -38.2881   24.1402 H   0  0  0  0  0  0
  -33.8141  -22.4305   19.7981 H   0  0  0  0  0  0
  -32.0792  -23.8908   20.7113 H   0  0  0  0  0  0
  -29.3865  -20.5190   21.0205 H   0  0  0  0  0  0
  -35.5242  -19.3786   19.3022 H   0  0  0  0  0  0
  -34.9938  -20.8209   18.4620 H   0  0  0  0  0  0
  -34.8715  -19.2656   17.6739 H   0  0  0  0  0  0
  -34.2436  -16.3933   19.9322 H   0  0  0  0  0  0
  -35.0364  -17.0311   18.4903 H   0  0  0  0  0  0
  -34.1995  -15.4917   18.4265 H   0  0  0  0  0  0
  -31.6461  -17.5808   16.7047 H   0  0  0  0  0  0
  -32.8906  -16.3698   16.4436 H   0  0  0  0  0  0
  -33.3288  -18.0694   16.5411 H   0  0  0  0  0  0
  -29.6043  -23.5428   22.3426 H   0  0  0  0  0  0
  -28.5024  -22.7613   21.2406 H   0  0  0  0  0  0
  -29.2018  -24.2617   19.3752 H   0  0  0  0  0  0
  -30.3140  -25.0922   20.4292 H   0  0  0  0  0  0
  -29.4879  -18.2705   20.6513 H   0  0  0  0  0  0
  -30.0757  -17.2214   19.4007 H   0  0  0  0  0  0
  -30.5928  -17.1215   22.3944 H   0  0  0  0  0  0
  -31.9197  -16.6299   21.3973 H   0  0  0  0  0  0
  -28.3810  -25.7446   21.9186 H   0  0  0  0  0  0
  -27.3163  -25.0041   20.7382 H   0  0  0  0  0  0
  -32.0564  -16.4691   18.7611 H   0  0  0  0  0  0
  -29.2699  -15.2761   21.5964 H   0  0  0  0  0  0
  1 25  1  0  0  0
  1 30  2  0  0  0
  1 89  1  0  0  0
  2  3  1  0  0  0
  2 25  1  0  0  0
  2 90  1  0  0  0
  2 91  1  0  0  0
  3  4  1  0  0  0
  3 92  1  0  0  0
  3 93  1  0  0  0
  4  5  1  0  0  0
  4 94  1  0  0  0
  4 95  1  0  0  0
  5  6  1  0  0  0
  5 26  1  0  0  0
  5 96  1  0  0  0
  6 25  1  0  0  0
  6 97  1  0  0  0
  6 98  1  0  0  0
  7  8  2  0  0  0
  7 26  1  0  0  0
  7 29  1  0  0  0
  8  9  1  0  0  0
  8 22  1  0  0  0
  9 10  1  0  0  0
  9 27  2  0  0  0
 10 11  2  0  0  0
 10 15  1  0  0  0
 11 12  1  0  0  0
 11 99  1  0  0  0
 12 13  2  0  0  0
 12100  1  0  0  0
 13 14  1  0  0  0
 13 31  1  0  0  0
 14 15  2  0  0  0
 14101  1  0  0  0
 15102  1  0  0  0
 16 17  2  0  0  0
 16 21  1  0  0  0
 16 31  1  0  0  0
 17 18  1  0  0  0
 17103  1  0  0  0
 18 19  2  0  0  0
 18104  1  0  0  0
 19 20  1  0  0  0
 19 24  1  0  0  0
 20 21  2  0  0  0
 20105  1  0  0  0
 21 23  1  0  0  0
 22 28  1  0  0  0
 22 32  2  0  0  0
 26 27  1  0  0  0
 28106  1  0  0  0
 28107  1  0  0  0
 29108  1  0  0  0
 29109  1  0  0  0
 33 34  1  0  0  0
 33 66  1  0  0  0
 33 70  2  0  0  0
 34 36  1  0  0  0
 34 59  1  0  0  0
 34110  1  0  0  0
 35 44  2  0  0  0
 35 45  1  0  0  0
 35 68  1  0  0  0
 36 56  1  0  0  0
 36111  1  0  0  0
 37 39  1  0  0  0
 37 47  1  0  0  0
 37 66  1  0  0  0
 37112  1  0  0  0
 38 43  2  0  0  0
 38 46  1  0  0  0
 38 47  1  0  0  0
 39 64  1  0  0  0
 39 67  2  0  0  0
 40 52  1  0  0  0
 40 53  2  0  0  0
 40 58  1  0  0  0
 41113  1  0  0  0
 41114  1  0  0  0
 41115  1  0  0  0
 41 48  1  0  0  0
 42 43  1  0  0  0
 42 66  1  0  0  0
 42116  1  0  0  0
 42117  1  0  0  0
 43 44  1  0  0  0
 44118  1  0  0  0
 45 46  2  0  0  0
 45119  1  0  0  0
 46120  1  0  0  0
 47121  1  0  0  0
 47122  1  0  0  0
 48 56  1  0  0  0
 48 65  1  0  0  0
 48123  1  0  0  0
 49 50  1  0  0  0
 49 53  1  0  0  0
 49 64  1  0  0  0
 49124  1  0  0  0
 50 51  1  0  0  0
 50125  1  0  0  0
 50126  1  0  0  0
 51 52  1  0  0  0
 51127  1  0  0  0
 51128  1  0  0  0
 52129  1  0  0  0
 52130  1  0  0  0
 53 54  1  0  0  0
 54 55  2  0  0  0
 54131  1  0  0  0
 55 57  1  0  0  0
 55132  1  0  0  0
 56 69  2  0  0  0
 57 58  2  0  0  0
 57133  1  0  0  0
 58134  1  0  0  0
 59 60  1  0  0  0
 59 61  1  0  0  0
 59 62  1  0  0  0
 60135  1  0  0  0
 60136  1  0  0  0
 60137  1  0  0  0
 61138  1  0  0  0
 61139  1  0  0  0
 61140  1  0  0  0
 62141  1  0  0  0
 62142  1  0  0  0
 62143  1  0  0  0
 63 65  1  0  0  0
 63144  1  0  0  0
 63145  1  0  0  0
 63146  1  0  0  0
 64147  1  0  0  0
 65148  1  0  0  0
 68 86  1  0  0  0
 71 72  2  0  0  0
 71 74  1  0  0  0
 71149  1  0  0  0
 72 75  1  0  0  0
 72150  1  0  0  0
 73 75  2  0  0  0
 73 77  1  0  0  0
 73151  1  0  0  0
 74 76  1  0  0  0
 74 77  2  0  0  0
 75 82  1  0  0  0
 76 78  2  0  0  0
 76 79  1  0  0  0
 77 88  1  0  0  0
 78 87  1  0  0  0
 78 88  1  0  0  0
 79152  1  0  0  0
 79153  1  0  0  0
 79154  1  0  0  0
 80155  1  0  0  0
 80156  1  0  0  0
 80157  1  0  0  0
 80 87  1  0  0  0
 81 87  1  0  0  0
 81158  1  0  0  0
 81159  1  0  0  0
 81160  1  0  0  0
 82 83  1  0  0  0
 82161  1  0  0  0
 82162  1  0  0  0
 83 86  1  0  0  0
 83163  1  0  0  0
 83164  1  0  0  0
 84 85  1  0  0  0
 84 88  1  0  0  0
 84165  1  0  0  0
 84166  1  0  0  0
 85 89  1  0  0  0
 85167  1  0  0  0
 85168  1  0  0  0
 86169  1  0  0  0
 86170  1  0  0  0
 87171  1  0  0  0
 89172  1  0  0  0
M  ISO  4   1 100  68 101  86 101  89 100
M  END
> <chiral flag>
0

> <version>
0

> <s_m_source_file>
/data/baiqing/PycharmProjects/Reinvent-master-3.2/result/LINK_invent/BTK/process_docking_weight1_custom_sum_contain_oxygen_bond_distance_aromatic_linkinvent_7_9_3/rearranged_h_0099.sdf

> <i_m_source_file_index>
11

> <r_mmod_Potential_Energy-OPLS-2005>
-79.7513122558594

> <r_mmod_Stretch_Energy-OPLS-2005>
36.4919891357422

> <r_mmod_Bend_Energy-OPLS-2005>
94.4223785400391

> <r_mmod_Torsional_Energy-OPLS-2005>
249.818176269531

> <r_mmod_Improper_Torsional_Energy-OPLS-2005>
2.79940438270569

> <r_mmod_Van_der_Waal_Energy-OPLS-2005>
147.527648925781

> <r_mmod_Electrostatic_Energy-OPLS-2005>
-423.534729003906

> <r_mmod_Solvation_Energy-OPLS-2005>
-199.659118652344

> <b_mmod_Minimization_Converged-OPLS-2005>
0

> <r_mmod_RMS_Derivative-OPLS-2005>
4.63630676269531

$$$$
11
                    3D
 Structure written by MMmdl.
179187  0  0  1  0            999 V2000
  -30.6738  -14.5221   20.6754 C   0  0  0  0  0  0
  -30.3902  -12.3697   19.4507 C   0  0  0  0  0  0
  -29.4808  -12.5308   18.2157 C   0  0  0  0  0  0
  -27.9985  -12.3781   18.6027 C   0  0  0  0  0  0
  -27.6248  -13.2122   19.8576 C   0  0  2  0  0  0
  -28.6451  -13.0508   21.0005 C   0  0  0  0  0  0
  -25.2373  -13.8127   20.5649 C   0  0  0  0  0  0
  -24.1697  -13.0447   20.9130 C   0  0  0  0  0  0
  -24.6241  -11.6883   20.8748 C   0  0  0  0  0  0
  -23.8929  -10.4329   21.0437 C   0  0  0  0  0  0
  -24.3513   -9.4227   21.9192 C   0  0  0  0  0  0
  -23.6217   -8.2281   22.0773 C   0  0  0  0  0  0
  -22.4214   -8.0275   21.3549 C   0  0  0  0  0  0
  -21.9813   -9.0243   20.4659 C   0  0  0  0  0  0
  -22.7117  -10.2112   20.3073 C   0  0  0  0  0  0
  -21.6852   -6.0684   22.5282 C   0  0  0  0  0  0
  -21.4046   -6.5592   23.8213 C   0  0  0  0  0  0
  -21.3658   -5.6744   24.9195 C   0  0  0  0  0  0
  -21.6063   -4.3023   24.7250 C   0  0  0  0  0  0
  -21.8825   -3.8096   23.4391 C   0  0  0  0  0  0
  -21.9174   -4.6907   22.3425 C   0  0  0  0  0  0
  -22.7737  -13.5220   21.1861 C   0  0  0  0  0  0
  -22.1619   -4.2087   21.1015 F   0  0  0  0  0  0
  -21.5615   -3.4507   25.7757 F   0  0  0  0  0  0
  -29.9733  -13.3684   20.4634 N   0  0  0  0  0  0
  -26.2763  -12.9315   20.3166 N   0  0  0  0  0  0
  -25.9130  -11.6471   20.5679 N   0  0  0  0  0  0
  -22.0389  -12.8356   22.0450 N   0  0  0  0  0  0
  -25.4080  -15.1948   20.4182 N   0  0  0  0  0  0
  -31.8316  -14.6271   20.2644 O   0  0  0  0  0  0
  -21.6613   -6.8843   21.4245 O   0  0  0  0  0  0
  -22.3534  -14.5589   20.6683 O   0  0  0  0  0  0
  -24.6226  -31.8633   23.2042 C   0  0  0  0  0  0
  -25.9063  -32.4829   23.8417 C   0  0  1  0  0  0
  -27.2769  -27.3900   20.1236 C   0  0  0  0  0  0
  -25.5870  -33.8620   24.2321 N   0  0  0  0  0  0
  -23.4170  -30.4824   21.5416 C   0  0  2  0  0  0
  -24.8854  -28.9422   20.1133 C   0  0  0  0  0  0
  -22.7471  -29.4620   22.4884 C   0  0  0  0  0  0
  -18.0294  -28.1387   22.8503 C   0  0  0  0  0  0
  -24.1459  -36.7283   23.2624 C   0  0  0  0  0  0
  -25.9533  -30.8159   21.3704 C   0  0  0  0  0  0
  -26.0384  -29.4420   20.7285 C   0  0  0  0  0  0
  -27.2345  -28.6734   20.7343 C   0  0  0  0  0  0
  -26.1112  -26.9415   19.4632 C   0  0  0  0  0  0
  -24.9182  -27.6979   19.4678 C   0  0  0  0  0  0
  -23.6460  -29.8127   20.1569 C   0  0  0  0  0  0
  -25.4099  -36.3131   24.0353 C   0  0  1  0  0  0
  -20.5880  -28.3723   23.1294 C   0  0  2  0  0  0
  -20.6762  -26.9452   22.5381 C   0  0  0  0  0  0
  -19.5725  -26.6409   21.5199 C   0  0  0  0  0  0
  -18.1932  -26.7927   22.1629 C   0  0  0  0  0  0
  -19.1526  -28.8879   23.2897 C   0  0  0  0  0  0
  -18.9435  -30.1457   23.8958 C   0  0  0  0  0  0
  -17.6437  -30.6598   24.0590 C   0  0  0  0  0  0
  -25.9044  -34.9481   23.5146 C   0  0  0  0  0  0
  -16.5361  -29.9087   23.6309 C   0  0  0  0  0  0
  -16.7270  -28.6472   23.0408 C   0  0  0  0  0  0
  -26.4507  -31.6632   25.0721 C   0  0  0  0  0  0
  -25.3719  -31.3777   26.1411 C   0  0  0  0  0  0
  -27.0297  -30.3061   24.6083 C   0  0  0  0  0  0
  -27.6097  -32.4296   25.7445 C   0  0  0  0  0  0
  -27.5582  -37.1811   24.8478 C   0  0  0  0  0  0
  -21.4178  -29.3050   22.3666 N   0  0  0  0  0  0
  -26.4273  -37.3826   23.9445 N   0  0  0  0  0  0
  -24.6819  -31.0717   22.0965 N   0  0  0  0  0  0
  -23.4222  -28.8189   23.2958 O   0  0  0  0  0  0
  -28.4165  -26.5791   20.1445 O   0  0  0  0  0  0
  -26.5560  -34.8920   22.4678 O   0  0  0  0  0  0
  -23.5390  -32.1353   23.7400 O   0  0  0  0  0  0
  -29.9616  -20.5307   19.2002 C   0  0  0  0  0  0
  -29.5061  -19.0930   21.0895 C   0  0  0  0  0  0
  -29.7642  -20.4035   20.5864 C   0  0  0  0  0  0
  -29.8362  -19.4503   18.3036 C   0  0  0  0  0  0
  -29.5373  -17.9350   20.2375 C   0  0  0  0  0  0
  -29.8544  -18.1165   18.8492 C   0  0  0  0  0  0
  -28.5994  -18.9730   16.0147 C   0  0  0  0  0  0
  -32.0877  -17.0367   18.3953 C   0  0  0  0  0  0
  -30.1566  -16.3994   16.7808 C   0  0  0  0  0  0
  -27.8972  -23.1432   22.4719 C   0  0  0  0  0  0
  -27.6198  -22.3054   20.1197 C   0  0  0  0  0  0
  -30.8392  -16.2379   22.4021 C   0  0  0  0  0  0
  -29.7436  -21.6953   21.4647 C   0  0  0  0  0  0
  -29.5696  -19.8785   16.8282 C   0  0  0  0  0  0
  -29.0852  -16.5285   20.7701 C   0  0  0  0  0  0
  -29.1842  -24.2439   20.5996 C   0  0  0  0  0  0
  -30.5615  -16.9170   18.1676 C   0  0  0  0  0  0
  -28.6532  -22.8381   21.1428 C   0  0  0  0  0  0
  -28.0374  -25.1984   20.5237 N   0  0  0  0  0  0
  -30.0772  -15.5651   21.3519 N   0  0  0  0  0  0
  -31.4354  -12.4718   19.1616 H   0  0  0  0  0  0
  -30.2996  -11.3630   19.8603 H   0  0  0  0  0  0
  -29.7455  -11.8223   17.4293 H   0  0  0  0  0  0
  -29.6309  -13.5197   17.7863 H   0  0  0  0  0  0
  -27.7982  -11.3212   18.7790 H   0  0  0  0  0  0
  -27.3701  -12.6780   17.7611 H   0  0  0  0  0  0
  -27.6358  -14.2450   19.5246 H   0  0  0  0  0  0
  -28.6342  -12.0336   21.3897 H   0  0  0  0  0  0
  -28.3818  -13.6940   21.8433 H   0  0  0  0  0  0
  -25.2685   -9.5717   22.4707 H   0  0  0  0  0  0
  -23.9927   -7.4705   22.7518 H   0  0  0  0  0  0
  -21.0724   -8.8756   19.9016 H   0  0  0  0  0  0
  -22.3595  -10.9617   19.6173 H   0  0  0  0  0  0
  -21.2097   -7.6100   23.9712 H   0  0  0  0  0  0
  -21.1439   -6.0478   25.9078 H   0  0  0  0  0  0
  -22.0604   -2.7560   23.2907 H   0  0  0  0  0  0
  -22.3895  -11.9960   22.4851 H   0  0  0  0  0  0
  -21.1049  -13.1539   22.2662 H   0  0  0  0  0  0
  -24.6291  -15.8307   20.5363 H   0  0  0  0  0  0
  -26.2442  -15.6581   20.0986 H   0  0  0  0  0  0
  -26.7153  -32.5586   23.1237 H   0  0  0  0  0  0
  -25.0242  -33.9818   25.0623 H   0  0  0  0  0  0
  -22.7091  -31.3045   21.3948 H   0  0  0  0  0  0
  -23.3731  -35.9596   23.3318 H   0  0  0  0  0  0
  -24.3597  -36.8808   22.2025 H   0  0  0  0  0  0
  -23.7151  -37.6478   23.6589 H   0  0  0  0  0  0
  -26.0594  -31.5806   20.5988 H   0  0  0  0  0  0
  -26.8386  -30.8901   21.9879 H   0  0  0  0  0  0
  -28.1135  -29.0559   21.2262 H   0  0  0  0  0  0
  -26.1238  -25.9894   18.9514 H   0  0  0  0  0  0
  -24.0417  -27.3163   18.9671 H   0  0  0  0  0  0
  -23.7633  -30.5816   19.3960 H   0  0  0  0  0  0
  -22.7722  -29.2344   19.8443 H   0  0  0  0  0  0
  -25.1290  -36.2009   25.0842 H   0  0  0  0  0  0
  -21.0012  -28.3229   24.1394 H   0  0  0  0  0  0
  -20.5683  -26.2343   23.3569 H   0  0  0  0  0  0
  -21.6657  -26.7490   22.1199 H   0  0  0  0  0  0
  -19.6870  -25.6309   21.1210 H   0  0  0  0  0  0
  -19.6612  -27.3255   20.6740 H   0  0  0  0  0  0
  -17.4207  -26.6738   21.3998 H   0  0  0  0  0  0
  -18.0316  -26.0044   22.8991 H   0  0  0  0  0  0
  -19.7935  -30.7255   24.2358 H   0  0  0  0  0  0
  -17.5015  -31.6294   24.5186 H   0  0  0  0  0  0
  -15.5351  -30.3063   23.7589 H   0  0  0  0  0  0
  -15.8669  -28.0823   22.7140 H   0  0  0  0  0  0
  -24.5912  -30.7130   25.7767 H   0  0  0  0  0  0
  -24.8891  -32.2919   26.4801 H   0  0  0  0  0  0
  -25.7974  -30.8982   27.0223 H   0  0  0  0  0  0
  -26.2832  -29.6823   24.1121 H   0  0  0  0  0  0
  -27.4075  -29.7311   25.4564 H   0  0  0  0  0  0
  -27.8705  -30.4416   23.9259 H   0  0  0  0  0  0
  -27.2793  -33.3597   26.2089 H   0  0  0  0  0  0
  -28.3852  -32.6816   25.0201 H   0  0  0  0  0  0
  -28.0827  -31.8339   26.5254 H   0  0  0  0  0  0
  -28.2672  -38.0062   24.7584 H   0  0  0  0  0  0
  -28.1002  -36.2596   24.6269 H   0  0  0  0  0  0
  -27.2306  -37.1456   25.8884 H   0  0  0  0  0  0
  -20.9342  -29.8819   21.6934 H   0  0  0  0  0  0
  -26.0143  -38.2892   24.1451 H   0  0  0  0  0  0
  -30.1448  -21.5157   18.7972 H   0  0  0  0  0  0
  -29.2798  -18.9815   22.1400 H   0  0  0  0  0  0
  -27.9608  -19.5766   15.3592 H   0  0  0  0  0  0
  -27.9012  -18.4143   16.6537 H   0  0  0  0  0  0
  -29.1150  -18.2717   15.3588 H   0  0  0  0  0  0
  -32.5227  -17.8817   17.8563 H   0  0  0  0  0  0
  -32.6254  -16.1296   18.1153 H   0  0  0  0  0  0
  -32.2978  -17.1987   19.4551 H   0  0  0  0  0  0
  -29.0704  -16.4270   16.6349 H   0  0  0  0  0  0
  -30.3996  -15.3349   16.7094 H   0  0  0  0  0  0
  -30.7191  -16.8845   15.9789 H   0  0  0  0  0  0
  -27.2975  -22.3049   22.8201 H   0  0  0  0  0  0
  -27.1781  -23.9554   22.3745 H   0  0  0  0  0  0
  -28.5737  -23.4505   23.2722 H   0  0  0  0  0  0
  -27.3248  -21.2818   20.3475 H   0  0  0  0  0  0
  -28.0172  -22.3307   19.0994 H   0  0  0  0  0  0
  -26.7074  -22.8974   20.0979 H   0  0  0  0  0  0
  -31.5596  -16.9170   21.9364 H   0  0  0  0  0  0
  -31.3745  -15.5299   23.0326 H   0  0  0  0  0  0
  -30.1725  -16.8202   23.0405 H   0  0  0  0  0  0
  -30.7598  -22.0959   21.5514 H   0  0  0  0  0  0
  -29.5487  -21.3399   22.4831 H   0  0  0  0  0  0
  -30.4793  -20.2039   16.2942 H   0  0  0  0  0  0
  -28.9822  -20.8185   16.8851 H   0  0  0  0  0  0
  -28.3125  -16.6797   21.5278 H   0  0  0  0  0  0
  -28.5450  -16.0659   19.9473 H   0  0  0  0  0  0
  -29.6310  -24.1295   19.6120 H   0  0  0  0  0  0
  -29.9803  -24.6139   21.2533 H   0  0  0  0  0  0
  -30.2894  -16.0372   18.7139 H   0  0  0  0  0  0
  -27.6427  -25.2789   21.4614 H   0  0  0  0  0  0
  1 25  1  0  0  0
  1 30  2  0  0  0
  1 90  1  0  0  0
  2  3  1  0  0  0
  2 25  1  0  0  0
  2 91  1  0  0  0
  2 92  1  0  0  0
  3  4  1  0  0  0
  3 93  1  0  0  0
  3 94  1  0  0  0
  4  5  1  0  0  0
  4 95  1  0  0  0
  4 96  1  0  0  0
  5  6  1  0  0  0
  5 26  1  0  0  0
  5 97  1  0  0  0
  6 25  1  0  0  0
  6 98  1  0  0  0
  6 99  1  0  0  0
  7  8  2  0  0  0
  7 26  1  0  0  0
  7 29  1  0  0  0
  8  9  1  0  0  0
  8 22  1  0  0  0
  9 10  1  0  0  0
  9 27  2  0  0  0
 10 11  2  0  0  0
 10 15  1  0  0  0
 11 12  1  0  0  0
 11100  1  0  0  0
 12 13  2  0  0  0
 12101  1  0  0  0
 13 14  1  0  0  0
 13 31  1  0  0  0
 14 15  2  0  0  0
 14102  1  0  0  0
 15103  1  0  0  0
 16 17  2  0  0  0
 16 21  1  0  0  0
 16 31  1  0  0  0
 17 18  1  0  0  0
 17104  1  0  0  0
 18 19  2  0  0  0
 18105  1  0  0  0
 19 20  1  0  0  0
 19 24  1  0  0  0
 20 21  2  0  0  0
 20106  1  0  0  0
 21 23  1  0  0  0
 22 28  1  0  0  0
 22 32  2  0  0  0
 26 27  1  0  0  0
 28107  1  0  0  0
 28108  1  0  0  0
 29109  1  0  0  0
 29110  1  0  0  0
 33 34  1  0  0  0
 33 66  1  0  0  0
 33 70  2  0  0  0
 34 36  1  0  0  0
 34 59  1  0  0  0
 34111  1  0  0  0
 35 44  2  0  0  0
 35 45  1  0  0  0
 35 68  1  0  0  0
 36 56  1  0  0  0
 36112  1  0  0  0
 37 39  1  0  0  0
 37 47  1  0  0  0
 37 66  1  0  0  0
 37113  1  0  0  0
 38 43  2  0  0  0
 38 46  1  0  0  0
 38 47  1  0  0  0
 39 64  1  0  0  0
 39 67  2  0  0  0
 40 52  1  0  0  0
 40 53  2  0  0  0
 40 58  1  0  0  0
 41114  1  0  0  0
 41115  1  0  0  0
 41116  1  0  0  0
 41 48  1  0  0  0
 42 43  1  0  0  0
 42 66  1  0  0  0
 42117  1  0  0  0
 42118  1  0  0  0
 43 44  1  0  0  0
 44119  1  0  0  0
 45 46  2  0  0  0
 45120  1  0  0  0
 46121  1  0  0  0
 47122  1  0  0  0
 47123  1  0  0  0
 48 56  1  0  0  0
 48 65  1  0  0  0
 48124  1  0  0  0
 49 50  1  0  0  0
 49 53  1  0  0  0
 49 64  1  0  0  0
 49125  1  0  0  0
 50 51  1  0  0  0
 50126  1  0  0  0
 50127  1  0  0  0
 51 52  1  0  0  0
 51128  1  0  0  0
 51129  1  0  0  0
 52130  1  0  0  0
 52131  1  0  0  0
 53 54  1  0  0  0
 54 55  2  0  0  0
 54132  1  0  0  0
 55 57  1  0  0  0
 55133  1  0  0  0
 56 69  2  0  0  0
 57 58  2  0  0  0
 57134  1  0  0  0
 58135  1  0  0  0
 59 60  1  0  0  0
 59 61  1  0  0  0
 59 62  1  0  0  0
 60136  1  0  0  0
 60137  1  0  0  0
 60138  1  0  0  0
 61139  1  0  0  0
 61140  1  0  0  0
 61141  1  0  0  0
 62142  1  0  0  0
 62143  1  0  0  0
 62144  1  0  0  0
 63 65  1  0  0  0
 63145  1  0  0  0
 63146  1  0  0  0
 63147  1  0  0  0
 64148  1  0  0  0
 65149  1  0  0  0
 68 89  1  0  0  0
 71 73  2  0  0  0
 71 74  1  0  0  0
 71150  1  0  0  0
 72 73  1  0  0  0
 72 75  2  0  0  0
 72151  1  0  0  0
 73 83  1  0  0  0
 74 76  2  0  0  0
 74 84  1  0  0  0
 75 76  1  0  0  0
 75 85  1  0  0  0
 76 87  1  0  0  0
 77 84  1  0  0  0
 77152  1  0  0  0
 77153  1  0  0  0
 77154  1  0  0  0
 78155  1  0  0  0
 78156  1  0  0  0
 78157  1  0  0  0
 78 87  1  0  0  0
 79 87  1  0  0  0
 79158  1  0  0  0
 79159  1  0  0  0
 79160  1  0  0  0
 80161  1  0  0  0
 80162  1  0  0  0
 80163  1  0  0  0
 80 88  1  0  0  0
 81 88  1  0  0  0
 81164  1  0  0  0
 81165  1  0  0  0
 81166  1  0  0  0
 82 90  1  0  0  0
 82167  1  0  0  0
 82168  1  0  0  0
 82169  1  0  0  0
 83 88  1  0  0  0
 83170  1  0  0  0
 83171  1  0  0  0
 84172  1  0  0  0
 84173  1  0  0  0
 85 90  1  0  0  0
 85174  1  0  0  0
 85175  1  0  0  0
 86 88  1  0  0  0
 86 89  1  0  0  0
 86176  1  0  0  0
 86177  1  0  0  0
 87178  1  0  0  0
 89179  1  0  0  0
M  ISO  4   1 100  68 101  89 101  90 100
M  END
> <chiral flag>
0

> <version>
0

> <s_m_source_file>
/data/baiqing/PycharmProjects/Reinvent-master-3.2/result/LINK_invent/BTK/process_docking_weight1_custom_sum_contain_oxygen_bond_distance_aromatic_linkinvent_7_9_3/rearranged_h_0099.sdf

> <i_m_source_file_index>
12

> <r_mmod_Potential_Energy-OPLS-2005>
325.094268798828

> <r_mmod_Stretch_Energy-OPLS-2005>
90.9944076538086

> <r_mmod_Bend_Energy-OPLS-2005>
190.303451538086

> <r_mmod_Torsional_Energy-OPLS-2005>
375.112670898438

> <r_mmod_Improper_Torsional_Energy-OPLS-2005>
7.81457567214966

> <r_mmod_Van_der_Waal_Energy-OPLS-2005>
174.812942504883

> <r_mmod_Electrostatic_Energy-OPLS-2005>
-360.33837890625

> <r_mmod_Solvation_Energy-OPLS-2005>
-183.475234985352

> <b_mmod_Minimization_Converged-OPLS-2005>
0

> <r_mmod_RMS_Derivative-OPLS-2005>
14.541428565979

$$$$
12
                    3D
 Structure written by MMmdl.
167175  0  0  1  0            999 V2000
  -30.6671  -14.5378   20.4948 C   0  0  0  0  0  0
  -30.4263  -12.3204   19.4450 C   0  0  0  0  0  0
  -29.5043  -12.5025   18.2184 C   0  0  0  0  0  0
  -28.0224  -12.3688   18.6229 C   0  0  0  0  0  0
  -27.6632  -13.2115   19.8768 C   0  0  2  0  0  0
  -28.7087  -13.0283   21.0040 C   0  0  0  0  0  0
  -25.2592  -13.8185   20.5659 C   0  0  0  0  0  0
  -24.1846  -13.0455   20.9171 C   0  0  0  0  0  0
  -24.6407  -11.6923   20.8741 C   0  0  0  0  0  0
  -23.9080  -10.4306   21.0417 C   0  0  0  0  0  0
  -24.3634   -9.4219   21.9181 C   0  0  0  0  0  0
  -23.6320   -8.2255   22.0748 C   0  0  0  0  0  0
  -22.4300   -8.0284   21.3537 C   0  0  0  0  0  0
  -21.9935   -9.0258   20.4637 C   0  0  0  0  0  0
  -22.7265  -10.2144   20.3054 C   0  0  0  0  0  0
  -21.6862   -6.0747   22.5271 C   0  0  0  0  0  0
  -21.4013   -6.5645   23.8199 C   0  0  0  0  0  0
  -21.3675   -5.6800   24.9160 C   0  0  0  0  0  0
  -21.6064   -4.3061   24.7210 C   0  0  0  0  0  0
  -21.8823   -3.8159   23.4332 C   0  0  0  0  0  0
  -21.9189   -4.6972   22.3384 C   0  0  0  0  0  0
  -22.7866  -13.5244   21.1826 C   0  0  0  0  0  0
  -22.1656   -4.2165   21.0965 F   0  0  0  0  0  0
  -21.5641   -3.4544   25.7725 F   0  0  0  0  0  0
  -30.0394  -13.3270   20.4485 N   0  0  0  0  0  0
  -26.3037  -12.9349   20.3375 N   0  0  0  0  0  0
  -25.9342  -11.6513   20.5798 N   0  0  0  0  0  0
  -22.0507  -12.8242   22.0375 N   0  0  0  0  0  0
  -25.4342  -15.1899   20.4025 N   0  0  0  0  0  0
  -31.8001  -14.7186   20.0413 O   0  0  0  0  0  0
  -21.6649   -6.8892   21.4234 O   0  0  0  0  0  0
  -22.3553  -14.5551   20.6656 O   0  0  0  0  0  0
  -24.6141  -31.8674   23.2097 C   0  0  0  0  0  0
  -25.9035  -32.4821   23.8390 C   0  0  1  0  0  0
  -27.2328  -27.4137   20.1121 C   0  0  0  0  0  0
  -25.5895  -33.8616   24.2329 N   0  0  0  0  0  0
  -23.4023  -30.4925   21.5493 C   0  0  2  0  0  0
  -24.8494  -28.9545   20.1138 C   0  0  0  0  0  0
  -22.7393  -29.4666   22.4965 C   0  0  0  0  0  0
  -18.0269  -28.1360   22.8500 C   0  0  0  0  0  0
  -24.1479  -36.7299   23.2644 C   0  0  0  0  0  0
  -25.9334  -30.8271   21.3669 C   0  0  0  0  0  0
  -26.0093  -29.4614   20.7119 C   0  0  0  0  0  0
  -27.2020  -28.7003   20.7035 C   0  0  0  0  0  0
  -26.0551  -26.9295   19.4972 C   0  0  0  0  0  0
  -24.8688  -27.6887   19.5027 C   0  0  0  0  0  0
  -23.6113  -29.8234   20.1639 C   0  0  0  0  0  0
  -25.4103  -36.3116   24.0349 C   0  0  1  0  0  0
  -20.5861  -28.3659   23.1310 C   0  0  2  0  0  0
  -20.6760  -26.9394   22.5417 C   0  0  0  0  0  0
  -19.5745  -26.6372   21.5210 C   0  0  0  0  0  0
  -18.1923  -26.7911   22.1616 C   0  0  0  0  0  0
  -19.1524  -28.8824   23.2908 C   0  0  0  0  0  0
  -18.9455  -30.1428   23.8918 C   0  0  0  0  0  0
  -17.6466  -30.6581   24.0561 C   0  0  0  0  0  0
  -25.9035  -34.9478   23.5139 C   0  0  0  0  0  0
  -16.5352  -29.9085   23.6329 C   0  0  0  0  0  0
  -16.7263  -28.6491   23.0368 C   0  0  0  0  0  0
  -26.4465  -31.6602   25.0722 C   0  0  0  0  0  0
  -25.3737  -31.3701   26.1486 C   0  0  0  0  0  0
  -27.0302  -30.3044   24.6104 C   0  0  0  0  0  0
  -27.6034  -32.4327   25.7478 C   0  0  0  0  0  0
  -27.5582  -37.1814   24.8473 C   0  0  0  0  0  0
  -21.4123  -29.3033   22.3704 N   0  0  0  0  0  0
  -26.4294  -37.3802   23.9421 N   0  0  0  0  0  0
  -24.6678  -31.0777   22.0992 N   0  0  0  0  0  0
  -23.4168  -28.8212   23.3013 O   0  0  0  0  0  0
  -28.4049  -26.6759   20.1549 O   0  0  0  0  0  0
  -26.5607  -34.8937   22.4709 O   0  0  0  0  0  0
  -23.5337  -32.1437   23.7492 O   0  0  0  0  0  0
  -29.8353  -19.4288   20.1458 C   0  0  0  0  0  0
  -31.5712  -18.1484   21.2313 C   0  0  0  0  0  0
  -30.3666  -18.1568   20.5164 C   0  0  0  0  0  0
  -30.5306  -20.6350   20.4627 C   0  0  0  0  0  0
  -31.7565  -20.4711   21.1633 C   0  0  0  0  0  0
  -32.6837  -21.6270   21.4889 C   0  0  0  0  0  0
  -29.1683  -21.9757   18.7189 C   0  0  0  0  0  0
  -29.7162  -16.8383   20.0431 C   0  0  0  0  0  0
  -29.4122  -22.9739   21.0619 C   0  0  0  0  0  0
  -30.8547  -25.1586   20.6838 C   0  0  0  0  0  0
  -28.3495  -25.2314   20.0532 C   0  0  0  0  0  0
  -30.0654  -22.0485   19.9679 C   0  0  1  0  0  0
  -29.4459  -24.5569   20.9382 C   0  0  1  0  0  0
  -32.2413  -19.2716   21.5498 N   0  0  0  0  0  0
  -29.8768  -15.5843   20.8286 N   0  0  0  0  0  0
  -31.6634  -25.2306   21.9158 N   0  3  0  0  0  0
  -31.4738  -12.4067   19.1482 H   0  0  0  0  0  0
  -30.3154  -11.3181   19.8613 H   0  0  0  0  0  0
  -29.7494  -11.7714   17.4463 H   0  0  0  0  0  0
  -29.6740  -13.4849   17.7740 H   0  0  0  0  0  0
  -27.8250  -11.3137   18.8162 H   0  0  0  0  0  0
  -27.3767  -12.6472   17.7886 H   0  0  0  0  0  0
  -27.6973  -14.2539   19.5626 H   0  0  0  0  0  0
  -28.6883  -12.0079   21.3885 H   0  0  0  0  0  0
  -28.4766  -13.6692   21.8556 H   0  0  0  0  0  0
  -25.2791   -9.5709   22.4725 H   0  0  0  0  0  0
  -24.0044   -7.4658   22.7467 H   0  0  0  0  0  0
  -21.0859   -8.8811   19.8939 H   0  0  0  0  0  0
  -22.3747  -10.9687   19.6165 H   0  0  0  0  0  0
  -21.2000   -7.6155   23.9721 H   0  0  0  0  0  0
  -21.1496   -6.0508   25.9066 H   0  0  0  0  0  0
  -22.0584   -2.7618   23.2817 H   0  0  0  0  0  0
  -22.4133  -11.9937   22.4810 H   0  0  0  0  0  0
  -21.1105  -13.1255   22.2545 H   0  0  0  0  0  0
  -24.6708  -15.8508   20.5006 H   0  0  0  0  0  0
  -26.2857  -15.6206   20.0651 H   0  0  0  0  0  0
  -26.7099  -32.5527   23.1144 H   0  0  0  0  0  0
  -25.0056  -33.9769   25.0486 H   0  0  0  0  0  0
  -22.6924  -31.3105   21.4102 H   0  0  0  0  0  0
  -23.3757  -35.9616   23.3314 H   0  0  0  0  0  0
  -24.3574  -36.8903   22.2056 H   0  0  0  0  0  0
  -23.7211  -37.6499   23.6648 H   0  0  0  0  0  0
  -26.0571  -31.5944   20.6012 H   0  0  0  0  0  0
  -26.8157  -30.8720   21.9935 H   0  0  0  0  0  0
  -28.0935  -29.0911   21.1741 H   0  0  0  0  0  0
  -26.0393  -25.9655   19.0106 H   0  0  0  0  0  0
  -23.9780  -27.2932   19.0355 H   0  0  0  0  0  0
  -23.7188  -30.5990   19.4041 H   0  0  0  0  0  0
  -22.7346  -29.2436   19.8690 H   0  0  0  0  0  0
  -25.1279  -36.1980   25.0843 H   0  0  0  0  0  0
  -20.9966  -28.3234   24.1427 H   0  0  0  0  0  0
  -20.5636  -26.2281   23.3612 H   0  0  0  0  0  0
  -21.6639  -26.7425   22.1234 H   0  0  0  0  0  0
  -19.6911  -25.6283   21.1242 H   0  0  0  0  0  0
  -19.6685  -27.3178   20.6737 H   0  0  0  0  0  0
  -17.4198  -26.6675   21.4011 H   0  0  0  0  0  0
  -18.0315  -26.0030   22.8986 H   0  0  0  0  0  0
  -19.7941  -30.7226   24.2302 H   0  0  0  0  0  0
  -17.5034  -31.6271   24.5144 H   0  0  0  0  0  0
  -15.5359  -30.3000   23.7637 H   0  0  0  0  0  0
  -15.8658  -28.0803   22.7098 H   0  0  0  0  0  0
  -24.5899  -30.7059   25.7835 H   0  0  0  0  0  0
  -24.8947  -32.2854   26.4967 H   0  0  0  0  0  0
  -25.8108  -30.8852   27.0226 H   0  0  0  0  0  0
  -26.2851  -29.6800   24.1164 H   0  0  0  0  0  0
  -27.4084  -29.7282   25.4559 H   0  0  0  0  0  0
  -27.8680  -30.4370   23.9253 H   0  0  0  0  0  0
  -27.2648  -33.3619   26.2072 H   0  0  0  0  0  0
  -28.3829  -32.6904   25.0295 H   0  0  0  0  0  0
  -28.0721  -31.8450   26.5385 H   0  0  0  0  0  0
  -28.2621  -38.0094   24.7529 H   0  0  0  0  0  0
  -28.1062  -36.2636   24.6287 H   0  0  0  0  0  0
  -27.2314  -37.1453   25.8882 H   0  0  0  0  0  0
  -20.9262  -29.8755   21.6936 H   0  0  0  0  0  0
  -26.0184  -38.2885   24.1413 H   0  0  0  0  0  0
  -28.9231  -19.4611   19.5685 H   0  0  0  0  0  0
  -32.0396  -17.2193   21.5179 H   0  0  0  0  0  0
  -32.1548  -22.4217   22.0078 H   0  0  0  0  0  0
  -33.1387  -22.0263   20.5824 H   0  0  0  0  0  0
  -33.4943  -21.3024   22.1418 H   0  0  0  0  0  0
  -29.6298  -21.3802   17.9315 H   0  0  0  0  0  0
  -28.9991  -22.9620   18.2946 H   0  0  0  0  0  0
  -28.1889  -21.5509   18.9428 H   0  0  0  0  0  0
  -30.0469  -16.6614   19.0186 H   0  0  0  0  0  0
  -28.6437  -17.0139   19.9612 H   0  0  0  0  0  0
  -29.8984  -22.7418   22.0081 H   0  0  0  0  0  0
  -28.3802  -22.6547   21.2231 H   0  0  0  0  0  0
  -30.7789  -26.1802   20.3089 H   0  0  0  0  0  0
  -31.3891  -24.6179   19.9061 H   0  0  0  0  0  0
  -27.3865  -24.8567   20.4036 H   0  0  0  0  0  0
  -28.4443  -24.9523   19.0056 H   0  0  0  0  0  0
  -30.9845  -22.5213   19.6278 H   0  0  0  0  0  0
  -29.1538  -24.9031   21.9307 H   0  0  0  0  0  0
  -29.0448  -15.3058   21.3261 H   0  0  0  0  0  0
  -31.2551  -25.8849   22.5616 H   0  0  0  0  0  0
  -32.5914  -25.5543   21.7032 H   0  0  0  0  0  0
  -31.7327  -24.3421   22.3745 H   0  0  0  0  0  0
  1 25  1  0  0  0
  1 30  2  0  0  0
  1 85  1  0  0  0
  2  3  1  0  0  0
  2 25  1  0  0  0
  2 87  1  0  0  0
  2 88  1  0  0  0
  3  4  1  0  0  0
  3 89  1  0  0  0
  3 90  1  0  0  0
  4  5  1  0  0  0
  4 91  1  0  0  0
  4 92  1  0  0  0
  5  6  1  0  0  0
  5 26  1  0  0  0
  5 93  1  0  0  0
  6 25  1  0  0  0
  6 94  1  0  0  0
  6 95  1  0  0  0
  7  8  2  0  0  0
  7 26  1  0  0  0
  7 29  1  0  0  0
  8  9  1  0  0  0
  8 22  1  0  0  0
  9 10  1  0  0  0
  9 27  2  0  0  0
 10 11  2  0  0  0
 10 15  1  0  0  0
 11 12  1  0  0  0
 11 96  1  0  0  0
 12 13  2  0  0  0
 12 97  1  0  0  0
 13 14  1  0  0  0
 13 31  1  0  0  0
 14 15  2  0  0  0
 14 98  1  0  0  0
 15 99  1  0  0  0
 16 17  2  0  0  0
 16 21  1  0  0  0
 16 31  1  0  0  0
 17 18  1  0  0  0
 17100  1  0  0  0
 18 19  2  0  0  0
 18101  1  0  0  0
 19 20  1  0  0  0
 19 24  1  0  0  0
 20 21  2  0  0  0
 20102  1  0  0  0
 21 23  1  0  0  0
 22 28  1  0  0  0
 22 32  2  0  0  0
 26 27  1  0  0  0
 28103  1  0  0  0
 28104  1  0  0  0
 29105  1  0  0  0
 29106  1  0  0  0
 33 34  1  0  0  0
 33 66  1  0  0  0
 33 70  2  0  0  0
 34 36  1  0  0  0
 34 59  1  0  0  0
 34107  1  0  0  0
 35 44  2  0  0  0
 35 45  1  0  0  0
 35 68  1  0  0  0
 36 56  1  0  0  0
 36108  1  0  0  0
 37 39  1  0  0  0
 37 47  1  0  0  0
 37 66  1  0  0  0
 37109  1  0  0  0
 38 43  2  0  0  0
 38 46  1  0  0  0
 38 47  1  0  0  0
 39 64  1  0  0  0
 39 67  2  0  0  0
 40 52  1  0  0  0
 40 53  2  0  0  0
 40 58  1  0  0  0
 41110  1  0  0  0
 41111  1  0  0  0
 41112  1  0  0  0
 41 48  1  0  0  0
 42 43  1  0  0  0
 42 66  1  0  0  0
 42113  1  0  0  0
 42114  1  0  0  0
 43 44  1  0  0  0
 44115  1  0  0  0
 45 46  2  0  0  0
 45116  1  0  0  0
 46117  1  0  0  0
 47118  1  0  0  0
 47119  1  0  0  0
 48 56  1  0  0  0
 48 65  1  0  0  0
 48120  1  0  0  0
 49 50  1  0  0  0
 49 53  1  0  0  0
 49 64  1  0  0  0
 49121  1  0  0  0
 50 51  1  0  0  0
 50122  1  0  0  0
 50123  1  0  0  0
 51 52  1  0  0  0
 51124  1  0  0  0
 51125  1  0  0  0
 52126  1  0  0  0
 52127  1  0  0  0
 53 54  1  0  0  0
 54 55  2  0  0  0
 54128  1  0  0  0
 55 57  1  0  0  0
 55129  1  0  0  0
 56 69  2  0  0  0
 57 58  2  0  0  0
 57130  1  0  0  0
 58131  1  0  0  0
 59 60  1  0  0  0
 59 61  1  0  0  0
 59 62  1  0  0  0
 60132  1  0  0  0
 60133  1  0  0  0
 60134  1  0  0  0
 61135  1  0  0  0
 61136  1  0  0  0
 61137  1  0  0  0
 62138  1  0  0  0
 62139  1  0  0  0
 62140  1  0  0  0
 63 65  1  0  0  0
 63141  1  0  0  0
 63142  1  0  0  0
 63143  1  0  0  0
 64144  1  0  0  0
 65145  1  0  0  0
 68 81  1  0  0  0
 71 73  2  0  0  0
 71 74  1  0  0  0
 71146  1  0  0  0
 72 73  1  0  0  0
 72 84  2  0  0  0
 72147  1  0  0  0
 73 78  1  0  0  0
 74 75  2  0  0  0
 74 82  1  0  0  0
 75 76  1  0  0  0
 75 84  1  0  0  0
 76148  1  0  0  0
 76149  1  0  0  0
 76150  1  0  0  0
 77151  1  0  0  0
 77152  1  0  0  0
 77153  1  0  0  0
 77 82  1  0  0  0
 78 85  1  0  0  0
 78154  1  0  0  0
 78155  1  0  0  0
 79 82  1  0  0  0
 79156  1  0  0  0
 79157  1  0  0  0
 79 83  1  0  0  0
 80 83  1  0  0  0
 80 86  1  0  0  0
 80158  1  0  0  0
 80159  1  0  0  0
 81 83  1  0  0  0
 81160  1  0  0  0
 81161  1  0  0  0
 82162  1  0  0  0
 83163  1  0  0  0
 85164  1  0  0  0
 86165  1  0  0  0
 86166  1  0  0  0
 86167  1  0  0  0
M  CHG  1  86   1
M  ISO  4   1 100  68 101  81 101  85 100
M  END
> <chiral flag>
0

> <version>
0

> <s_m_source_file>
/data/baiqing/PycharmProjects/Reinvent-master-3.2/result/LINK_invent/BTK/process_docking_weight1_custom_sum_contain_oxygen_bond_distance_aromatic_linkinvent_7_9_3/rearranged_h_0099.sdf

> <i_m_source_file_index>
13

> <r_mmod_Potential_Energy-OPLS-2005>
-354.456726074219

> <r_mmod_Stretch_Energy-OPLS-2005>
55.2025833129883

> <r_mmod_Bend_Energy-OPLS-2005>
129.573745727539

> <r_mmod_Torsional_Energy-OPLS-2005>
247.273849487305

> <r_mmod_Improper_Torsional_Energy-OPLS-2005>
9.44075489044189

> <r_mmod_Van_der_Waal_Energy-OPLS-2005>
150.061676025391

> <r_mmod_Electrostatic_Energy-OPLS-2005>
-442.423522949219

> <r_mmod_Solvation_Energy-OPLS-2005>
-524.168579101562

> <b_mmod_Minimization_Converged-OPLS-2005>
0

> <r_mmod_RMS_Derivative-OPLS-2005>
2.92052102088928

$$$$
13
                    3D
 Structure written by MMmdl.
183191  0  0  1  0            999 V2000
  -30.6051  -14.7625   20.4748 C   0  0  0  0  0  0
  -30.4338  -12.4723   19.4693 C   0  0  0  0  0  0
  -29.5056  -12.5065   18.2350 C   0  0  0  0  0  0
  -28.0349  -12.3210   18.6573 C   0  0  0  0  0  0
  -27.6387  -13.2298   19.8506 C   0  0  2  0  0  0
  -28.6850  -13.1717   20.9830 C   0  0  0  0  0  0
  -25.2513  -13.8196   20.5690 C   0  0  0  0  0  0
  -24.1801  -13.0443   20.9200 C   0  0  0  0  0  0
  -24.6390  -11.6924   20.8754 C   0  0  0  0  0  0
  -23.9076  -10.4291   21.0416 C   0  0  0  0  0  0
  -24.3638   -9.4183   21.9161 C   0  0  0  0  0  0
  -23.6311   -8.2231   22.0727 C   0  0  0  0  0  0
  -22.4281   -8.0290   21.3542 C   0  0  0  0  0  0
  -21.9906   -9.0274   20.4667 C   0  0  0  0  0  0
  -22.7251  -10.2143   20.3073 C   0  0  0  0  0  0
  -21.6858   -6.0747   22.5273 C   0  0  0  0  0  0
  -21.4028   -6.5651   23.8208 C   0  0  0  0  0  0
  -21.3664   -5.6798   24.9166 C   0  0  0  0  0  0
  -21.6038   -4.3063   24.7210 C   0  0  0  0  0  0
  -21.8822   -3.8161   23.4331 C   0  0  0  0  0  0
  -21.9186   -4.6975   22.3389 C   0  0  0  0  0  0
  -22.7834  -13.5242   21.1885 C   0  0  0  0  0  0
  -22.1654   -4.2163   21.0971 F   0  0  0  0  0  0
  -21.5627   -3.4546   25.7727 F   0  0  0  0  0  0
  -29.9810  -13.5358   20.3959 N   0  0  0  0  0  0
  -26.2929  -12.9395   20.3296 N   0  0  0  0  0  0
  -25.9321  -11.6543   20.5770 N   0  0  0  0  0  0
  -22.0498  -12.8202   22.0428 N   0  0  0  0  0  0
  -25.4154  -15.1920   20.4060 N   0  0  0  0  0  0
  -31.8005  -14.8622   20.1885 O   0  0  0  0  0  0
  -21.6639   -6.8885   21.4238 O   0  0  0  0  0  0
  -22.3545  -14.5598   20.6826 O   0  0  0  0  0  0
  -24.6299  -31.8533   23.1961 C   0  0  0  0  0  0
  -25.9123  -32.4740   23.8307 C   0  0  1  0  0  0
  -27.2272  -27.2566   20.1290 C   0  0  0  0  0  0
  -25.5925  -33.8540   24.2229 N   0  0  0  0  0  0
  -23.4274  -30.4723   21.5399 C   0  0  2  0  0  0
  -24.8750  -28.9157   20.1031 C   0  0  0  0  0  0
  -22.7497  -29.4583   22.4930 C   0  0  0  0  0  0
  -18.0273  -28.1402   22.8486 C   0  0  0  0  0  0
  -24.1486  -36.7287   23.2638 C   0  0  0  0  0  0
  -25.9711  -30.7611   21.3778 C   0  0  0  0  0  0
  -26.0423  -29.3832   20.7188 C   0  0  0  0  0  0
  -27.2134  -28.5634   20.7245 C   0  0  0  0  0  0
  -26.0429  -26.8570   19.4702 C   0  0  0  0  0  0
  -24.8811  -27.6597   19.4691 C   0  0  0  0  0  0
  -23.6435  -29.8032   20.1551 C   0  0  0  0  0  0
  -25.4115  -36.3064   24.0322 C   0  0  1  0  0  0
  -20.5884  -28.3707   23.1294 C   0  0  2  0  0  0
  -20.6792  -26.9431   22.5432 C   0  0  0  0  0  0
  -19.5771  -26.6397   21.5238 C   0  0  0  0  0  0
  -18.1930  -26.7945   22.1620 C   0  0  0  0  0  0
  -19.1531  -28.8874   23.2873 C   0  0  0  0  0  0
  -18.9457  -30.1478   23.8892 C   0  0  0  0  0  0
  -17.6456  -30.6603   24.0573 C   0  0  0  0  0  0
  -25.9064  -34.9430   23.5088 C   0  0  0  0  0  0
  -16.5346  -29.9102   23.6351 C   0  0  0  0  0  0
  -16.7263  -28.6522   23.0364 C   0  0  0  0  0  0
  -26.4482  -31.6570   25.0706 C   0  0  0  0  0  0
  -25.3709  -31.3729   26.1442 C   0  0  0  0  0  0
  -27.0327  -30.2977   24.6210 C   0  0  0  0  0  0
  -27.6032  -32.4330   25.7473 C   0  0  0  0  0  0
  -27.5582  -37.1789   24.8459 C   0  0  0  0  0  0
  -21.4205  -29.3026   22.3673 N   0  0  0  0  0  0
  -26.4295  -37.3758   23.9415 N   0  0  0  0  0  0
  -24.6947  -31.0488   22.0940 N   0  0  0  0  0  0
  -23.4190  -28.8139   23.3041 O   0  0  0  0  0  0
  -28.3426  -26.3919   20.2381 O   0  0  0  0  0  0
  -26.5641  -34.8903   22.4665 O   0  0  0  0  0  0
  -23.5459  -32.1377   23.7266 O   0  0  0  0  0  0
  -26.0563  -23.5936   22.6163 C   0  0  0  0  0  0
  -26.7836  -24.3483   21.7044 C   0  0  0  0  0  0
  -26.5452  -22.3561   23.0331 C   0  0  0  0  0  0
  -27.8843  -23.8320   20.9883 C   0  0  0  0  0  0
  -27.7953  -21.8951   22.5355 C   0  0  0  0  0  0
  -28.3111  -22.4297   21.2964 C   0  0  0  0  0  0
  -28.2166  -19.5286   23.5616 C   0  0  0  0  0  0
  -28.8910  -21.6324   24.8380 C   0  0  0  0  0  0
  -30.0563  -22.0375   19.3775 C   0  0  0  0  0  0
  -25.6210  -21.5150   23.9051 C   0  0  0  0  0  0
  -28.3817  -24.9068   19.9215 C   0  0  0  0  0  0
  -24.9016  -20.4859   23.0140 C   0  0  0  0  0  0
  -23.9666  -19.5272   23.7630 C   0  0  0  0  0  0
  -30.2266  -17.3674   20.9189 C   0  0  0  0  0  0
  -23.1184  -18.6922   22.7841 C   0  0  0  0  0  0
  -29.3604  -18.6268   20.3247 C   0  0  0  0  0  0
  -28.6627  -21.0007   23.4486 C   0  0  0  0  0  0
  -29.0500  -21.3607   20.3190 C   0  0  1  0  0  0
  -29.8282  -15.8976   20.6868 N   0  0  0  0  0  0
  -22.2084  -17.7651   23.4749 N   0  3  0  0  0  0
  -29.6748  -20.0456   20.8652 N   0  3  0  0  0  0
  -31.4711  -12.6087   19.1619 H   0  0  0  0  0  0
  -30.3882  -11.4984   19.9587 H   0  0  0  0  0  0
  -29.7895  -11.7290   17.5235 H   0  0  0  0  0  0
  -29.6193  -13.4580   17.7132 H   0  0  0  0  0  0
  -27.9032  -11.2736   18.9330 H   0  0  0  0  0  0
  -27.3701  -12.4960   17.8099 H   0  0  0  0  0  0
  -27.6296  -14.2470   19.4624 H   0  0  0  0  0  0
  -28.7257  -12.1739   21.4224 H   0  0  0  0  0  0
  -28.4146  -13.8509   21.7931 H   0  0  0  0  0  0
  -25.2818   -9.5627   22.4701 H   0  0  0  0  0  0
  -24.0058   -7.4588   22.7392 H   0  0  0  0  0  0
  -21.0824   -8.8821   19.8993 H   0  0  0  0  0  0
  -22.3703  -10.9696   19.6198 H   0  0  0  0  0  0
  -21.2036   -7.6164   23.9717 H   0  0  0  0  0  0
  -21.1481   -6.0530   25.9072 H   0  0  0  0  0  0
  -22.0603   -2.7619   23.2828 H   0  0  0  0  0  0
  -22.4119  -11.9813   22.4712 H   0  0  0  0  0  0
  -21.1126  -13.1202   22.2693 H   0  0  0  0  0  0
  -24.6262  -15.8256   20.4618 H   0  0  0  0  0  0
  -26.2382  -15.6222   20.0060 H   0  0  0  0  0  0
  -26.7171  -32.5367   23.1026 H   0  0  0  0  0  0
  -25.0067  -33.9670   25.0375 H   0  0  0  0  0  0
  -22.7220  -31.2935   21.3942 H   0  0  0  0  0  0
  -23.3754  -35.9608   23.3276 H   0  0  0  0  0  0
  -24.3581  -36.8964   22.2060 H   0  0  0  0  0  0
  -23.7225  -37.6472   23.6690 H   0  0  0  0  0  0
  -26.1121  -31.5191   20.6065 H   0  0  0  0  0  0
  -26.8479  -30.8079   22.0126 H   0  0  0  0  0  0
  -28.1033  -28.9093   21.2319 H   0  0  0  0  0  0
  -25.9899  -25.8938   18.9849 H   0  0  0  0  0  0
  -23.9867  -27.2954   18.9809 H   0  0  0  0  0  0
  -23.7603  -30.5811   19.3988 H   0  0  0  0  0  0
  -22.7610  -29.2346   19.8575 H   0  0  0  0  0  0
  -25.1280  -36.1913   25.0810 H   0  0  0  0  0  0
  -20.9948  -28.3302   24.1426 H   0  0  0  0  0  0
  -20.5768  -26.2299   23.3618 H   0  0  0  0  0  0
  -21.6653  -26.7515   22.1179 H   0  0  0  0  0  0
  -19.6957  -25.6311   21.1266 H   0  0  0  0  0  0
  -19.6737  -27.3212   20.6774 H   0  0  0  0  0  0
  -17.4219  -26.6710   21.3989 H   0  0  0  0  0  0
  -18.0305  -26.0085   22.9011 H   0  0  0  0  0  0
  -19.7939  -30.7300   24.2254 H   0  0  0  0  0  0
  -17.5017  -31.6288   24.5173 H   0  0  0  0  0  0
  -15.5357  -30.3008   23.7702 H   0  0  0  0  0  0
  -15.8652  -28.0861   22.7088 H   0  0  0  0  0  0
  -24.5895  -30.7052   25.7793 H   0  0  0  0  0  0
  -24.8877  -32.2891   26.4834 H   0  0  0  0  0  0
  -25.8038  -30.8950   27.0239 H   0  0  0  0  0  0
  -26.2910  -29.6717   24.1231 H   0  0  0  0  0  0
  -27.3989  -29.7239   25.4734 H   0  0  0  0  0  0
  -27.8788  -30.4233   23.9454 H   0  0  0  0  0  0
  -27.2633  -33.3657   26.1980 H   0  0  0  0  0  0
  -28.3851  -32.6862   25.0303 H   0  0  0  0  0  0
  -28.0660  -31.8503   26.5443 H   0  0  0  0  0  0
  -28.2568  -38.0112   24.7543 H   0  0  0  0  0  0
  -28.1113  -36.2650   24.6238 H   0  0  0  0  0  0
  -27.2315  -37.1395   25.8863 H   0  0  0  0  0  0
  -20.9403  -29.8708   21.6839 H   0  0  0  0  0  0
  -26.0179  -38.2836   24.1422 H   0  0  0  0  0  0
  -25.1352  -23.9950   23.0169 H   0  0  0  0  0  0
  -26.3943  -25.3287   21.4971 H   0  0  0  0  0  0
  -27.9538  -19.0912   22.6043 H   0  0  0  0  0  0
  -27.3468  -19.3904   24.1965 H   0  0  0  0  0  0
  -29.0055  -18.9190   24.0042 H   0  0  0  0  0  0
  -29.2918  -22.6433   24.7467 H   0  0  0  0  0  0
  -29.6126  -21.0511   25.4124 H   0  0  0  0  0  0
  -27.9927  -21.7039   25.4455 H   0  0  0  0  0  0
  -29.5511  -22.7264   18.7041 H   0  0  0  0  0  0
  -30.5626  -21.3095   18.7432 H   0  0  0  0  0  0
  -30.8171  -22.5892   19.9301 H   0  0  0  0  0  0
  -24.8759  -22.1581   24.3754 H   0  0  0  0  0  0
  -26.1279  -21.0396   24.7357 H   0  0  0  0  0  0
  -27.8878  -24.7172   18.9682 H   0  0  0  0  0  0
  -29.4371  -24.7074   19.7447 H   0  0  0  0  0  0
  -25.6379  -19.8980   22.4659 H   0  0  0  0  0  0
  -24.3362  -21.0249   22.2519 H   0  0  0  0  0  0
  -23.3101  -20.0987   24.4212 H   0  0  0  0  0  0
  -24.5630  -18.8706   24.3987 H   0  0  0  0  0  0
  -30.2549  -17.4793   22.0038 H   0  0  0  0  0  0
  -31.2625  -17.4911   20.6002 H   0  0  0  0  0  0
  -23.7629  -18.1204   22.1150 H   0  0  0  0  0  0
  -22.5245  -19.3540   22.1524 H   0  0  0  0  0  0
  -28.3013  -18.4324   20.4918 H   0  0  0  0  0  0
  -29.4807  -18.6483   19.2416 H   0  0  0  0  0  0
  -29.6768  -21.0271   23.0600 H   0  0  0  0  0  0
  -28.2309  -21.0133   19.6889 H   0  0  0  0  0  0
  -28.8483  -15.7010   20.8220 H   0  0  0  0  0  0
  -22.7232  -17.0468   23.9527 H   0  0  0  0  0  0
  -21.5969  -17.3257   22.8085 H   0  0  0  0  0  0
  -21.6396  -18.2568   24.1413 H   0  0  0  0  0  0
  -30.6731  -20.1702   20.8205 H   0  0  0  0  0  0
  -29.4337  -20.0253   21.8450 H   0  0  0  0  0  0
  1 25  1  0  0  0
  1 30  2  0  0  0
  1 89  1  0  0  0
  2  3  1  0  0  0
  2 25  1  0  0  0
  2 92  1  0  0  0
  2 93  1  0  0  0
  3  4  1  0  0  0
  3 94  1  0  0  0
  3 95  1  0  0  0
  4  5  1  0  0  0
  4 96  1  0  0  0
  4 97  1  0  0  0
  5  6  1  0  0  0
  5 26  1  0  0  0
  5 98  1  0  0  0
  6 25  1  0  0  0
  6 99  1  0  0  0
  6100  1  0  0  0
  7  8  2  0  0  0
  7 26  1  0  0  0
  7 29  1  0  0  0
  8  9  1  0  0  0
  8 22  1  0  0  0
  9 10  1  0  0  0
  9 27  2  0  0  0
 10 11  2  0  0  0
 10 15  1  0  0  0
 11 12  1  0  0  0
 11101  1  0  0  0
 12 13  2  0  0  0
 12102  1  0  0  0
 13 14  1  0  0  0
 13 31  1  0  0  0
 14 15  2  0  0  0
 14103  1  0  0  0
 15104  1  0  0  0
 16 17  2  0  0  0
 16 21  1  0  0  0
 16 31  1  0  0  0
 17 18  1  0  0  0
 17105  1  0  0  0
 18 19  2  0  0  0
 18106  1  0  0  0
 19 20  1  0  0  0
 19 24  1  0  0  0
 20 21  2  0  0  0
 20107  1  0  0  0
 21 23  1  0  0  0
 22 28  1  0  0  0
 22 32  2  0  0  0
 26 27  1  0  0  0
 28108  1  0  0  0
 28109  1  0  0  0
 29110  1  0  0  0
 29111  1  0  0  0
 33 34  1  0  0  0
 33 66  1  0  0  0
 33 70  2  0  0  0
 34 36  1  0  0  0
 34 59  1  0  0  0
 34112  1  0  0  0
 35 44  2  0  0  0
 35 45  1  0  0  0
 35 68  1  0  0  0
 36 56  1  0  0  0
 36113  1  0  0  0
 37 39  1  0  0  0
 37 47  1  0  0  0
 37 66  1  0  0  0
 37114  1  0  0  0
 38 43  2  0  0  0
 38 46  1  0  0  0
 38 47  1  0  0  0
 39 64  1  0  0  0
 39 67  2  0  0  0
 40 52  1  0  0  0
 40 53  2  0  0  0
 40 58  1  0  0  0
 41115  1  0  0  0
 41116  1  0  0  0
 41117  1  0  0  0
 41 48  1  0  0  0
 42 43  1  0  0  0
 42 66  1  0  0  0
 42118  1  0  0  0
 42119  1  0  0  0
 43 44  1  0  0  0
 44120  1  0  0  0
 45 46  2  0  0  0
 45121  1  0  0  0
 46122  1  0  0  0
 47123  1  0  0  0
 47124  1  0  0  0
 48 56  1  0  0  0
 48 65  1  0  0  0
 48125  1  0  0  0
 49 50  1  0  0  0
 49 53  1  0  0  0
 49 64  1  0  0  0
 49126  1  0  0  0
 50 51  1  0  0  0
 50127  1  0  0  0
 50128  1  0  0  0
 51 52  1  0  0  0
 51129  1  0  0  0
 51130  1  0  0  0
 52131  1  0  0  0
 52132  1  0  0  0
 53 54  1  0  0  0
 54 55  2  0  0  0
 54133  1  0  0  0
 55 57  1  0  0  0
 55134  1  0  0  0
 56 69  2  0  0  0
 57 58  2  0  0  0
 57135  1  0  0  0
 58136  1  0  0  0
 59 60  1  0  0  0
 59 61  1  0  0  0
 59 62  1  0  0  0
 60137  1  0  0  0
 60138  1  0  0  0
 60139  1  0  0  0
 61140  1  0  0  0
 61141  1  0  0  0
 61142  1  0  0  0
 62143  1  0  0  0
 62144  1  0  0  0
 62145  1  0  0  0
 63 65  1  0  0  0
 63146  1  0  0  0
 63147  1  0  0  0
 63148  1  0  0  0
 64149  1  0  0  0
 65150  1  0  0  0
 68 81  1  0  0  0
 71 72  2  0  0  0
 71 73  1  0  0  0
 71151  1  0  0  0
 72 74  1  0  0  0
 72152  1  0  0  0
 73 75  2  0  0  0
 73 80  1  0  0  0
 74 76  2  0  0  0
 74 81  1  0  0  0
 75 76  1  0  0  0
 75 87  1  0  0  0
 76 88  1  0  0  0
 77153  1  0  0  0
 77154  1  0  0  0
 77155  1  0  0  0
 77 87  1  0  0  0
 78 87  1  0  0  0
 78156  1  0  0  0
 78157  1  0  0  0
 78158  1  0  0  0
 79159  1  0  0  0
 79160  1  0  0  0
 79161  1  0  0  0
 79 88  1  0  0  0
 80 82  1  0  0  0
 80162  1  0  0  0
 80163  1  0  0  0
 81164  1  0  0  0
 81165  1  0  0  0
 82 83  1  0  0  0
 82166  1  0  0  0
 82167  1  0  0  0
 83 85  1  0  0  0
 83168  1  0  0  0
 83169  1  0  0  0
 84 86  1  0  0  0
 84 89  1  0  0  0
 84170  1  0  0  0
 84171  1  0  0  0
 85 90  1  0  0  0
 85172  1  0  0  0
 85173  1  0  0  0
 86 91  1  0  0  0
 86174  1  0  0  0
 86175  1  0  0  0
 87176  1  0  0  0
 88 91  1  0  0  0
 88177  1  0  0  0
 89178  1  0  0  0
 90179  1  0  0  0
 90180  1  0  0  0
 90181  1  0  0  0
 91182  1  0  0  0
 91183  1  0  0  0
M  CHG  2  90   1  91   1
M  ISO  4   1 100  68 101  81 101  89 100
M  END
> <chiral flag>
0

> <version>
0

> <s_m_source_file>
/data/baiqing/PycharmProjects/Reinvent-master-3.2/result/LINK_invent/BTK/process_docking_weight1_custom_sum_contain_oxygen_bond_distance_aromatic_linkinvent_7_9_3/rearranged_h_0099.sdf

> <i_m_source_file_index>
14

> <r_mmod_Potential_Energy-OPLS-2005>
-101.238792419434

> <r_mmod_Stretch_Energy-OPLS-2005>
165.856704711914

> <r_mmod_Bend_Energy-OPLS-2005>
234.553039550781

> <r_mmod_Torsional_Energy-OPLS-2005>
319.691619873047

> <r_mmod_Improper_Torsional_Energy-OPLS-2005>
7.66693592071533

> <r_mmod_Van_der_Waal_Energy-OPLS-2005>
142.670654296875

> <r_mmod_Electrostatic_Energy-OPLS-2005>
-123.058952331543

> <r_mmod_Solvation_Energy-OPLS-2005>
-940.31689453125

> <b_mmod_Minimization_Converged-OPLS-2005>
0

> <r_mmod_RMS_Derivative-OPLS-2005>
2.60860204696655

$$$$
14
                    3D
 Structure written by MMmdl.
169177  0  0  1  0            999 V2000
  -30.6201  -14.7213   20.4311 C   0  0  0  0  0  0
  -30.4198  -12.4333   19.4782 C   0  0  0  0  0  0
  -29.5015  -12.5052   18.2393 C   0  0  0  0  0  0
  -28.0273  -12.3320   18.6507 C   0  0  0  0  0  0
  -27.6382  -13.2309   19.8548 C   0  0  2  0  0  0
  -28.6824  -13.1595   20.9900 C   0  0  0  0  0  0
  -25.2499  -13.8195   20.5714 C   0  0  0  0  0  0
  -24.1795  -13.0422   20.9194 C   0  0  0  0  0  0
  -24.6380  -11.6890   20.8732 C   0  0  0  0  0  0
  -23.9056  -10.4272   21.0390 C   0  0  0  0  0  0
  -24.3621   -9.4194   21.9178 C   0  0  0  0  0  0
  -23.6311   -8.2235   22.0775 C   0  0  0  0  0  0
  -22.4305   -8.0270   21.3560 C   0  0  0  0  0  0
  -21.9904   -9.0221   20.4643 C   0  0  0  0  0  0
  -22.7218  -10.2108   20.3046 C   0  0  0  0  0  0
  -21.6865   -6.0719   22.5265 C   0  0  0  0  0  0
  -21.4009   -6.5622   23.8188 C   0  0  0  0  0  0
  -21.3682   -5.6793   24.9159 C   0  0  0  0  0  0
  -21.6064   -4.3056   24.7219 C   0  0  0  0  0  0
  -21.8827   -3.8131   23.4342 C   0  0  0  0  0  0
  -21.9199   -4.6945   22.3389 C   0  0  0  0  0  0
  -22.7812  -13.5196   21.1843 C   0  0  0  0  0  0
  -22.1679   -4.2134   21.0966 F   0  0  0  0  0  0
  -21.5638   -3.4536   25.7728 F   0  0  0  0  0  0
  -29.9859  -13.5002   20.4093 N   0  0  0  0  0  0
  -26.2908  -12.9381   20.3322 N   0  0  0  0  0  0
  -25.9315  -11.6518   20.5749 N   0  0  0  0  0  0
  -22.0503  -12.8179   22.0422 N   0  0  0  0  0  0
  -25.4198  -15.1922   20.4102 N   0  0  0  0  0  0
  -31.8072  -14.7951   20.1069 O   0  0  0  0  0  0
  -21.6676   -6.8876   21.4240 O   0  0  0  0  0  0
  -22.3463  -14.5497   20.6693 O   0  0  0  0  0  0
  -24.6300  -31.8563   23.1960 C   0  0  0  0  0  0
  -25.9131  -32.4743   23.8313 C   0  0  1  0  0  0
  -27.2243  -27.2925   20.1119 C   0  0  0  0  0  0
  -25.5902  -33.8557   24.2215 N   0  0  0  0  0  0
  -23.4208  -30.4771   21.5449 C   0  0  2  0  0  0
  -24.8622  -28.9232   20.1098 C   0  0  0  0  0  0
  -22.7492  -29.4603   22.4977 C   0  0  0  0  0  0
  -18.0279  -28.1388   22.8467 C   0  0  0  0  0  0
  -24.1481  -36.7321   23.2638 C   0  0  0  0  0  0
  -25.9628  -30.7785   21.3653 C   0  0  0  0  0  0
  -26.0327  -29.4042   20.7069 C   0  0  0  0  0  0
  -27.2142  -28.6016   20.6942 C   0  0  0  0  0  0
  -26.0199  -26.8583   19.5112 C   0  0  0  0  0  0
  -24.8608  -27.6588   19.5007 C   0  0  0  0  0  0
  -23.6297  -29.8051   20.1625 C   0  0  0  0  0  0
  -25.4108  -36.3086   24.0311 C   0  0  1  0  0  0
  -20.5867  -28.3692   23.1292 C   0  0  2  0  0  0
  -20.6748  -26.9418   22.5421 C   0  0  0  0  0  0
  -19.5737  -26.6378   21.5207 C   0  0  0  0  0  0
  -18.1917  -26.7916   22.1621 C   0  0  0  0  0  0
  -19.1525  -28.8869   23.2853 C   0  0  0  0  0  0
  -18.9453  -30.1455   23.8878 C   0  0  0  0  0  0
  -17.6446  -30.6578   24.0571 C   0  0  0  0  0  0
  -25.9060  -34.9441   23.5084 C   0  0  0  0  0  0
  -16.5344  -29.9073   23.6326 C   0  0  0  0  0  0
  -16.7258  -28.6505   23.0330 C   0  0  0  0  0  0
  -26.4456  -31.6572   25.0728 C   0  0  0  0  0  0
  -25.3666  -31.3749   26.1442 C   0  0  0  0  0  0
  -27.0277  -30.2974   24.6225 C   0  0  0  0  0  0
  -27.6001  -32.4318   25.7524 C   0  0  0  0  0  0
  -27.5577  -37.1817   24.8450 C   0  0  0  0  0  0
  -21.4208  -29.3031   22.3725 N   0  0  0  0  0  0
  -26.4287  -37.3787   23.9400 N   0  0  0  0  0  0
  -24.6916  -31.0546   22.0924 N   0  0  0  0  0  0
  -23.4210  -28.8170   23.3092 O   0  0  0  0  0  0
  -28.3624  -26.4670   20.1826 O   0  0  0  0  0  0
  -26.5669  -34.8923   22.4682 O   0  0  0  0  0  0
  -23.5469  -32.1380   23.7287 O   0  0  0  0  0  0
  -29.0967  -19.6536   19.6439 C   0  0  0  0  0  0
  -29.2649  -20.9870   20.2026 C   0  0  0  0  0  0
  -29.7804  -18.6589   20.3349 C   0  0  0  0  0  0
  -30.0465  -20.7365   21.3107 C   0  0  0  0  0  0
  -30.6737  -21.7370   22.2433 C   0  0  0  0  0  0
  -28.1971  -22.0170   17.0757 C   0  0  0  0  0  0
  -32.6122  -18.6758   22.0418 C   0  0  0  0  0  0
  -30.6219  -17.4638   23.0968 C   0  0  0  0  0  0
  -30.1971  -17.2004   19.8677 C   0  0  0  0  0  0
  -27.6830  -22.1522   18.5180 C   0  0  0  0  0  0
  -28.4939  -23.7409   20.3848 C   0  0  0  0  0  0
  -28.4631  -25.1222   19.5439 C   0  0  0  0  0  0
  -28.8114  -22.3858   19.5535 C   0  0  1  0  0  0
  -31.1478  -18.7750   22.4964 C   0  0  0  0  0  0
  -30.3068  -19.3462   21.4363 N   0  0  0  0  0  0
  -29.8612  -15.8764   20.5424 N   0  0  0  0  0  0
  -31.4613  -12.5380   19.1722 H   0  0  0  0  0  0
  -30.3475  -11.4568   19.9571 H   0  0  0  0  0  0
  -29.7775  -11.7369   17.5155 H   0  0  0  0  0  0
  -29.6353  -13.4663   17.7388 H   0  0  0  0  0  0
  -27.8806  -11.2830   18.9082 H   0  0  0  0  0  0
  -27.3732  -12.5285   17.8006 H   0  0  0  0  0  0
  -27.6321  -14.2528   19.4752 H   0  0  0  0  0  0
  -28.7154  -12.1572   21.4191 H   0  0  0  0  0  0
  -28.4225  -13.8380   21.8046 H   0  0  0  0  0  0
  -25.2773   -9.5683   22.4729 H   0  0  0  0  0  0
  -24.0032   -7.4627   22.7493 H   0  0  0  0  0  0
  -21.0858   -8.8703   19.8925 H   0  0  0  0  0  0
  -22.3682  -10.9641   19.6140 H   0  0  0  0  0  0
  -21.2006   -7.6133   23.9680 H   0  0  0  0  0  0
  -21.1510   -6.0532   25.9071 H   0  0  0  0  0  0
  -22.0603   -2.7590   23.2837 H   0  0  0  0  0  0
  -22.4172  -11.9853   22.4788 H   0  0  0  0  0  0
  -21.1094  -13.1132   22.2613 H   0  0  0  0  0  0
  -24.6553  -15.8489   20.5244 H   0  0  0  0  0  0
  -26.2639  -15.6268   20.0588 H   0  0  0  0  0  0
  -26.7225  -32.5350   23.1076 H   0  0  0  0  0  0
  -24.9906  -33.9683   25.0264 H   0  0  0  0  0  0
  -22.7134  -31.2972   21.3999 H   0  0  0  0  0  0
  -23.3736  -35.9661   23.3282 H   0  0  0  0  0  0
  -24.3580  -36.8996   22.2062 H   0  0  0  0  0  0
  -23.7236  -37.6518   23.6682 H   0  0  0  0  0  0
  -26.0958  -31.5384   20.5946 H   0  0  0  0  0  0
  -26.8436  -30.8263   21.9945 H   0  0  0  0  0  0
  -28.1156  -28.9773   21.1575 H   0  0  0  0  0  0
  -25.9310  -25.8769   19.0746 H   0  0  0  0  0  0
  -23.9598  -27.2790   19.0369 H   0  0  0  0  0  0
  -23.7438  -30.5753   19.3995 H   0  0  0  0  0  0
  -22.7486  -29.2299   19.8699 H   0  0  0  0  0  0
  -25.1303  -36.1934   25.0806 H   0  0  0  0  0  0
  -20.9923  -28.3245   24.1427 H   0  0  0  0  0  0
  -20.5618  -26.2329   23.3633 H   0  0  0  0  0  0
  -21.6631  -26.7424   22.1253 H   0  0  0  0  0  0
  -19.6919  -25.6286   21.1251 H   0  0  0  0  0  0
  -19.6663  -27.3191   20.6731 H   0  0  0  0  0  0
  -17.4191  -26.6653   21.4013 H   0  0  0  0  0  0
  -18.0321  -26.0047   22.9017 H   0  0  0  0  0  0
  -19.7927  -30.7265   24.2258 H   0  0  0  0  0  0
  -17.4999  -31.6246   24.5196 H   0  0  0  0  0  0
  -15.5348  -30.2976   23.7640 H   0  0  0  0  0  0
  -15.8657  -28.0819   22.7036 H   0  0  0  0  0  0
  -24.5821  -30.7112   25.7776 H   0  0  0  0  0  0
  -24.8861  -32.2925   26.4844 H   0  0  0  0  0  0
  -25.7965  -30.8938   27.0235 H   0  0  0  0  0  0
  -26.2865  -29.6753   24.1181 H   0  0  0  0  0  0
  -27.3857  -29.7204   25.4761 H   0  0  0  0  0  0
  -27.8779  -30.4227   23.9521 H   0  0  0  0  0  0
  -27.2572  -33.3587   26.2130 H   0  0  0  0  0  0
  -28.3790  -32.6945   25.0358 H   0  0  0  0  0  0
  -28.0664  -31.8425   26.5423 H   0  0  0  0  0  0
  -28.2607  -38.0106   24.7509 H   0  0  0  0  0  0
  -28.1071  -36.2649   24.6255 H   0  0  0  0  0  0
  -27.2307  -37.1455   25.8858 H   0  0  0  0  0  0
  -20.9431  -29.8796   21.6952 H   0  0  0  0  0  0
  -26.0167  -38.2880   24.1375 H   0  0  0  0  0  0
  -28.6031  -19.4552   18.7014 H   0  0  0  0  0  0
  -30.0221  -21.9601   23.0896 H   0  0  0  0  0  0
  -30.8973  -22.6668   21.7270 H   0  0  0  0  0  0
  -31.6393  -21.4073   22.6258 H   0  0  0  0  0  0
  -27.3740  -21.8662   16.3779 H   0  0  0  0  0  0
  -28.8757  -21.1700   16.9755 H   0  0  0  0  0  0
  -28.7334  -22.9134   16.7566 H   0  0  0  0  0  0
  -33.2614  -18.3967   22.8703 H   0  0  0  0  0  0
  -32.9679  -19.6277   21.6508 H   0  0  0  0  0  0
  -32.7417  -17.9320   21.2571 H   0  0  0  0  0  0
  -30.7956  -17.4502   24.1735 H   0  0  0  0  0  0
  -31.1503  -16.6004   22.6984 H   0  0  0  0  0  0
  -29.5513  -17.3310   22.9338 H   0  0  0  0  0  0
  -31.2739  -17.2270   19.7031 H   0  0  0  0  0  0
  -29.7945  -17.0744   18.8614 H   0  0  0  0  0  0
  -27.0764  -21.2895   18.7948 H   0  0  0  0  0  0
  -26.9732  -22.9771   18.5356 H   0  0  0  0  0  0
  -27.5461  -23.6269   20.9110 H   0  0  0  0  0  0
  -29.2392  -23.8759   21.1623 H   0  0  0  0  0  0
  -27.7729  -25.0375   18.7107 H   0  0  0  0  0  0
  -29.4254  -25.1685   19.0320 H   0  0  0  0  0  0
  -29.7021  -22.6598   18.9872 H   0  0  0  0  0  0
  -31.1053  -19.4599   23.3405 H   0  0  0  0  0  0
  -28.9096  -15.7612   20.8499 H   0  0  0  0  0  0
  1 25  1  0  0  0
  1 30  2  0  0  0
  1 86  1  0  0  0
  2  3  1  0  0  0
  2 25  1  0  0  0
  2 87  1  0  0  0
  2 88  1  0  0  0
  3  4  1  0  0  0
  3 89  1  0  0  0
  3 90  1  0  0  0
  4  5  1  0  0  0
  4 91  1  0  0  0
  4 92  1  0  0  0
  5  6  1  0  0  0
  5 26  1  0  0  0
  5 93  1  0  0  0
  6 25  1  0  0  0
  6 94  1  0  0  0
  6 95  1  0  0  0
  7  8  2  0  0  0
  7 26  1  0  0  0
  7 29  1  0  0  0
  8  9  1  0  0  0
  8 22  1  0  0  0
  9 10  1  0  0  0
  9 27  2  0  0  0
 10 11  2  0  0  0
 10 15  1  0  0  0
 11 12  1  0  0  0
 11 96  1  0  0  0
 12 13  2  0  0  0
 12 97  1  0  0  0
 13 14  1  0  0  0
 13 31  1  0  0  0
 14 15  2  0  0  0
 14 98  1  0  0  0
 15 99  1  0  0  0
 16 17  2  0  0  0
 16 21  1  0  0  0
 16 31  1  0  0  0
 17 18  1  0  0  0
 17100  1  0  0  0
 18 19  2  0  0  0
 18101  1  0  0  0
 19 20  1  0  0  0
 19 24  1  0  0  0
 20 21  2  0  0  0
 20102  1  0  0  0
 21 23  1  0  0  0
 22 28  1  0  0  0
 22 32  2  0  0  0
 26 27  1  0  0  0
 28103  1  0  0  0
 28104  1  0  0  0
 29105  1  0  0  0
 29106  1  0  0  0
 33 34  1  0  0  0
 33 66  1  0  0  0
 33 70  2  0  0  0
 34 36  1  0  0  0
 34 59  1  0  0  0
 34107  1  0  0  0
 35 44  2  0  0  0
 35 45  1  0  0  0
 35 68  1  0  0  0
 36 56  1  0  0  0
 36108  1  0  0  0
 37 39  1  0  0  0
 37 47  1  0  0  0
 37 66  1  0  0  0
 37109  1  0  0  0
 38 43  2  0  0  0
 38 46  1  0  0  0
 38 47  1  0  0  0
 39 64  1  0  0  0
 39 67  2  0  0  0
 40 52  1  0  0  0
 40 53  2  0  0  0
 40 58  1  0  0  0
 41110  1  0  0  0
 41111  1  0  0  0
 41112  1  0  0  0
 41 48  1  0  0  0
 42 43  1  0  0  0
 42 66  1  0  0  0
 42113  1  0  0  0
 42114  1  0  0  0
 43 44  1  0  0  0
 44115  1  0  0  0
 45 46  2  0  0  0
 45116  1  0  0  0
 46117  1  0  0  0
 47118  1  0  0  0
 47119  1  0  0  0
 48 56  1  0  0  0
 48 65  1  0  0  0
 48120  1  0  0  0
 49 50  1  0  0  0
 49 53  1  0  0  0
 49 64  1  0  0  0
 49121  1  0  0  0
 50 51  1  0  0  0
 50122  1  0  0  0
 50123  1  0  0  0
 51 52  1  0  0  0
 51124  1  0  0  0
 51125  1  0  0  0
 52126  1  0  0  0
 52127  1  0  0  0
 53 54  1  0  0  0
 54 55  2  0  0  0
 54128  1  0  0  0
 55 57  1  0  0  0
 55129  1  0  0  0
 56 69  2  0  0  0
 57 58  2  0  0  0
 57130  1  0  0  0
 58131  1  0  0  0
 59 60  1  0  0  0
 59 61  1  0  0  0
 59 62  1  0  0  0
 60132  1  0  0  0
 60133  1  0  0  0
 60134  1  0  0  0
 61135  1  0  0  0
 61136  1  0  0  0
 61137  1  0  0  0
 62138  1  0  0  0
 62139  1  0  0  0
 62140  1  0  0  0
 63 65  1  0  0  0
 63141  1  0  0  0
 63142  1  0  0  0
 63143  1  0  0  0
 64144  1  0  0  0
 65145  1  0  0  0
 68 82  1  0  0  0
 71 72  1  0  0  0
 71 73  2  0  0  0
 71146  1  0  0  0
 72 74  2  0  0  0
 72 83  1  0  0  0
 73 79  1  0  0  0
 73 85  1  0  0  0
 74 75  1  0  0  0
 74 85  1  0  0  0
 75147  1  0  0  0
 75148  1  0  0  0
 75149  1  0  0  0
 76 80  1  0  0  0
 76150  1  0  0  0
 76151  1  0  0  0
 76152  1  0  0  0
 77153  1  0  0  0
 77154  1  0  0  0
 77155  1  0  0  0
 77 84  1  0  0  0
 78 84  1  0  0  0
 78156  1  0  0  0
 78157  1  0  0  0
 78158  1  0  0  0
 79 86  1  0  0  0
 79159  1  0  0  0
 79160  1  0  0  0
 80161  1  0  0  0
 80162  1  0  0  0
 80 83  1  0  0  0
 81 82  1  0  0  0
 81 83  1  0  0  0
 81163  1  0  0  0
 81164  1  0  0  0
 82165  1  0  0  0
 82166  1  0  0  0
 83167  1  0  0  0
 84 85  1  0  0  0
 84168  1  0  0  0
 86169  1  0  0  0
M  ISO  4   1 100  68 101  82 101  86 100
M  END
> <chiral flag>
0

> <version>
0

> <s_m_source_file>
/data/baiqing/PycharmProjects/Reinvent-master-3.2/result/LINK_invent/BTK/process_docking_weight1_custom_sum_contain_oxygen_bond_distance_aromatic_linkinvent_7_9_3/rearranged_h_0099.sdf

> <i_m_source_file_index>
15

> <r_mmod_Potential_Energy-OPLS-2005>
132.286193847656

> <r_mmod_Stretch_Energy-OPLS-2005>
114.509925842285

> <r_mmod_Bend_Energy-OPLS-2005>
203.140625

> <r_mmod_Torsional_Energy-OPLS-2005>
265.458923339844

> <r_mmod_Improper_Torsional_Energy-OPLS-2005>
11.2321176528931

> <r_mmod_Van_der_Waal_Energy-OPLS-2005>
126.798469543457

> <r_mmod_Electrostatic_Energy-OPLS-2005>
-461.344268798828

> <r_mmod_Solvation_Energy-OPLS-2005>
-197.715393066406

> <b_mmod_Minimization_Converged-OPLS-2005>
0

> <r_mmod_RMS_Derivative-OPLS-2005>
4.06863594055176

$$$$
15
                    3D
 Structure written by MMmdl.
158165  0  0  1  0            999 V2000
  -30.5086  -14.9666   20.4543 C   0  0  0  0  0  0
  -30.4483  -12.6035   19.5123 C   0  0  0  0  0  0
  -29.5352  -12.5229   18.2654 C   0  0  0  0  0  0
  -28.0610  -12.3128   18.6765 C   0  0  0  0  0  0
  -27.6271  -13.2470   19.8379 C   0  0  2  0  0  0
  -28.6631  -13.2750   20.9765 C   0  0  0  0  0  0
  -25.2420  -13.8200   20.5711 C   0  0  0  0  0  0
  -24.1755  -13.0415   20.9270 C   0  0  0  0  0  0
  -24.6367  -11.6909   20.8805 C   0  0  0  0  0  0
  -23.9064  -10.4290   21.0492 C   0  0  0  0  0  0
  -24.3615   -9.4172   21.9213 C   0  0  0  0  0  0
  -23.6283   -8.2206   22.0727 C   0  0  0  0  0  0
  -22.4251   -8.0273   21.3554 C   0  0  0  0  0  0
  -21.9907   -9.0275   20.4667 C   0  0  0  0  0  0
  -22.7263  -10.2146   20.3116 C   0  0  0  0  0  0
  -21.6813   -6.0765   22.5322 C   0  0  0  0  0  0
  -21.4023   -6.5662   23.8274 C   0  0  0  0  0  0
  -21.3637   -5.6807   24.9226 C   0  0  0  0  0  0
  -21.6012   -4.3074   24.7262 C   0  0  0  0  0  0
  -21.8795   -3.8167   23.4382 C   0  0  0  0  0  0
  -21.9167   -4.6991   22.3436 C   0  0  0  0  0  0
  -22.7774  -13.5200   21.1930 C   0  0  0  0  0  0
  -22.1649   -4.2181   21.1014 F   0  0  0  0  0  0
  -21.5609   -3.4546   25.7754 F   0  0  0  0  0  0
  -29.9366  -13.6999   20.3804 N   0  0  0  0  0  0
  -26.2848  -12.9431   20.3208 N   0  0  0  0  0  0
  -25.9293  -11.6566   20.5727 N   0  0  0  0  0  0
  -22.0401  -12.8265   22.0514 N   0  0  0  0  0  0
  -25.3995  -15.1935   20.4145 N   0  0  0  0  0  0
  -31.7227  -15.0563   20.2490 O   0  0  0  0  0  0
  -21.6573   -6.8917   21.4292 O   0  0  0  0  0  0
  -22.3467  -14.5499   20.6738 O   0  0  0  0  0  0
  -24.6459  -31.8445   23.1858 C   0  0  0  0  0  0
  -25.9215  -32.4706   23.8247 C   0  0  1  0  0  0
  -27.2121  -27.1155   20.1849 C   0  0  0  0  0  0
  -25.5953  -33.8515   24.2153 N   0  0  0  0  0  0
  -23.4512  -30.4643   21.5278 C   0  0  2  0  0  0
  -24.9009  -28.8790   20.1175 C   0  0  0  0  0  0
  -22.7586  -29.4566   22.4814 C   0  0  0  0  0  0
  -18.0326  -28.1432   22.8481 C   0  0  0  0  0  0
  -24.1488  -36.7227   23.2641 C   0  0  0  0  0  0
  -26.0087  -30.7167   21.3860 C   0  0  0  0  0  0
  -26.0814  -29.3242   20.7332 C   0  0  0  0  0  0
  -27.2398  -28.4631   20.7405 C   0  0  0  0  0  0
  -26.0069  -26.7674   19.5426 C   0  0  0  0  0  0
  -24.8759  -27.6150   19.5100 C   0  0  0  0  0  0
  -23.6847  -29.7941   20.1484 C   0  0  0  0  0  0
  -25.4128  -36.3011   24.0296 C   0  0  1  0  0  0
  -20.5948  -28.3751   23.1221 C   0  0  2  0  0  0
  -20.6800  -26.9452   22.5403 C   0  0  0  0  0  0
  -19.5756  -26.6395   21.5231 C   0  0  0  0  0  0
  -18.1940  -26.7975   22.1639 C   0  0  0  0  0  0
  -19.1578  -28.8900   23.2853 C   0  0  0  0  0  0
  -18.9498  -30.1497   23.8896 C   0  0  0  0  0  0
  -17.6491  -30.6606   24.0575 C   0  0  0  0  0  0
  -25.9077  -34.9403   23.5024 C   0  0  0  0  0  0
  -16.5388  -29.9102   23.6348 C   0  0  0  0  0  0
  -16.7315  -28.6524   23.0366 C   0  0  0  0  0  0
  -26.4531  -31.6626   25.0727 C   0  0  0  0  0  0
  -25.3686  -31.3859   26.1405 C   0  0  0  0  0  0
  -27.0412  -30.3025   24.6342 C   0  0  0  0  0  0
  -27.6059  -32.4439   25.7497 C   0  0  0  0  0  0
  -27.5573  -37.1763   24.8459 C   0  0  0  0  0  0
  -21.4274  -29.3051   22.3559 N   0  0  0  0  0  0
  -26.4263  -37.3741   23.9425 N   0  0  0  0  0  0
  -24.7221  -31.0316   22.0873 N   0  0  0  0  0  0
  -23.4227  -28.8119   23.2973 O   0  0  0  0  0  0
  -28.2773  -26.1439   20.2006 O   0  0  0  0  0  0
  -26.5674  -34.8911   22.4612 O   0  0  0  0  0  0
  -23.5574  -32.1294   23.7085 O   0  0  0  0  0  0
  -28.1146  -22.9131   18.6241 C   0  0  0  0  0  0
  -30.2244  -23.8411   19.5547 C   0  0  0  0  0  0
  -27.2097  -20.3137   20.5123 C   0  0  0  0  0  0
  -29.7982  -17.6482   20.9959 C   0  0  0  0  0  0
  -29.3791  -19.0367   20.1115 C   0  0  0  0  0  0
  -29.2634  -21.8266   20.7826 C   0  0  0  0  0  0
  -28.0926  -24.6433   20.6157 C   0  0  0  0  0  0
  -28.8396  -23.2647   19.9424 C   0  0  0  0  0  0
  -29.6724  -16.1182   20.5654 N   0  0  0  0  0  0
  -28.6801  -20.3417   20.7274 N   0  3  1  0  0  0
  -31.4783  -12.7853   19.2055 H   0  0  0  0  0  0
  -30.4533  -11.6571   20.0546 H   0  0  0  0  0  0
  -29.8644  -11.7165   17.6074 H   0  0  0  0  0  0
  -29.6254  -13.4436   17.6914 H   0  0  0  0  0  0
  -27.9638  -11.2749   18.9870 H   0  0  0  0  0  0
  -27.3988  -12.4444   17.8214 H   0  0  0  0  0  0
  -27.5862  -14.2465   19.4061 H   0  0  0  0  0  0
  -28.7501  -12.2967   21.4473 H   0  0  0  0  0  0
  -28.3511  -13.9647   21.7624 H   0  0  0  0  0  0
  -25.2752   -9.5607   22.4775 H   0  0  0  0  0  0
  -23.9984   -7.4576   22.7383 H   0  0  0  0  0  0
  -21.0834   -8.8849   19.8948 H   0  0  0  0  0  0
  -22.3752  -10.9713   19.6236 H   0  0  0  0  0  0
  -21.2052   -7.6179   23.9815 H   0  0  0  0  0  0
  -21.1461   -6.0528   25.9144 H   0  0  0  0  0  0
  -22.0571   -2.7620   23.2873 H   0  0  0  0  0  0
  -22.3968  -11.9979   22.5062 H   0  0  0  0  0  0
  -21.0980  -13.1316   22.2585 H   0  0  0  0  0  0
  -24.6050  -15.8196   20.5009 H   0  0  0  0  0  0
  -26.2067  -15.6363   19.9946 H   0  0  0  0  0  0
  -26.7301  -32.5324   23.0999 H   0  0  0  0  0  0
  -25.0096  -33.9626   25.0290 H   0  0  0  0  0  0
  -22.7530  -31.2895   21.3700 H   0  0  0  0  0  0
  -23.3766  -35.9536   23.3269 H   0  0  0  0  0  0
  -24.3568  -36.8909   22.2059 H   0  0  0  0  0  0
  -23.7217  -37.6393   23.6722 H   0  0  0  0  0  0
  -26.1731  -31.4705   20.6151 H   0  0  0  0  0  0
  -26.8755  -30.7613   22.0359 H   0  0  0  0  0  0
  -28.1467  -28.8030   21.2206 H   0  0  0  0  0  0
  -25.9281  -25.7959   19.0752 H   0  0  0  0  0  0
  -23.9728  -27.2638   19.0336 H   0  0  0  0  0  0
  -23.8420  -30.5683   19.3956 H   0  0  0  0  0  0
  -22.7950  -29.2478   19.8283 H   0  0  0  0  0  0
  -25.1328  -36.1796   25.0778 H   0  0  0  0  0  0
  -21.0058  -28.3355   24.1335 H   0  0  0  0  0  0
  -20.5686  -26.2375   23.3626 H   0  0  0  0  0  0
  -21.6660  -26.7420   22.1213 H   0  0  0  0  0  0
  -19.6887  -25.6283   21.1298 H   0  0  0  0  0  0
  -19.6698  -27.3173   20.6738 H   0  0  0  0  0  0
  -17.4211  -26.6758   21.4048 H   0  0  0  0  0  0
  -18.0306  -26.0135   22.9040 H   0  0  0  0  0  0
  -19.7959  -30.7328   24.2271 H   0  0  0  0  0  0
  -17.5032  -31.6294   24.5168 H   0  0  0  0  0  0
  -15.5378  -30.3004   23.7656 H   0  0  0  0  0  0
  -15.8728  -28.0836   22.7085 H   0  0  0  0  0  0
  -24.5799  -30.7310   25.7691 H   0  0  0  0  0  0
  -24.8946  -32.3060   26.4823 H   0  0  0  0  0  0
  -25.7892  -30.8981   27.0190 H   0  0  0  0  0  0
  -26.3031  -29.6770   24.1301 H   0  0  0  0  0  0
  -27.3960  -29.7355   25.4952 H   0  0  0  0  0  0
  -27.8970  -30.4308   23.9716 H   0  0  0  0  0  0
  -27.2638  -33.3752   26.2030 H   0  0  0  0  0  0
  -28.3856  -32.7007   25.0317 H   0  0  0  0  0  0
  -28.0743  -31.8613   26.5434 H   0  0  0  0  0  0
  -28.2571  -38.0084   24.7522 H   0  0  0  0  0  0
  -28.1080  -36.2601   24.6247 H   0  0  0  0  0  0
  -27.2291  -37.1378   25.8862 H   0  0  0  0  0  0
  -20.9479  -29.8757   21.6733 H   0  0  0  0  0  0
  -26.0109  -38.2782   24.1491 H   0  0  0  0  0  0
  -28.5782  -22.0652   18.1079 H   0  0  0  0  0  0
  -28.1379  -23.7580   17.9334 H   0  0  0  0  0  0
  -27.0604  -22.6791   18.7869 H   0  0  0  0  0  0
  -30.8182  -23.1616   18.9401 H   0  0  0  0  0  0
  -30.8163  -24.0720   20.4422 H   0  0  0  0  0  0
  -30.1360  -24.7677   18.9883 H   0  0  0  0  0  0
  -26.8022  -19.3422   20.8039 H   0  0  0  0  0  0
  -26.9470  -20.4575   19.4661 H   0  0  0  0  0  0
  -26.6921  -21.0763   21.0969 H   0  0  0  0  0  0
  -29.2331  -17.7065   21.9248 H   0  0  0  0  0  0
  -30.8344  -17.7812   21.3247 H   0  0  0  0  0  0
  -28.7702  -18.7177   19.2647 H   0  0  0  0  0  0
  -30.2878  -19.3891   19.6291 H   0  0  0  0  0  0
  -29.1833  -22.0949   21.8382 H   0  0  0  0  0  0
  -30.3369  -21.6660   20.6604 H   0  0  0  0  0  0
  -28.3989  -24.6523   21.6640 H   0  0  0  0  0  0
  -27.0222  -24.4360   20.6730 H   0  0  0  0  0  0
  -28.7073  -15.8296   20.5511 H   0  0  0  0  0  0
  -28.7510  -20.1226   21.7104 H   0  0  0  0  0  0
  1 25  1  0  0  0
  1 30  2  0  0  0
  1 79  1  0  0  0
  2  3  1  0  0  0
  2 25  1  0  0  0
  2 81  1  0  0  0
  2 82  1  0  0  0
  3  4  1  0  0  0
  3 83  1  0  0  0
  3 84  1  0  0  0
  4  5  1  0  0  0
  4 85  1  0  0  0
  4 86  1  0  0  0
  5  6  1  0  0  0
  5 26  1  0  0  0
  5 87  1  0  0  0
  6 25  1  0  0  0
  6 88  1  0  0  0
  6 89  1  0  0  0
  7  8  2  0  0  0
  7 26  1  0  0  0
  7 29  1  0  0  0
  8  9  1  0  0  0
  8 22  1  0  0  0
  9 10  1  0  0  0
  9 27  2  0  0  0
 10 11  2  0  0  0
 10 15  1  0  0  0
 11 12  1  0  0  0
 11 90  1  0  0  0
 12 13  2  0  0  0
 12 91  1  0  0  0
 13 14  1  0  0  0
 13 31  1  0  0  0
 14 15  2  0  0  0
 14 92  1  0  0  0
 15 93  1  0  0  0
 16 17  2  0  0  0
 16 21  1  0  0  0
 16 31  1  0  0  0
 17 18  1  0  0  0
 17 94  1  0  0  0
 18 19  2  0  0  0
 18 95  1  0  0  0
 19 20  1  0  0  0
 19 24  1  0  0  0
 20 21  2  0  0  0
 20 96  1  0  0  0
 21 23  1  0  0  0
 22 28  1  0  0  0
 22 32  2  0  0  0
 26 27  1  0  0  0
 28 97  1  0  0  0
 28 98  1  0  0  0
 29 99  1  0  0  0
 29100  1  0  0  0
 33 34  1  0  0  0
 33 66  1  0  0  0
 33 70  2  0  0  0
 34 36  1  0  0  0
 34 59  1  0  0  0
 34101  1  0  0  0
 35 44  2  0  0  0
 35 45  1  0  0  0
 35 68  1  0  0  0
 36 56  1  0  0  0
 36102  1  0  0  0
 37 39  1  0  0  0
 37 47  1  0  0  0
 37 66  1  0  0  0
 37103  1  0  0  0
 38 43  2  0  0  0
 38 46  1  0  0  0
 38 47  1  0  0  0
 39 64  1  0  0  0
 39 67  2  0  0  0
 40 52  1  0  0  0
 40 53  2  0  0  0
 40 58  1  0  0  0
 41104  1  0  0  0
 41105  1  0  0  0
 41106  1  0  0  0
 41 48  1  0  0  0
 42 43  1  0  0  0
 42 66  1  0  0  0
 42107  1  0  0  0
 42108  1  0  0  0
 43 44  1  0  0  0
 44109  1  0  0  0
 45 46  2  0  0  0
 45110  1  0  0  0
 46111  1  0  0  0
 47112  1  0  0  0
 47113  1  0  0  0
 48 56  1  0  0  0
 48 65  1  0  0  0
 48114  1  0  0  0
 49 50  1  0  0  0
 49 53  1  0  0  0
 49 64  1  0  0  0
 49115  1  0  0  0
 50 51  1  0  0  0
 50116  1  0  0  0
 50117  1  0  0  0
 51 52  1  0  0  0
 51118  1  0  0  0
 51119  1  0  0  0
 52120  1  0  0  0
 52121  1  0  0  0
 53 54  1  0  0  0
 54 55  2  0  0  0
 54122  1  0  0  0
 55 57  1  0  0  0
 55123  1  0  0  0
 56 69  2  0  0  0
 57 58  2  0  0  0
 57124  1  0  0  0
 58125  1  0  0  0
 59 60  1  0  0  0
 59 61  1  0  0  0
 59 62  1  0  0  0
 60126  1  0  0  0
 60127  1  0  0  0
 60128  1  0  0  0
 61129  1  0  0  0
 61130  1  0  0  0
 61131  1  0  0  0
 62132  1  0  0  0
 62133  1  0  0  0
 62134  1  0  0  0
 63 65  1  0  0  0
 63135  1  0  0  0
 63136  1  0  0  0
 63137  1  0  0  0
 64138  1  0  0  0
 65139  1  0  0  0
 68 77  1  0  0  0
 71140  1  0  0  0
 71141  1  0  0  0
 71142  1  0  0  0
 71 78  1  0  0  0
 72 78  1  0  0  0
 72143  1  0  0  0
 72144  1  0  0  0
 72145  1  0  0  0
 73146  1  0  0  0
 73147  1  0  0  0
 73148  1  0  0  0
 73 80  1  0  0  0
 74 75  1  0  0  0
 74 79  1  0  0  0
 74149  1  0  0  0
 74150  1  0  0  0
 75 80  1  0  0  0
 75151  1  0  0  0
 75152  1  0  0  0
 76 78  1  0  0  0
 76 80  1  0  0  0
 76153  1  0  0  0
 76154  1  0  0  0
 77 78  1  0  0  0
 77155  1  0  0  0
 77156  1  0  0  0
 79157  1  0  0  0
 80158  1  0  0  0
M  CHG  1  80   1
M  ISO  4   1 100  68 101  77 101  79 100
M  END
> <chiral flag>
0

> <version>
0

> <s_m_source_file>
/data/baiqing/PycharmProjects/Reinvent-master-3.2/result/LINK_invent/BTK/process_docking_weight1_custom_sum_contain_oxygen_bond_distance_aromatic_linkinvent_7_9_3/rearranged_h_0099.sdf

> <i_m_source_file_index>
16

> <r_mmod_Potential_Energy-OPLS-2005>
546.951599121094

> <r_mmod_Stretch_Energy-OPLS-2005>
302.15771484375

> <r_mmod_Bend_Energy-OPLS-2005>
348.073516845703

> <r_mmod_Torsional_Energy-OPLS-2005>
300.311859130859

> <r_mmod_Improper_Torsional_Energy-OPLS-2005>
5.02730274200439

> <r_mmod_Van_der_Waal_Energy-OPLS-2005>
109.23592376709

> <r_mmod_Electrostatic_Energy-OPLS-2005>
-258.468048095703

> <r_mmod_Solvation_Energy-OPLS-2005>
-469.044250488281

> <b_mmod_Minimization_Converged-OPLS-2005>
0

> <r_mmod_RMS_Derivative-OPLS-2005>
6.30765390396118

$$$$
16
                    3D
 Structure written by MMmdl.
164172  0  0  1  0            999 V2000
  -30.5750  -14.8566   20.4119 C   0  0  0  0  0  0
  -30.4310  -12.5201   19.4986 C   0  0  0  0  0  0
  -29.5218  -12.5162   18.2489 C   0  0  0  0  0  0
  -28.0455  -12.3311   18.6539 C   0  0  0  0  0  0
  -27.6319  -13.2463   19.8384 C   0  0  2  0  0  0
  -28.6726  -13.2395   20.9792 C   0  0  0  0  0  0
  -25.2466  -13.8224   20.5692 C   0  0  0  0  0  0
  -24.1779  -13.0446   20.9209 C   0  0  0  0  0  0
  -24.6398  -11.6933   20.8747 C   0  0  0  0  0  0
  -23.9088  -10.4304   21.0398 C   0  0  0  0  0  0
  -24.3635   -9.4216   21.9173 C   0  0  0  0  0  0
  -23.6313   -8.2250   22.0741 C   0  0  0  0  0  0
  -22.4295   -8.0287   21.3531 C   0  0  0  0  0  0
  -21.9938   -9.0263   20.4632 C   0  0  0  0  0  0
  -22.7263  -10.2141   20.3044 C   0  0  0  0  0  0
  -21.6858   -6.0745   22.5283 C   0  0  0  0  0  0
  -21.4017   -6.5641   23.8216 C   0  0  0  0  0  0
  -21.3662   -5.6787   24.9175 C   0  0  0  0  0  0
  -21.6051   -4.3056   24.7213 C   0  0  0  0  0  0
  -21.8811   -3.8144   23.4337 C   0  0  0  0  0  0
  -21.9193   -4.6973   22.3400 C   0  0  0  0  0  0
  -22.7801  -13.5226   21.1866 C   0  0  0  0  0  0
  -22.1657   -4.2159   21.0976 F   0  0  0  0  0  0
  -21.5633   -3.4533   25.7722 F   0  0  0  0  0  0
  -29.9602  -13.6155   20.3873 N   0  0  0  0  0  0
  -26.2890  -12.9457   20.3221 N   0  0  0  0  0  0
  -25.9331  -11.6588   20.5717 N   0  0  0  0  0  0
  -22.0442  -12.8222   22.0420 N   0  0  0  0  0  0
  -25.4115  -15.1960   20.4126 N   0  0  0  0  0  0
  -31.7744  -14.9121   20.1219 O   0  0  0  0  0  0
  -21.6649   -6.8891   21.4243 O   0  0  0  0  0  0
  -22.3490  -14.5520   20.6688 O   0  0  0  0  0  0
  -24.6415  -31.8470   23.1907 C   0  0  0  0  0  0
  -25.9194  -32.4709   23.8304 C   0  0  1  0  0  0
  -27.2147  -27.1689   20.1383 C   0  0  0  0  0  0
  -25.5953  -33.8519   24.2218 N   0  0  0  0  0  0
  -23.4430  -30.4668   21.5368 C   0  0  2  0  0  0
  -24.8895  -28.8983   20.1111 C   0  0  0  0  0  0
  -22.7569  -29.4550   22.4879 C   0  0  0  0  0  0
  -18.0312  -28.1385   22.8469 C   0  0  0  0  0  0
  -24.1494  -36.7254   23.2644 C   0  0  0  0  0  0
  -25.9974  -30.7288   21.3860 C   0  0  0  0  0  0
  -26.0670  -29.3446   20.7244 C   0  0  0  0  0  0
  -27.2325  -28.4962   20.7197 C   0  0  0  0  0  0
  -26.0092  -26.8133   19.4955 C   0  0  0  0  0  0
  -24.8713  -27.6447   19.4825 C   0  0  0  0  0  0
  -23.6670  -29.7990   20.1550 C   0  0  0  0  0  0
  -25.4119  -36.3039   24.0332 C   0  0  1  0  0  0
  -20.5923  -28.3703   23.1239 C   0  0  2  0  0  0
  -20.6787  -26.9408   22.5400 C   0  0  0  0  0  0
  -19.5764  -26.6370   21.5206 C   0  0  0  0  0  0
  -18.1947  -26.7923   22.1616 C   0  0  0  0  0  0
  -19.1567  -28.8866   23.2843 C   0  0  0  0  0  0
  -18.9480  -30.1463   23.8865 C   0  0  0  0  0  0
  -17.6473  -30.6578   24.0555 C   0  0  0  0  0  0
  -25.9069  -34.9415   23.5079 C   0  0  0  0  0  0
  -16.5364  -29.9067   23.6333 C   0  0  0  0  0  0
  -16.7296  -28.6491   23.0343 C   0  0  0  0  0  0
  -26.4510  -31.6566   25.0738 C   0  0  0  0  0  0
  -25.3698  -31.3750   26.1440 C   0  0  0  0  0  0
  -27.0376  -30.2974   24.6295 C   0  0  0  0  0  0
  -27.6071  -32.4309   25.7506 C   0  0  0  0  0  0
  -27.5577  -37.1779   24.8460 C   0  0  0  0  0  0
  -21.4267  -29.3033   22.3629 N   0  0  0  0  0  0
  -26.4279  -37.3749   23.9415 N   0  0  0  0  0  0
  -24.7136  -31.0351   22.0927 N   0  0  0  0  0  0
  -23.4222  -28.8100   23.3025 O   0  0  0  0  0  0
  -28.2831  -26.2137   20.1889 O   0  0  0  0  0  0
  -26.5647  -34.8907   22.4656 O   0  0  0  0  0  0
  -23.5539  -32.1340   23.7131 O   0  0  0  0  0  0
  -29.6669  -19.7098   21.4905 C   0  0  0  0  0  0
  -29.1321  -19.7750   19.2125 C   0  0  0  0  0  0
  -29.5893  -18.9485   20.2909 C   0  0  0  0  0  0
  -29.4087  -21.1351   21.5580 C   0  0  0  0  0  0
  -29.0663  -21.9034   20.3821 C   0  0  0  0  0  0
  -31.6582  -23.2047   19.3411 C   0  0  0  0  0  0
  -31.0960  -22.1165   23.1612 C   0  0  0  0  0  0
  -29.0127  -21.0380   24.0945 C   0  0  0  0  0  0
  -30.2782  -17.4743   20.0894 C   0  0  0  0  0  0
  -30.2746  -23.8509   19.1426 C   0  0  0  0  0  0
  -28.0289  -24.6880   20.0973 C   0  0  0  0  0  0
  -29.6095  -21.8255   22.9116 C   0  0  0  0  0  0
  -29.2282  -23.5463   20.2445 C   0  0  1  0  0  0
  -28.8802  -21.1407   19.2530 N   0  0  0  0  0  0
  -29.8231  -16.0463   20.5150 N   0  0  0  0  0  0
  -31.4733  -12.6459   19.2021 H   0  0  0  0  0  0
  -30.3842  -11.5609   20.0160 H   0  0  0  0  0  0
  -29.8291  -11.7271   17.5605 H   0  0  0  0  0  0
  -29.6381  -13.4583   17.7092 H   0  0  0  0  0  0
  -27.9111  -11.2857   18.9321 H   0  0  0  0  0  0
  -27.3947  -12.5022   17.7950 H   0  0  0  0  0  0
  -27.6092  -14.2578   19.4309 H   0  0  0  0  0  0
  -28.7339  -12.2581   21.4522 H   0  0  0  0  0  0
  -28.3913  -13.9447   21.7630 H   0  0  0  0  0  0
  -25.2774   -9.5706   22.4756 H   0  0  0  0  0  0
  -24.0017   -7.4651   22.7483 H   0  0  0  0  0  0
  -21.0852   -8.8788   19.8967 H   0  0  0  0  0  0
  -22.3710  -10.9677   19.6153 H   0  0  0  0  0  0
  -21.2017   -7.6150   23.9722 H   0  0  0  0  0  0
  -21.1492   -6.0516   25.9077 H   0  0  0  0  0  0
  -22.0595   -2.7611   23.2824 H   0  0  0  0  0  0
  -22.4049  -11.9896   22.4852 H   0  0  0  0  0  0
  -21.1055  -13.1245   22.2598 H   0  0  0  0  0  0
  -24.6398  -15.8439   20.5269 H   0  0  0  0  0  0
  -26.2515  -15.6386   20.0617 H   0  0  0  0  0  0
  -26.7264  -32.5311   23.1038 H   0  0  0  0  0  0
  -25.0093  -33.9636   25.0359 H   0  0  0  0  0  0
  -22.7431  -31.2912   21.3847 H   0  0  0  0  0  0
  -23.3769  -35.9570   23.3281 H   0  0  0  0  0  0
  -24.3593  -36.8906   22.2063 H   0  0  0  0  0  0
  -23.7227  -37.6441   23.6686 H   0  0  0  0  0  0
  -26.1539  -31.4866   20.6176 H   0  0  0  0  0  0
  -26.8694  -30.7731   22.0277 H   0  0  0  0  0  0
  -28.1326  -28.8340   21.2138 H   0  0  0  0  0  0
  -25.9117  -25.8571   19.0058 H   0  0  0  0  0  0
  -23.9720  -27.2971   18.9928 H   0  0  0  0  0  0
  -23.8051  -30.5756   19.4019 H   0  0  0  0  0  0
  -22.7814  -29.2424   19.8437 H   0  0  0  0  0  0
  -25.1298  -36.1878   25.0824 H   0  0  0  0  0  0
  -21.0003  -28.3278   24.1367 H   0  0  0  0  0  0
  -20.5666  -26.2319   23.3614 H   0  0  0  0  0  0
  -21.6655  -26.7402   22.1209 H   0  0  0  0  0  0
  -19.6919  -25.6275   21.1249 H   0  0  0  0  0  0
  -19.6700  -27.3170   20.6730 H   0  0  0  0  0  0
  -17.4212  -26.6669   21.4020 H   0  0  0  0  0  0
  -18.0342  -26.0070   22.9023 H   0  0  0  0  0  0
  -19.7956  -30.7289   24.2209 H   0  0  0  0  0  0
  -17.5027  -31.6254   24.5163 H   0  0  0  0  0  0
  -15.5360  -30.2952   23.7677 H   0  0  0  0  0  0
  -15.8702  -28.0806   22.7050 H   0  0  0  0  0  0
  -24.5882  -30.7089   25.7764 H   0  0  0  0  0  0
  -24.8871  -32.2928   26.4819 H   0  0  0  0  0  0
  -25.7992  -30.8959   27.0249 H   0  0  0  0  0  0
  -26.2998  -29.6695   24.1290 H   0  0  0  0  0  0
  -27.3998  -29.7272   25.4857 H   0  0  0  0  0  0
  -27.8902  -30.4239   23.9619 H   0  0  0  0  0  0
  -27.2710  -33.3640   26.2040 H   0  0  0  0  0  0
  -28.3902  -32.6810   25.0334 H   0  0  0  0  0  0
  -28.0712  -31.8447   26.5441 H   0  0  0  0  0  0
  -28.2574  -38.0096   24.7526 H   0  0  0  0  0  0
  -28.1093  -36.2625   24.6254 H   0  0  0  0  0  0
  -27.2304  -37.1393   25.8865 H   0  0  0  0  0  0
  -20.9473  -29.8762   21.6828 H   0  0  0  0  0  0
  -26.0151  -38.2825   24.1416 H   0  0  0  0  0  0
  -30.0320  -19.1999   22.3691 H   0  0  0  0  0  0
  -29.0518  -19.3389   18.2274 H   0  0  0  0  0  0
  -32.1272  -23.5545   20.2596 H   0  0  0  0  0  0
  -32.3273  -23.4589   18.5189 H   0  0  0  0  0  0
  -31.6009  -22.1166   19.3840 H   0  0  0  0  0  0
  -31.5153  -22.7543   22.3850 H   0  0  0  0  0  0
  -31.6818  -21.1966   23.1859 H   0  0  0  0  0  0
  -31.2438  -22.6242   24.1144 H   0  0  0  0  0  0
  -27.9604  -20.8031   23.9329 H   0  0  0  0  0  0
  -29.0779  -21.6185   25.0154 H   0  0  0  0  0  0
  -29.5394  -20.1031   24.2854 H   0  0  0  0  0  0
  -31.2711  -17.5873   20.5241 H   0  0  0  0  0  0
  -30.4763  -17.3983   19.0193 H   0  0  0  0  0  0
  -29.8716  -23.5329   18.1799 H   0  0  0  0  0  0
  -30.4127  -24.9286   19.0593 H   0  0  0  0  0  0
  -27.2765  -24.4570   20.8516 H   0  0  0  0  0  0
  -27.5525  -24.4887   19.1377 H   0  0  0  0  0  0
  -29.0671  -22.7706   22.9000 H   0  0  0  0  0  0
  -29.7233  -23.8492   21.1635 H   0  0  0  0  0  0
  -28.8443  -15.9331   20.7363 H   0  0  0  0  0  0
  1 25  1  0  0  0
  1 30  2  0  0  0
  1 85  1  0  0  0
  2  3  1  0  0  0
  2 25  1  0  0  0
  2 86  1  0  0  0
  2 87  1  0  0  0
  3  4  1  0  0  0
  3 88  1  0  0  0
  3 89  1  0  0  0
  4  5  1  0  0  0
  4 90  1  0  0  0
  4 91  1  0  0  0
  5  6  1  0  0  0
  5 26  1  0  0  0
  5 92  1  0  0  0
  6 25  1  0  0  0
  6 93  1  0  0  0
  6 94  1  0  0  0
  7  8  2  0  0  0
  7 26  1  0  0  0
  7 29  1  0  0  0
  8  9  1  0  0  0
  8 22  1  0  0  0
  9 10  1  0  0  0
  9 27  2  0  0  0
 10 11  2  0  0  0
 10 15  1  0  0  0
 11 12  1  0  0  0
 11 95  1  0  0  0
 12 13  2  0  0  0
 12 96  1  0  0  0
 13 14  1  0  0  0
 13 31  1  0  0  0
 14 15  2  0  0  0
 14 97  1  0  0  0
 15 98  1  0  0  0
 16 17  2  0  0  0
 16 21  1  0  0  0
 16 31  1  0  0  0
 17 18  1  0  0  0
 17 99  1  0  0  0
 18 19  2  0  0  0
 18100  1  0  0  0
 19 20  1  0  0  0
 19 24  1  0  0  0
 20 21  2  0  0  0
 20101  1  0  0  0
 21 23  1  0  0  0
 22 28  1  0  0  0
 22 32  2  0  0  0
 26 27  1  0  0  0
 28102  1  0  0  0
 28103  1  0  0  0
 29104  1  0  0  0
 29105  1  0  0  0
 33 34  1  0  0  0
 33 66  1  0  0  0
 33 70  2  0  0  0
 34 36  1  0  0  0
 34 59  1  0  0  0
 34106  1  0  0  0
 35 44  2  0  0  0
 35 45  1  0  0  0
 35 68  1  0  0  0
 36 56  1  0  0  0
 36107  1  0  0  0
 37 39  1  0  0  0
 37 47  1  0  0  0
 37 66  1  0  0  0
 37108  1  0  0  0
 38 43  2  0  0  0
 38 46  1  0  0  0
 38 47  1  0  0  0
 39 64  1  0  0  0
 39 67  2  0  0  0
 40 52  1  0  0  0
 40 53  2  0  0  0
 40 58  1  0  0  0
 41109  1  0  0  0
 41110  1  0  0  0
 41111  1  0  0  0
 41 48  1  0  0  0
 42 43  1  0  0  0
 42 66  1  0  0  0
 42112  1  0  0  0
 42113  1  0  0  0
 43 44  1  0  0  0
 44114  1  0  0  0
 45 46  2  0  0  0
 45115  1  0  0  0
 46116  1  0  0  0
 47117  1  0  0  0
 47118  1  0  0  0
 48 56  1  0  0  0
 48 65  1  0  0  0
 48119  1  0  0  0
 49 50  1  0  0  0
 49 53  1  0  0  0
 49 64  1  0  0  0
 49120  1  0  0  0
 50 51  1  0  0  0
 50121  1  0  0  0
 50122  1  0  0  0
 51 52  1  0  0  0
 51123  1  0  0  0
 51124  1  0  0  0
 52125  1  0  0  0
 52126  1  0  0  0
 53 54  1  0  0  0
 54 55  2  0  0  0
 54127  1  0  0  0
 55 57  1  0  0  0
 55128  1  0  0  0
 56 69  2  0  0  0
 57 58  2  0  0  0
 57129  1  0  0  0
 58130  1  0  0  0
 59 60  1  0  0  0
 59 61  1  0  0  0
 59 62  1  0  0  0
 60131  1  0  0  0
 60132  1  0  0  0
 60133  1  0  0  0
 61134  1  0  0  0
 61135  1  0  0  0
 61136  1  0  0  0
 62137  1  0  0  0
 62138  1  0  0  0
 62139  1  0  0  0
 63 65  1  0  0  0
 63140  1  0  0  0
 63141  1  0  0  0
 63142  1  0  0  0
 64143  1  0  0  0
 65144  1  0  0  0
 68 81  1  0  0  0
 71 73  2  0  0  0
 71 74  1  0  0  0
 71145  1  0  0  0
 72 73  1  0  0  0
 72 84  2  0  0  0
 72146  1  0  0  0
 73 79  1  0  0  0
 74 75  2  0  0  0
 74 82  1  0  0  0
 75 83  1  0  0  0
 75 84  1  0  0  0
 76 80  1  0  0  0
 76147  1  0  0  0
 76148  1  0  0  0
 76149  1  0  0  0
 77150  1  0  0  0
 77151  1  0  0  0
 77152  1  0  0  0
 77 82  1  0  0  0
 78 82  1  0  0  0
 78153  1  0  0  0
 78154  1  0  0  0
 78155  1  0  0  0
 79 85  1  0  0  0
 79156  1  0  0  0
 79157  1  0  0  0
 80158  1  0  0  0
 80159  1  0  0  0
 80 83  1  0  0  0
 81 83  1  0  0  0
 81160  1  0  0  0
 81161  1  0  0  0
 82162  1  0  0  0
 83163  1  0  0  0
 85164  1  0  0  0
M  ISO  4   1 100  68 101  81 101  85 100
M  END
> <chiral flag>
0

> <version>
0

> <s_m_source_file>
/data/baiqing/PycharmProjects/Reinvent-master-3.2/result/LINK_invent/BTK/process_docking_weight1_custom_sum_contain_oxygen_bond_distance_aromatic_linkinvent_7_9_3/rearranged_h_0099.sdf

> <i_m_source_file_index>
17

> <r_mmod_Potential_Energy-OPLS-2005>
298.256072998047

> <r_mmod_Stretch_Energy-OPLS-2005>
201.231491088867

> <r_mmod_Bend_Energy-OPLS-2005>
241.458114624023

> <r_mmod_Torsional_Energy-OPLS-2005>
226.846817016602

> <r_mmod_Improper_Torsional_Energy-OPLS-2005>
10.6121664047241

> <r_mmod_Van_der_Waal_Energy-OPLS-2005>
136.223663330078

> <r_mmod_Electrostatic_Energy-OPLS-2005>
-448.874633789062

> <r_mmod_Solvation_Energy-OPLS-2005>
-216.044174194336

> <b_mmod_Minimization_Converged-OPLS-2005>
0

> <r_mmod_RMS_Derivative-OPLS-2005>
2.08606648445129

$$$$
17
                    3D
 Structure written by MMmdl.
179187  0  0  1  0            999 V2000
  -30.7159  -14.4166   20.6162 C   0  0  0  0  0  0
  -30.4185  -12.2867   19.4036 C   0  0  0  0  0  0
  -29.4851  -12.5212   18.1970 C   0  0  0  0  0  0
  -28.0039  -12.3902   18.6067 C   0  0  0  0  0  0
  -27.6643  -13.1984   19.8856 C   0  0  2  0  0  0
  -28.7064  -12.9142   20.9884 C   0  0  0  0  0  0
  -25.2575  -13.8124   20.5684 C   0  0  0  0  0  0
  -24.1822  -13.0405   20.9158 C   0  0  0  0  0  0
  -24.6381  -11.6878   20.8727 C   0  0  0  0  0  0
  -23.9050  -10.4272   21.0400 C   0  0  0  0  0  0
  -24.3612   -9.4191   21.9173 C   0  0  0  0  0  0
  -23.6278   -8.2233   22.0757 C   0  0  0  0  0  0
  -22.4257   -8.0267   21.3538 C   0  0  0  0  0  0
  -21.9899   -9.0239   20.4634 C   0  0  0  0  0  0
  -22.7226  -10.2120   20.3042 C   0  0  0  0  0  0
  -21.6860   -6.0709   22.5262 C   0  0  0  0  0  0
  -21.4030   -6.5618   23.8201 C   0  0  0  0  0  0
  -21.3670   -5.6777   24.9165 C   0  0  0  0  0  0
  -21.6059   -4.3043   24.7225 C   0  0  0  0  0  0
  -21.8834   -3.8119   23.4349 C   0  0  0  0  0  0
  -21.9201   -4.6933   22.3399 C   0  0  0  0  0  0
  -22.7841  -13.5200   21.1817 C   0  0  0  0  0  0
  -22.1657   -4.2110   21.0976 F   0  0  0  0  0  0
  -21.5637   -3.4539   25.7742 F   0  0  0  0  0  0
  -30.0404  -13.2442   20.4542 N   0  0  0  0  0  0
  -26.3032  -12.9299   20.3420 N   0  0  0  0  0  0
  -25.9303  -11.6463   20.5756 N   0  0  0  0  0  0
  -22.0514  -12.8180   22.0394 N   0  0  0  0  0  0
  -25.4272  -15.1846   20.4088 N   0  0  0  0  0  0
  -31.8170  -14.6292   20.0943 O   0  0  0  0  0  0
  -21.6645   -6.8847   21.4216 O   0  0  0  0  0  0
  -22.3517  -14.5496   20.6660 O   0  0  0  0  0  0
  -24.6103  -31.8699   23.2115 C   0  0  0  0  0  0
  -25.9006  -32.4842   23.8410 C   0  0  1  0  0  0
  -27.2427  -27.4636   20.0926 C   0  0  0  0  0  0
  -25.5878  -33.8641   24.2347 N   0  0  0  0  0  0
  -23.3980  -30.4900   21.5519 C   0  0  2  0  0  0
  -24.8448  -28.9519   20.1241 C   0  0  0  0  0  0
  -22.7388  -29.4651   22.5019 C   0  0  0  0  0  0
  -18.0271  -28.1374   22.8495 C   0  0  0  0  0  0
  -24.1486  -36.7317   23.2641 C   0  0  0  0  0  0
  -25.9226  -30.8430   21.3599 C   0  0  0  0  0  0
  -26.0025  -29.4764   20.7130 C   0  0  0  0  0  0
  -27.2048  -28.7394   20.6922 C   0  0  0  0  0  0
  -26.0701  -26.9388   19.5085 C   0  0  0  0  0  0
  -24.8705  -27.6792   19.5248 C   0  0  0  0  0  0
  -23.6057  -29.8163   20.1690 C   0  0  0  0  0  0
  -25.4107  -36.3124   24.0346 C   0  0  1  0  0  0
  -20.5852  -28.3644   23.1342 C   0  0  2  0  0  0
  -20.6759  -26.9385   22.5430 C   0  0  0  0  0  0
  -19.5742  -26.6384   21.5214 C   0  0  0  0  0  0
  -18.1915  -26.7927   22.1617 C   0  0  0  0  0  0
  -19.1517  -28.8827   23.2916 C   0  0  0  0  0  0
  -18.9442  -30.1436   23.8918 C   0  0  0  0  0  0
  -17.6446  -30.6582   24.0560 C   0  0  0  0  0  0
  -25.9027  -34.9488   23.5145 C   0  0  0  0  0  0
  -16.5338  -29.9080   23.6326 C   0  0  0  0  0  0
  -16.7261  -28.6501   23.0342 C   0  0  0  0  0  0
  -26.4455  -31.6611   25.0719 C   0  0  0  0  0  0
  -25.3744  -31.3693   26.1485 C   0  0  0  0  0  0
  -27.0289  -30.3069   24.6053 C   0  0  0  0  0  0
  -27.6038  -32.4331   25.7473 C   0  0  0  0  0  0
  -27.5589  -37.1803   24.8465 C   0  0  0  0  0  0
  -21.4120  -29.3015   22.3753 N   0  0  0  0  0  0
  -26.4300  -37.3798   23.9414 N   0  0  0  0  0  0
  -24.6617  -31.0810   22.1007 N   0  0  0  0  0  0
  -23.4171  -28.8203   23.3063 O   0  0  0  0  0  0
  -28.4415  -26.7977   20.0238 O   0  0  0  0  0  0
  -26.5579  -34.8926   22.4699 O   0  0  0  0  0  0
  -23.5299  -32.1452   23.7511 O   0  0  0  0  0  0
  -31.4564  -18.0960   21.2340 C   0  0  0  0  0  0
  -29.9207  -19.0220   19.6249 C   0  0  0  0  0  0
  -30.3647  -17.9140   20.3645 C   0  0  0  0  0  0
  -32.0391  -19.3757   21.3633 C   0  0  0  0  0  0
  -31.5020  -20.4326   20.5830 C   0  0  0  0  0  0
  -36.3263  -17.4599   23.3761 C   0  0  0  0  0  0
  -36.3084  -19.9492   22.9535 C   0  0  0  0  0  0
  -29.6064  -15.6190   22.4760 C   0  0  0  0  0  0
  -32.0507  -23.4323   18.7367 C   0  0  0  0  0  0
  -33.1872  -19.5899   22.3583 C   0  0  0  0  0  0
  -29.6482  -16.5763   20.1655 C   0  0  0  0  0  0
  -32.0359  -21.8628   20.6498 C   0  0  0  0  0  0
  -34.2890  -18.5083   22.3019 C   0  0  0  0  0  0
  -29.5221  -24.6673   19.7014 C   0  0  0  0  0  0
  -30.3267  -23.6574   20.5541 C   0  0  0  0  0  0
  -28.4866  -25.4621   20.5198 C   0  0  0  0  0  0
  -35.4489  -18.7205   23.2977 C   0  0  0  0  0  0
  -30.4729  -20.2472   19.7224 N   0  0  0  0  0  0
  -29.9695  -15.4548   21.0641 N   0  0  0  0  0  0
  -31.2363  -22.7645   19.7812 N   0  3  1  0  0  0
  -31.4630  -12.3796   19.1024 H   0  0  0  0  0  0
  -30.3089  -11.2662   19.7756 H   0  0  0  0  0  0
  -29.7131  -11.8133   17.3981 H   0  0  0  0  0  0
  -29.6603  -13.5139   17.7816 H   0  0  0  0  0  0
  -27.7943  -11.3335   18.7729 H   0  0  0  0  0  0
  -27.3578  -12.7030   17.7847 H   0  0  0  0  0  0
  -27.7241  -14.2547   19.6261 H   0  0  0  0  0  0
  -28.6805  -11.8600   21.2641 H   0  0  0  0  0  0
  -28.4571  -13.4406   21.9046 H   0  0  0  0  0  0
  -25.2790   -9.5665   22.4707 H   0  0  0  0  0  0
  -23.9994   -7.4643   22.7489 H   0  0  0  0  0  0
  -21.0839   -8.8765   19.8926 H   0  0  0  0  0  0
  -22.3702  -10.9659   19.6134 H   0  0  0  0  0  0
  -21.2022   -7.6130   23.9683 H   0  0  0  0  0  0
  -21.1481   -6.0511   25.9064 H   0  0  0  0  0  0
  -22.0604   -2.7575   23.2866 H   0  0  0  0  0  0
  -22.4196  -11.9861   22.4778 H   0  0  0  0  0  0
  -21.1118  -13.1152   22.2605 H   0  0  0  0  0  0
  -24.6590  -15.8382   20.5142 H   0  0  0  0  0  0
  -26.2831  -15.6260   20.1011 H   0  0  0  0  0  0
  -26.7075  -32.5566   23.1179 H   0  0  0  0  0  0
  -25.0051  -33.9827   25.0509 H   0  0  0  0  0  0
  -22.6840  -31.3038   21.4104 H   0  0  0  0  0  0
  -23.3758  -35.9638   23.3305 H   0  0  0  0  0  0
  -24.3582  -36.8933   22.2055 H   0  0  0  0  0  0
  -23.7227  -37.6517   23.6654 H   0  0  0  0  0  0
  -26.0263  -31.6069   20.5879 H   0  0  0  0  0  0
  -26.8141  -30.9017   21.9729 H   0  0  0  0  0  0
  -28.1065  -29.1468   21.1270 H   0  0  0  0  0  0
  -26.0866  -25.9756   19.0176 H   0  0  0  0  0  0
  -23.9792  -27.2693   19.0697 H   0  0  0  0  0  0
  -23.7106  -30.5890   19.4066 H   0  0  0  0  0  0
  -22.7321  -29.2318   19.8753 H   0  0  0  0  0  0
  -25.1276  -36.1999   25.0837 H   0  0  0  0  0  0
  -20.9940  -28.3206   24.1462 H   0  0  0  0  0  0
  -20.5664  -26.2241   23.3603 H   0  0  0  0  0  0
  -21.6628  -26.7433   22.1213 H   0  0  0  0  0  0
  -19.6898  -25.6299   21.1226 H   0  0  0  0  0  0
  -19.6699  -27.3206   20.6753 H   0  0  0  0  0  0
  -17.4190  -26.6685   21.4009 H   0  0  0  0  0  0
  -18.0305  -26.0061   22.9004 H   0  0  0  0  0  0
  -19.7917  -30.7244   24.2297 H   0  0  0  0  0  0
  -17.5002  -31.6267   24.5152 H   0  0  0  0  0  0
  -15.5337  -30.2983   23.7652 H   0  0  0  0  0  0
  -15.8662  -28.0834   22.7037 H   0  0  0  0  0  0
  -24.5925  -30.7025   25.7837 H   0  0  0  0  0  0
  -24.8920  -32.2834   26.4951 H   0  0  0  0  0  0
  -25.8125  -30.8868   27.0232 H   0  0  0  0  0  0
  -26.2812  -29.6822   24.1154 H   0  0  0  0  0  0
  -27.4146  -29.7302   25.4471 H   0  0  0  0  0  0
  -27.8604  -30.4417   23.9131 H   0  0  0  0  0  0
  -27.2665  -33.3634   26.2053 H   0  0  0  0  0  0
  -28.3833  -32.6894   25.0288 H   0  0  0  0  0  0
  -28.0715  -31.8458   26.5381 H   0  0  0  0  0  0
  -28.2593  -38.0114   24.7532 H   0  0  0  0  0  0
  -28.1098  -36.2646   24.6264 H   0  0  0  0  0  0
  -27.2306  -37.1420   25.8866 H   0  0  0  0  0  0
  -20.9276  -29.8743   21.6986 H   0  0  0  0  0  0
  -26.0199  -38.2877   24.1428 H   0  0  0  0  0  0
  -31.8319  -17.2608   21.8059 H   0  0  0  0  0  0
  -29.0958  -18.9245   18.9345 H   0  0  0  0  0  0
  -37.1265  -17.5752   24.1077 H   0  0  0  0  0  0
  -36.7893  -17.2339   22.4145 H   0  0  0  0  0  0
  -35.7420  -16.5897   23.6769 H   0  0  0  0  0  0
  -37.1606  -20.0338   23.6284 H   0  0  0  0  0  0
  -35.7444  -20.8764   23.0492 H   0  0  0  0  0  0
  -36.6978  -19.8953   21.9359 H   0  0  0  0  0  0
  -28.5211  -15.6403   22.5848 H   0  0  0  0  0  0
  -29.9906  -16.5453   22.8955 H   0  0  0  0  0  0
  -29.9932  -14.8044   23.0905 H   0  0  0  0  0  0
  -32.6874  -22.7141   18.2185 H   0  0  0  0  0  0
  -32.6911  -24.2048   19.1650 H   0  0  0  0  0  0
  -31.4214  -23.8895   17.9733 H   0  0  0  0  0  0
  -32.7584  -19.6211   23.3616 H   0  0  0  0  0  0
  -33.6517  -20.5615   22.2054 H   0  0  0  0  0  0
  -29.7980  -16.2709   19.1285 H   0  0  0  0  0  0
  -28.5769  -16.7633   20.2504 H   0  0  0  0  0  0
  -33.0797  -21.8484   20.3365 H   0  0  0  0  0  0
  -32.0275  -22.2071   21.6850 H   0  0  0  0  0  0
  -34.6868  -18.4336   21.2886 H   0  0  0  0  0  0
  -33.8476  -17.5370   22.5222 H   0  0  0  0  0  0
  -29.0212  -24.1660   18.8719 H   0  0  0  0  0  0
  -30.2191  -25.3796   19.2586 H   0  0  0  0  0  0
  -29.6361  -23.0300   21.1197 H   0  0  0  0  0  0
  -30.9107  -24.2144   21.2877 H   0  0  0  0  0  0
  -27.5228  -24.9511   20.5122 H   0  0  0  0  0  0
  -28.7946  -25.5193   21.5643 H   0  0  0  0  0  0
  -35.0229  -18.8752   24.2904 H   0  0  0  0  0  0
  -30.6555  -22.0701   19.3177 H   0  0  0  0  0  0
  1 25  1  0  0  0
  1 30  2  0  0  0
  1 89  1  0  0  0
  2  3  1  0  0  0
  2 25  1  0  0  0
  2 91  1  0  0  0
  2 92  1  0  0  0
  3  4  1  0  0  0
  3 93  1  0  0  0
  3 94  1  0  0  0
  4  5  1  0  0  0
  4 95  1  0  0  0
  4 96  1  0  0  0
  5  6  1  0  0  0
  5 26  1  0  0  0
  5 97  1  0  0  0
  6 25  1  0  0  0
  6 98  1  0  0  0
  6 99  1  0  0  0
  7  8  2  0  0  0
  7 26  1  0  0  0
  7 29  1  0  0  0
  8  9  1  0  0  0
  8 22  1  0  0  0
  9 10  1  0  0  0
  9 27  2  0  0  0
 10 11  2  0  0  0
 10 15  1  0  0  0
 11 12  1  0  0  0
 11100  1  0  0  0
 12 13  2  0  0  0
 12101  1  0  0  0
 13 14  1  0  0  0
 13 31  1  0  0  0
 14 15  2  0  0  0
 14102  1  0  0  0
 15103  1  0  0  0
 16 17  2  0  0  0
 16 21  1  0  0  0
 16 31  1  0  0  0
 17 18  1  0  0  0
 17104  1  0  0  0
 18 19  2  0  0  0
 18105  1  0  0  0
 19 20  1  0  0  0
 19 24  1  0  0  0
 20 21  2  0  0  0
 20106  1  0  0  0
 21 23  1  0  0  0
 22 28  1  0  0  0
 22 32  2  0  0  0
 26 27  1  0  0  0
 28107  1  0  0  0
 28108  1  0  0  0
 29109  1  0  0  0
 29110  1  0  0  0
 33 34  1  0  0  0
 33 66  1  0  0  0
 33 70  2  0  0  0
 34 36  1  0  0  0
 34 59  1  0  0  0
 34111  1  0  0  0
 35 44  2  0  0  0
 35 45  1  0  0  0
 35 68  1  0  0  0
 36 56  1  0  0  0
 36112  1  0  0  0
 37 39  1  0  0  0
 37 47  1  0  0  0
 37 66  1  0  0  0
 37113  1  0  0  0
 38 43  2  0  0  0
 38 46  1  0  0  0
 38 47  1  0  0  0
 39 64  1  0  0  0
 39 67  2  0  0  0
 40 52  1  0  0  0
 40 53  2  0  0  0
 40 58  1  0  0  0
 41114  1  0  0  0
 41115  1  0  0  0
 41116  1  0  0  0
 41 48  1  0  0  0
 42 43  1  0  0  0
 42 66  1  0  0  0
 42117  1  0  0  0
 42118  1  0  0  0
 43 44  1  0  0  0
 44119  1  0  0  0
 45 46  2  0  0  0
 45120  1  0  0  0
 46121  1  0  0  0
 47122  1  0  0  0
 47123  1  0  0  0
 48 56  1  0  0  0
 48 65  1  0  0  0
 48124  1  0  0  0
 49 50  1  0  0  0
 49 53  1  0  0  0
 49 64  1  0  0  0
 49125  1  0  0  0
 50 51  1  0  0  0
 50126  1  0  0  0
 50127  1  0  0  0
 51 52  1  0  0  0
 51128  1  0  0  0
 51129  1  0  0  0
 52130  1  0  0  0
 52131  1  0  0  0
 53 54  1  0  0  0
 54 55  2  0  0  0
 54132  1  0  0  0
 55 57  1  0  0  0
 55133  1  0  0  0
 56 69  2  0  0  0
 57 58  2  0  0  0
 57134  1  0  0  0
 58135  1  0  0  0
 59 60  1  0  0  0
 59 61  1  0  0  0
 59 62  1  0  0  0
 60136  1  0  0  0
 60137  1  0  0  0
 60138  1  0  0  0
 61139  1  0  0  0
 61140  1  0  0  0
 61141  1  0  0  0
 62142  1  0  0  0
 62143  1  0  0  0
 62144  1  0  0  0
 63 65  1  0  0  0
 63145  1  0  0  0
 63146  1  0  0  0
 63147  1  0  0  0
 64148  1  0  0  0
 65149  1  0  0  0
 68 86  1  0  0  0
 71 73  2  0  0  0
 71 74  1  0  0  0
 71150  1  0  0  0
 72 73  1  0  0  0
 72 88  2  0  0  0
 72151  1  0  0  0
 73 81  1  0  0  0
 74 75  2  0  0  0
 74 80  1  0  0  0
 75 82  1  0  0  0
 75 88  1  0  0  0
 76152  1  0  0  0
 76153  1  0  0  0
 76154  1  0  0  0
 76 87  1  0  0  0
 77 87  1  0  0  0
 77155  1  0  0  0
 77156  1  0  0  0
 77157  1  0  0  0
 78 89  1  0  0  0
 78158  1  0  0  0
 78159  1  0  0  0
 78160  1  0  0  0
 79161  1  0  0  0
 79162  1  0  0  0
 79163  1  0  0  0
 79 90  1  0  0  0
 80 83  1  0  0  0
 80164  1  0  0  0
 80165  1  0  0  0
 81 89  1  0  0  0
 81166  1  0  0  0
 81167  1  0  0  0
 82 90  1  0  0  0
 82168  1  0  0  0
 82169  1  0  0  0
 83 87  1  0  0  0
 83170  1  0  0  0
 83171  1  0  0  0
 84 85  1  0  0  0
 84 86  1  0  0  0
 84172  1  0  0  0
 84173  1  0  0  0
 85 90  1  0  0  0
 85174  1  0  0  0
 85175  1  0  0  0
 86176  1  0  0  0
 86177  1  0  0  0
 87178  1  0  0  0
 90179  1  0  0  0
M  CHG  1  90   1
M  ISO  4   1 100  68 101  86 101  89 100
M  END
> <chiral flag>
0

> <version>
0

> <s_m_source_file>
/data/baiqing/PycharmProjects/Reinvent-master-3.2/result/LINK_invent/BTK/process_docking_weight1_custom_sum_contain_oxygen_bond_distance_aromatic_linkinvent_7_9_3/rearranged_h_0099.sdf

> <i_m_source_file_index>
18

> <r_mmod_Potential_Energy-OPLS-2005>
-186.179153442383

> <r_mmod_Stretch_Energy-OPLS-2005>
37.4952774047852

> <r_mmod_Bend_Energy-OPLS-2005>
108.835411071777

> <r_mmod_Torsional_Energy-OPLS-2005>
307.505889892578

> <r_mmod_Improper_Torsional_Energy-OPLS-2005>
9.68895626068115

> <r_mmod_Van_der_Waal_Energy-OPLS-2005>
170.71305847168

> <r_mmod_Electrostatic_Energy-OPLS-2005>
-423.255279541016

> <r_mmod_Solvation_Energy-OPLS-2005>
-405.546447753906

> <b_mmod_Minimization_Converged-OPLS-2005>
0

> <r_mmod_RMS_Derivative-OPLS-2005>
2.19315576553345

$$$$
18
                    3D
 Structure written by MMmdl.
183191  0  0  1  0            999 V2000
  -30.6165  -14.7395   20.4586 C   0  0  0  0  0  0
  -30.4293  -12.4534   19.4746 C   0  0  0  0  0  0
  -29.5094  -12.5128   18.2359 C   0  0  0  0  0  0
  -28.0351  -12.3341   18.6492 C   0  0  0  0  0  0
  -27.6401  -13.2326   19.8515 C   0  0  2  0  0  0
  -28.6849  -13.1702   20.9871 C   0  0  0  0  0  0
  -25.2496  -13.8200   20.5685 C   0  0  0  0  0  0
  -24.1790  -13.0443   20.9198 C   0  0  0  0  0  0
  -24.6391  -11.6919   20.8748 C   0  0  0  0  0  0
  -23.9067  -10.4300   21.0405 C   0  0  0  0  0  0
  -24.3620   -9.4218   21.9181 C   0  0  0  0  0  0
  -23.6299   -8.2251   22.0747 C   0  0  0  0  0  0
  -22.4284   -8.0286   21.3538 C   0  0  0  0  0  0
  -21.9918   -9.0253   20.4641 C   0  0  0  0  0  0
  -22.7241  -10.2135   20.3056 C   0  0  0  0  0  0
  -21.6851   -6.0742   22.5280 C   0  0  0  0  0  0
  -21.4012   -6.5641   23.8212 C   0  0  0  0  0  0
  -21.3662   -5.6789   24.9170 C   0  0  0  0  0  0
  -21.6052   -4.3053   24.7225 C   0  0  0  0  0  0
  -21.8820   -3.8153   23.4345 C   0  0  0  0  0  0
  -21.9190   -4.6970   22.3403 C   0  0  0  0  0  0
  -22.7818  -13.5222   21.1861 C   0  0  0  0  0  0
  -22.1655   -4.2159   21.0981 F   0  0  0  0  0  0
  -21.5637   -3.4538   25.7736 F   0  0  0  0  0  0
  -29.9851  -13.5183   20.4034 N   0  0  0  0  0  0
  -26.2927  -12.9407   20.3290 N   0  0  0  0  0  0
  -25.9322  -11.6551   20.5756 N   0  0  0  0  0  0
  -22.0464  -12.8220   22.0429 N   0  0  0  0  0  0
  -25.4182  -15.1924   20.4092 N   0  0  0  0  0  0
  -31.8069  -14.8269   20.1465 O   0  0  0  0  0  0
  -21.6643   -6.8887   21.4240 O   0  0  0  0  0  0
  -22.3502  -14.5519   20.6696 O   0  0  0  0  0  0
  -24.6310  -31.8555   23.1985 C   0  0  0  0  0  0
  -25.9136  -32.4754   23.8331 C   0  0  1  0  0  0
  -27.2165  -27.2609   20.1356 C   0  0  0  0  0  0
  -25.5935  -33.8557   24.2255 N   0  0  0  0  0  0
  -23.4276  -30.4777   21.5424 C   0  0  2  0  0  0
  -24.8745  -28.9229   20.1134 C   0  0  0  0  0  0
  -22.7502  -29.4599   22.4918 C   0  0  0  0  0  0
  -18.0290  -28.1388   22.8482 C   0  0  0  0  0  0
  -24.1491  -36.7282   23.2640 C   0  0  0  0  0  0
  -25.9736  -30.7676   21.3795 C   0  0  0  0  0  0
  -26.0461  -29.3895   20.7234 C   0  0  0  0  0  0
  -27.2219  -28.5718   20.7214 C   0  0  0  0  0  0
  -26.0268  -26.8672   19.4858 C   0  0  0  0  0  0
  -24.8698  -27.6696   19.4831 C   0  0  0  0  0  0
  -23.6464  -29.8111   20.1591 C   0  0  0  0  0  0
  -25.4118  -36.3069   24.0326 C   0  0  1  0  0  0
  -20.5894  -28.3695   23.1273 C   0  0  2  0  0  0
  -20.6779  -26.9410   22.5413 C   0  0  0  0  0  0
  -19.5755  -26.6379   21.5215 C   0  0  0  0  0  0
  -18.1935  -26.7929   22.1621 C   0  0  0  0  0  0
  -19.1543  -28.8858   23.2874 C   0  0  0  0  0  0
  -18.9465  -30.1461   23.8891 C   0  0  0  0  0  0
  -17.6462  -30.6586   24.0562 C   0  0  0  0  0  0
  -25.9060  -34.9437   23.5093 C   0  0  0  0  0  0
  -16.5353  -29.9082   23.6332 C   0  0  0  0  0  0
  -16.7276  -28.6501   23.0349 C   0  0  0  0  0  0
  -26.4502  -31.6582   25.0723 C   0  0  0  0  0  0
  -25.3723  -31.3736   26.1444 C   0  0  0  0  0  0
  -27.0348  -30.2995   24.6219 C   0  0  0  0  0  0
  -27.6056  -32.4323   25.7491 C   0  0  0  0  0  0
  -27.5584  -37.1793   24.8460 C   0  0  0  0  0  0
  -21.4207  -29.3040   22.3661 N   0  0  0  0  0  0
  -26.4291  -37.3769   23.9410 N   0  0  0  0  0  0
  -24.6963  -31.0519   22.0964 N   0  0  0  0  0  0
  -23.4203  -28.8144   23.3023 O   0  0  0  0  0  0
  -28.3143  -26.3712   20.1605 O   0  0  0  0  0  0
  -26.5631  -34.8914   22.4662 O   0  0  0  0  0  0
  -23.5460  -32.1372   23.7284 O   0  0  0  0  0  0
  -31.6056  -21.2390   17.6181 C   0  0  0  0  0  0
  -30.8987  -21.8610   18.6493 C   0  0  0  0  0  0
  -31.2824  -19.9326   17.2437 C   0  0  0  0  0  0
  -29.9285  -21.1900   19.4349 C   0  0  0  0  0  0
  -30.3443  -19.2004   18.0119 C   0  0  0  0  0  0
  -29.8435  -19.7225   19.2522 C   0  0  0  0  0  0
  -31.9768  -19.3469   16.0206 C   0  0  0  0  0  0
  -24.8244  -18.5683   14.1649 C   0  0  0  0  0  0
  -24.9928  -17.6281   16.4993 C   0  0  0  0  0  0
  -28.8762  -15.9440   15.3528 C   0  0  0  0  0  0
  -29.0367  -22.1895   20.3022 C   0  0  0  0  0  0
  -29.3137  -18.6007   20.2465 C   0  0  0  0  0  0
  -29.7985  -17.8899   17.4167 C   0  0  0  0  0  0
  -29.1114  -23.7923   19.9392 C   0  0  0  0  0  0
  -30.3285  -17.3437   20.5311 C   0  0  0  0  0  0
  -28.6585  -18.1885   16.4115 C   0  0  0  0  0  0
  -26.9309  -17.3316   14.8359 C   0  0  0  0  0  0
  -28.0877  -24.9142   20.4812 C   0  0  0  0  0  0
  -25.7779  -18.2434   15.3270 C   0  0  0  0  0  0
  -29.8583  -15.8881   20.6442 N   0  0  0  0  0  0
  -27.9562  -16.9915   15.8637 N   0  3  1  0  0  0
  -31.4710  -12.5756   19.1722 H   0  0  0  0  0  0
  -30.3707  -11.4767   19.9582 H   0  0  0  0  0  0
  -29.7931  -11.7437   17.5162 H   0  0  0  0  0  0
  -29.6364  -13.4697   17.7278 H   0  0  0  0  0  0
  -27.8928  -11.2850   18.9088 H   0  0  0  0  0  0
  -27.3775  -12.5270   17.8014 H   0  0  0  0  0  0
  -27.6319  -14.2546   19.4727 H   0  0  0  0  0  0
  -28.7199  -12.1741   21.4314 H   0  0  0  0  0  0
  -28.4224  -13.8572   21.7932 H   0  0  0  0  0  0
  -25.2765   -9.5698   22.4753 H   0  0  0  0  0  0
  -24.0018   -7.4642   22.7459 H   0  0  0  0  0  0
  -21.0849   -8.8764   19.8950 H   0  0  0  0  0  0
  -22.3684  -10.9673   19.6175 H   0  0  0  0  0  0
  -21.1995   -7.6145   23.9726 H   0  0  0  0  0  0
  -21.1487   -6.0510   25.9072 H   0  0  0  0  0  0
  -22.0597   -2.7618   23.2833 H   0  0  0  0  0  0
  -22.4064  -11.9876   22.4821 H   0  0  0  0  0  0
  -21.1083  -13.1247   22.2638 H   0  0  0  0  0  0
  -24.6507  -15.8430   20.5349 H   0  0  0  0  0  0
  -26.2736  -15.6427   20.1153 H   0  0  0  0  0  0
  -26.7203  -32.5403   23.1074 H   0  0  0  0  0  0
  -25.0077  -33.9693   25.0397 H   0  0  0  0  0  0
  -22.7241  -31.2999   21.3957 H   0  0  0  0  0  0
  -23.3756  -35.9610   23.3291 H   0  0  0  0  0  0
  -24.3584  -36.8917   22.2057 H   0  0  0  0  0  0
  -23.7238  -37.6477   23.6674 H   0  0  0  0  0  0
  -26.1141  -31.5277   20.6099 H   0  0  0  0  0  0
  -26.8503  -30.8158   22.0134 H   0  0  0  0  0  0
  -28.1197  -28.9251   21.2093 H   0  0  0  0  0  0
  -25.9730  -25.9205   18.9695 H   0  0  0  0  0  0
  -23.9762  -27.3105   18.9907 H   0  0  0  0  0  0
  -23.7726  -30.5865   19.4026 H   0  0  0  0  0  0
  -22.7645  -29.2453   19.8536 H   0  0  0  0  0  0
  -25.1300  -36.1912   25.0819 H   0  0  0  0  0  0
  -20.9986  -28.3272   24.1395 H   0  0  0  0  0  0
  -20.5672  -26.2305   23.3621 H   0  0  0  0  0  0
  -21.6649  -26.7433   22.1211 H   0  0  0  0  0  0
  -19.6917  -25.6288   21.1251 H   0  0  0  0  0  0
  -19.6700  -27.3186   20.6743 H   0  0  0  0  0  0
  -17.4210  -26.6681   21.4021 H   0  0  0  0  0  0
  -18.0328  -26.0072   22.9015 H   0  0  0  0  0  0
  -19.7943  -30.7280   24.2259 H   0  0  0  0  0  0
  -17.5015  -31.6266   24.5163 H   0  0  0  0  0  0
  -15.5352  -30.2981   23.7661 H   0  0  0  0  0  0
  -15.8676  -28.0819   22.7063 H   0  0  0  0  0  0
  -24.5899  -30.7086   25.7773 H   0  0  0  0  0  0
  -24.8916  -32.2908   26.4857 H   0  0  0  0  0  0
  -25.8037  -30.8921   27.0230 H   0  0  0  0  0  0
  -26.2936  -29.6736   24.1240 H   0  0  0  0  0  0
  -27.4018  -29.7267   25.4747 H   0  0  0  0  0  0
  -27.8819  -30.4261   23.9474 H   0  0  0  0  0  0
  -27.2667  -33.3626   26.2062 H   0  0  0  0  0  0
  -28.3869  -32.6879   25.0320 H   0  0  0  0  0  0
  -28.0727  -31.8454   26.5413 H   0  0  0  0  0  0
  -28.2589  -38.0101   24.7523 H   0  0  0  0  0  0
  -28.1092  -36.2635   24.6265 H   0  0  0  0  0  0
  -27.2308  -37.1412   25.8863 H   0  0  0  0  0  0
  -20.9393  -29.8763   21.6863 H   0  0  0  0  0  0
  -26.0167  -38.2840   24.1421 H   0  0  0  0  0  0
  -32.3291  -21.8120   17.0536 H   0  0  0  0  0  0
  -31.1230  -22.9057   18.7894 H   0  0  0  0  0  0
  -32.6441  -20.0738   15.5565 H   0  0  0  0  0  0
  -31.2670  -19.0340   15.2560 H   0  0  0  0  0  0
  -32.5841  -18.4867   16.3046 H   0  0  0  0  0  0
  -24.0417  -19.2614   14.4749 H   0  0  0  0  0  0
  -24.3372  -17.6706   13.7821 H   0  0  0  0  0  0
  -25.3566  -19.0333   13.3339 H   0  0  0  0  0  0
  -24.1847  -18.2889   16.8163 H   0  0  0  0  0  0
  -25.6239  -17.4611   17.3723 H   0  0  0  0  0  0
  -24.5436  -16.6731   16.2236 H   0  0  0  0  0  0
  -29.5044  -15.5330   16.1423 H   0  0  0  0  0  0
  -29.5230  -16.3401   14.5691 H   0  0  0  0  0  0
  -28.3225  -15.1027   14.9350 H   0  0  0  0  0  0
  -29.2844  -22.0468   21.3541 H   0  0  0  0  0  0
  -28.0027  -21.8604   20.1947 H   0  0  0  0  0  0
  -28.3607  -18.2337   19.8638 H   0  0  0  0  0  0
  -29.0660  -19.0766   21.1959 H   0  0  0  0  0  0
  -29.4117  -17.1984   18.1573 H   0  0  0  0  0  0
  -30.6126  -17.3453   16.9417 H   0  0  0  0  0  0
  -29.0592  -23.8759   18.8536 H   0  0  0  0  0  0
  -30.1038  -24.1447   20.2195 H   0  0  0  0  0  0
  -30.8820  -17.5732   21.4428 H   0  0  0  0  0  0
  -31.1035  -17.3476   19.7643 H   0  0  0  0  0  0
  -29.0342  -18.7919   15.5852 H   0  0  0  0  0  0
  -27.9301  -18.8099   16.9311 H   0  0  0  0  0  0
  -27.4304  -17.7987   13.9849 H   0  0  0  0  0  0
  -26.4932  -16.4074   14.4539 H   0  0  0  0  0  0
  -28.0804  -24.8496   21.5694 H   0  0  0  0  0  0
  -27.0915  -24.5930   20.1857 H   0  0  0  0  0  0
  -26.1877  -19.1993   15.6535 H   0  0  0  0  0  0
  -28.8872  -15.7423   20.8753 H   0  0  0  0  0  0
  -27.4520  -16.5684   16.6286 H   0  0  0  0  0  0
  1 25  1  0  0  0
  1 30  2  0  0  0
  1 90  1  0  0  0
  2  3  1  0  0  0
  2 25  1  0  0  0
  2 92  1  0  0  0
  2 93  1  0  0  0
  3  4  1  0  0  0
  3 94  1  0  0  0
  3 95  1  0  0  0
  4  5  1  0  0  0
  4 96  1  0  0  0
  4 97  1  0  0  0
  5  6  1  0  0  0
  5 26  1  0  0  0
  5 98  1  0  0  0
  6 25  1  0  0  0
  6 99  1  0  0  0
  6100  1  0  0  0
  7  8  2  0  0  0
  7 26  1  0  0  0
  7 29  1  0  0  0
  8  9  1  0  0  0
  8 22  1  0  0  0
  9 10  1  0  0  0
  9 27  2  0  0  0
 10 11  2  0  0  0
 10 15  1  0  0  0
 11 12  1  0  0  0
 11101  1  0  0  0
 12 13  2  0  0  0
 12102  1  0  0  0
 13 14  1  0  0  0
 13 31  1  0  0  0
 14 15  2  0  0  0
 14103  1  0  0  0
 15104  1  0  0  0
 16 17  2  0  0  0
 16 21  1  0  0  0
 16 31  1  0  0  0
 17 18  1  0  0  0
 17105  1  0  0  0
 18 19  2  0  0  0
 18106  1  0  0  0
 19 20  1  0  0  0
 19 24  1  0  0  0
 20 21  2  0  0  0
 20107  1  0  0  0
 21 23  1  0  0  0
 22 28  1  0  0  0
 22 32  2  0  0  0
 26 27  1  0  0  0
 28108  1  0  0  0
 28109  1  0  0  0
 29110  1  0  0  0
 29111  1  0  0  0
 33 34  1  0  0  0
 33 66  1  0  0  0
 33 70  2  0  0  0
 34 36  1  0  0  0
 34 59  1  0  0  0
 34112  1  0  0  0
 35 44  2  0  0  0
 35 45  1  0  0  0
 35 68  1  0  0  0
 36 56  1  0  0  0
 36113  1  0  0  0
 37 39  1  0  0  0
 37 47  1  0  0  0
 37 66  1  0  0  0
 37114  1  0  0  0
 38 43  2  0  0  0
 38 46  1  0  0  0
 38 47  1  0  0  0
 39 64  1  0  0  0
 39 67  2  0  0  0
 40 52  1  0  0  0
 40 53  2  0  0  0
 40 58  1  0  0  0
 41115  1  0  0  0
 41116  1  0  0  0
 41117  1  0  0  0
 41 48  1  0  0  0
 42 43  1  0  0  0
 42 66  1  0  0  0
 42118  1  0  0  0
 42119  1  0  0  0
 43 44  1  0  0  0
 44120  1  0  0  0
 45 46  2  0  0  0
 45121  1  0  0  0
 46122  1  0  0  0
 47123  1  0  0  0
 47124  1  0  0  0
 48 56  1  0  0  0
 48 65  1  0  0  0
 48125  1  0  0  0
 49 50  1  0  0  0
 49 53  1  0  0  0
 49 64  1  0  0  0
 49126  1  0  0  0
 50 51  1  0  0  0
 50127  1  0  0  0
 50128  1  0  0  0
 51 52  1  0  0  0
 51129  1  0  0  0
 51130  1  0  0  0
 52131  1  0  0  0
 52132  1  0  0  0
 53 54  1  0  0  0
 54 55  2  0  0  0
 54133  1  0  0  0
 55 57  1  0  0  0
 55134  1  0  0  0
 56 69  2  0  0  0
 57 58  2  0  0  0
 57135  1  0  0  0
 58136  1  0  0  0
 59 60  1  0  0  0
 59 61  1  0  0  0
 59 62  1  0  0  0
 60137  1  0  0  0
 60138  1  0  0  0
 60139  1  0  0  0
 61140  1  0  0  0
 61141  1  0  0  0
 61142  1  0  0  0
 62143  1  0  0  0
 62144  1  0  0  0
 62145  1  0  0  0
 63 65  1  0  0  0
 63146  1  0  0  0
 63147  1  0  0  0
 63148  1  0  0  0
 64149  1  0  0  0
 65150  1  0  0  0
 68 88  1  0  0  0
 71 72  2  0  0  0
 71 73  1  0  0  0
 71151  1  0  0  0
 72 74  1  0  0  0
 72152  1  0  0  0
 73 75  2  0  0  0
 73 77  1  0  0  0
 74 76  2  0  0  0
 74 81  1  0  0  0
 75 76  1  0  0  0
 75 83  1  0  0  0
 76 82  1  0  0  0
 77153  1  0  0  0
 77154  1  0  0  0
 77155  1  0  0  0
 78156  1  0  0  0
 78157  1  0  0  0
 78158  1  0  0  0
 78 89  1  0  0  0
 79 89  1  0  0  0
 79159  1  0  0  0
 79160  1  0  0  0
 79161  1  0  0  0
 80162  1  0  0  0
 80163  1  0  0  0
 80164  1  0  0  0
 80 91  1  0  0  0
 81 84  1  0  0  0
 81165  1  0  0  0
 81166  1  0  0  0
 82 85  1  0  0  0
 82167  1  0  0  0
 82168  1  0  0  0
 83 86  1  0  0  0
 83169  1  0  0  0
 83170  1  0  0  0
 84 88  1  0  0  0
 84171  1  0  0  0
 84172  1  0  0  0
 85 90  1  0  0  0
 85173  1  0  0  0
 85174  1  0  0  0
 86 91  1  0  0  0
 86175  1  0  0  0
 86176  1  0  0  0
 87 89  1  0  0  0
 87 91  1  0  0  0
 87177  1  0  0  0
 87178  1  0  0  0
 88179  1  0  0  0
 88180  1  0  0  0
 89181  1  0  0  0
 90182  1  0  0  0
 91183  1  0  0  0
M  CHG  1  91   1
M  ISO  4   1 100  68 101  88 101  90 100
M  END
> <chiral flag>
0

> <version>
0

> <s_m_source_file>
/data/baiqing/PycharmProjects/Reinvent-master-3.2/result/LINK_invent/BTK/process_docking_weight1_custom_sum_contain_oxygen_bond_distance_aromatic_linkinvent_7_9_3/rearranged_h_0099.sdf

> <i_m_source_file_index>
19

> <r_mmod_Potential_Energy-OPLS-2005>
151.294708251953

> <r_mmod_Stretch_Energy-OPLS-2005>
146.819869995117

> <r_mmod_Bend_Energy-OPLS-2005>
194.082489013672

> <r_mmod_Torsional_Energy-OPLS-2005>
297.526184082031

> <r_mmod_Improper_Torsional_Energy-OPLS-2005>
5.33420848846436

> <r_mmod_Van_der_Waal_Energy-OPLS-2005>
151.138092041016

> <r_mmod_Electrostatic_Energy-OPLS-2005>
-283.544647216797

> <r_mmod_Solvation_Energy-OPLS-2005>
-443.642913818359

> <b_mmod_Minimization_Converged-OPLS-2005>
0

> <r_mmod_RMS_Derivative-OPLS-2005>
1.20481431484222

$$$$
19
                    3D
 Structure written by MMmdl.
170178  0  0  1  0            999 V2000
  -30.7287  -14.6262   20.4671 C   0  0  0  0  0  0
  -30.4197  -12.3725   19.4736 C   0  0  0  0  0  0
  -29.5281  -12.4950   18.2240 C   0  0  0  0  0  0
  -28.0387  -12.3623   18.6125 C   0  0  0  0  0  0
  -27.6514  -13.2390   19.8362 C   0  0  2  0  0  0
  -28.6992  -13.1706   20.9730 C   0  0  0  0  0  0
  -25.2605  -13.8198   20.5620 C   0  0  0  0  0  0
  -24.1865  -13.0435   20.9096 C   0  0  0  0  0  0
  -24.6458  -11.6911   20.8635 C   0  0  0  0  0  0
  -23.9103  -10.4281   21.0320 C   0  0  0  0  0  0
  -24.3650   -9.4197   21.9106 C   0  0  0  0  0  0
  -23.6323   -8.2232   22.0700 C   0  0  0  0  0  0
  -22.4336   -8.0281   21.3481 C   0  0  0  0  0  0
  -21.9959   -9.0260   20.4585 C   0  0  0  0  0  0
  -22.7277  -10.2145   20.2962 C   0  0  0  0  0  0
  -21.6896   -6.0709   22.5255 C   0  0  0  0  0  0
  -21.4022   -6.5621   23.8157 C   0  0  0  0  0  0
  -21.3666   -5.6751   24.9129 C   0  0  0  0  0  0
  -21.6070   -4.3039   24.7169 C   0  0  0  0  0  0
  -21.8826   -3.8110   23.4310 C   0  0  0  0  0  0
  -21.9202   -4.6937   22.3345 C   0  0  0  0  0  0
  -22.7866  -13.5218   21.1802 C   0  0  0  0  0  0
  -22.1655   -4.2089   21.0933 F   0  0  0  0  0  0
  -21.5657   -3.4524   25.7719 F   0  0  0  0  0  0
  -30.0161  -13.4562   20.3858 N   0  0  0  0  0  0
  -26.3040  -12.9410   20.3167 N   0  0  0  0  0  0
  -25.9406  -11.6551   20.5611 N   0  0  0  0  0  0
  -22.0523  -12.8201   22.0377 N   0  0  0  0  0  0
  -25.4468  -15.1914   20.4079 N   0  0  0  0  0  0
  -31.9173  -14.6705   20.1728 O   0  0  0  0  0  0
  -21.6655   -6.8919   21.4228 O   0  0  0  0  0  0
  -22.3546  -14.5510   20.6661 O   0  0  0  0  0  0
  -24.6260  -31.8590   23.2051 C   0  0  0  0  0  0
  -25.9125  -32.4761   23.8343 C   0  0  1  0  0  0
  -27.2457  -27.3965   20.1217 C   0  0  0  0  0  0
  -25.5928  -33.8552   24.2265 N   0  0  0  0  0  0
  -23.4147  -30.4941   21.5348 C   0  0  2  0  0  0
  -24.8595  -28.9474   20.1058 C   0  0  0  0  0  0
  -22.7497  -29.4661   22.4822 C   0  0  0  0  0  0
  -18.0294  -28.1476   22.8442 C   0  0  0  0  0  0
  -24.1476  -36.7362   23.2624 C   0  0  0  0  0  0
  -25.9422  -30.8239   21.3507 C   0  0  0  0  0  0
  -26.0187  -29.4499   20.7124 C   0  0  0  0  0  0
  -27.2109  -28.6854   20.7081 C   0  0  0  0  0  0
  -26.0637  -26.9054   19.5209 C   0  0  0  0  0  0
  -24.8809  -27.6782   19.4979 C   0  0  0  0  0  0
  -23.6346  -29.8407   20.1415 C   0  0  0  0  0  0
  -25.4077  -36.3064   24.0322 C   0  0  1  0  0  0
  -20.5892  -28.3761   23.1260 C   0  0  2  0  0  0
  -20.6767  -26.9471   22.5438 C   0  0  0  0  0  0
  -19.5735  -26.6411   21.5258 C   0  0  0  0  0  0
  -18.1918  -26.7987   22.1662 C   0  0  0  0  0  0
  -19.1544  -28.8928   23.2855 C   0  0  0  0  0  0
  -18.9467  -30.1519   23.8890 C   0  0  0  0  0  0
  -17.6467  -30.6635   24.0600 C   0  0  0  0  0  0
  -25.9037  -34.9449   23.5101 C   0  0  0  0  0  0
  -16.5361  -29.9181   23.6289 C   0  0  0  0  0  0
  -16.7282  -28.6643   23.0216 C   0  0  0  0  0  0
  -26.4511  -31.6522   25.0695 C   0  0  0  0  0  0
  -25.3829  -31.3627   26.1492 C   0  0  0  0  0  0
  -27.0235  -30.2913   24.6067 C   0  0  0  0  0  0
  -27.6069  -32.4215   25.7514 C   0  0  0  0  0  0
  -27.5553  -37.1837   24.8445 C   0  0  0  0  0  0
  -21.4201  -29.3140   22.3665 N   0  0  0  0  0  0
  -26.4221  -37.3798   23.9437 N   0  0  0  0  0  0
  -24.6803  -31.0761   22.0908 N   0  0  0  0  0  0
  -23.4262  -28.8174   23.2832 O   0  0  0  0  0  0
  -28.4357  -26.6816   20.0649 O   0  0  0  0  0  0
  -26.5628  -34.8936   22.4678 O   0  0  0  0  0  0
  -23.5461  -32.1269   23.7501 O   0  0  0  0  0  0
  -31.5270  -20.7535   18.9226 C   0  0  0  0  0  0
  -32.4447  -19.6897   18.9956 C   0  0  0  0  0  0
  -29.9464  -19.4366   20.2045 C   0  0  0  0  0  0
  -30.2633  -20.6739   19.5445 C   0  0  0  0  0  0
  -32.1469  -18.4962   19.6891 C   0  0  0  0  0  0
  -30.8601  -18.3261   20.2890 C   0  0  0  0  0  0
  -33.2775  -17.4744   19.8032 C   0  0  0  0  0  0
  -26.9102  -21.2423   17.2078 C   0  0  0  0  0  0
  -28.5653  -22.0772   15.5688 C   0  0  0  0  0  0
  -30.5334  -17.1028   21.2131 C   0  0  0  0  0  0
  -29.8245  -23.1110   20.4692 C   0  0  0  0  0  0
  -29.0372  -22.4611   18.0572 C   0  0  0  0  0  0
  -29.6257  -24.6501   20.1425 C   0  0  0  0  0  0
  -29.3247  -21.9366   19.5079 C   0  0  1  0  0  0
  -28.4130  -21.5019   16.9929 C   0  0  0  0  0  0
  -30.0333  -15.7749   20.7077 N   0  0  0  0  0  0
  -28.3286  -25.2729   20.4782 N   0  0  0  0  0  0
  -31.4781  -12.4264   19.2113 H   0  0  0  0  0  0
  -30.2788  -11.4036   19.9564 H   0  0  0  0  0  0
  -29.7944  -11.7239   17.4981 H   0  0  0  0  0  0
  -29.7092  -13.4542   17.7380 H   0  0  0  0  0  0
  -27.8476  -11.3126   18.8313 H   0  0  0  0  0  0
  -27.4106  -12.6132   17.7549 H   0  0  0  0  0  0
  -27.6496  -14.2667   19.4683 H   0  0  0  0  0  0
  -28.6987  -12.1881   21.4431 H   0  0  0  0  0  0
  -28.4550  -13.8866   21.7637 H   0  0  0  0  0  0
  -25.2788   -9.5685   22.4669 H   0  0  0  0  0  0
  -24.0012   -7.4639   22.7494 H   0  0  0  0  0  0
  -21.0827   -8.8787   19.8951 H   0  0  0  0  0  0
  -22.3703  -10.9665   19.6041 H   0  0  0  0  0  0
  -21.2007   -7.6135   23.9646 H   0  0  0  0  0  0
  -21.1501   -6.0485   25.9030 H   0  0  0  0  0  0
  -22.0627   -2.7587   23.2771 H   0  0  0  0  0  0
  -22.4163  -11.9891   22.4782 H   0  0  0  0  0  0
  -21.1087  -13.1170   22.2477 H   0  0  0  0  0  0
  -24.7239  -15.8804   20.5809 H   0  0  0  0  0  0
  -26.3177  -15.6076   20.1082 H   0  0  0  0  0  0
  -26.7225  -32.5433   23.1122 H   0  0  0  0  0  0
  -24.9940  -33.9649   25.0312 H   0  0  0  0  0  0
  -22.7076  -31.3137   21.3978 H   0  0  0  0  0  0
  -23.3679  -35.9757   23.3228 H   0  0  0  0  0  0
  -24.3567  -36.9055   22.2051 H   0  0  0  0  0  0
  -23.7301  -37.6589   23.6679 H   0  0  0  0  0  0
  -26.0408  -31.5739   20.5658 H   0  0  0  0  0  0
  -26.8413  -30.8892   21.9521 H   0  0  0  0  0  0
  -28.1093  -29.0911   21.1516 H   0  0  0  0  0  0
  -26.0632  -25.9225   19.0733 H   0  0  0  0  0  0
  -23.9985  -27.2935   19.0017 H   0  0  0  0  0  0
  -23.7951  -30.6257   19.3977 H   0  0  0  0  0  0
  -22.7463  -29.3023   19.8087 H   0  0  0  0  0  0
  -25.1247  -36.1866   25.0808 H   0  0  0  0  0  0
  -20.9987  -28.3374   24.1374 H   0  0  0  0  0  0
  -20.5649  -26.2428   23.3680 H   0  0  0  0  0  0
  -21.6638  -26.7491   22.1256 H   0  0  0  0  0  0
  -19.6858  -25.6312   21.1316 H   0  0  0  0  0  0
  -19.6639  -27.3202   20.6767 H   0  0  0  0  0  0
  -17.4183  -26.6687   21.4078 H   0  0  0  0  0  0
  -18.0306  -26.0204   22.9137 H   0  0  0  0  0  0
  -19.7929  -30.7330   24.2266 H   0  0  0  0  0  0
  -17.5025  -31.6276   24.5274 H   0  0  0  0  0  0
  -15.5360  -30.3101   23.7608 H   0  0  0  0  0  0
  -15.8689  -28.1068   22.6745 H   0  0  0  0  0  0
  -24.6003  -30.6951   25.7892 H   0  0  0  0  0  0
  -24.9073  -32.2778   26.5017 H   0  0  0  0  0  0
  -25.8293  -30.8780   27.0180 H   0  0  0  0  0  0
  -26.2693  -29.6747   24.1170 H   0  0  0  0  0  0
  -27.3934  -29.7113   25.4522 H   0  0  0  0  0  0
  -27.8589  -30.4112   23.9176 H   0  0  0  0  0  0
  -27.2663  -33.3525   26.2052 H   0  0  0  0  0  0
  -28.3969  -32.6718   25.0433 H   0  0  0  0  0  0
  -28.0590  -31.8313   26.5491 H   0  0  0  0  0  0
  -28.2556  -38.0156   24.7483 H   0  0  0  0  0  0
  -28.1059  -36.2679   24.6212 H   0  0  0  0  0  0
  -27.2307  -37.1472   25.8865 H   0  0  0  0  0  0
  -20.9372  -29.9035   21.7024 H   0  0  0  0  0  0
  -26.0063  -38.2850   24.1485 H   0  0  0  0  0  0
  -31.8203  -21.6566   18.3986 H   0  0  0  0  0  0
  -33.4158  -19.8287   18.5360 H   0  0  0  0  0  0
  -29.0025  -19.3516   20.7255 H   0  0  0  0  0  0
  -34.2435  -17.9784   19.8804 H   0  0  0  0  0  0
  -33.3256  -16.8464   18.9142 H   0  0  0  0  0  0
  -33.2216  -16.8303   20.6791 H   0  0  0  0  0  0
  -26.5403  -20.5140   16.4828 H   0  0  0  0  0  0
  -26.3276  -22.1556   17.0666 H   0  0  0  0  0  0
  -26.6817  -20.8488   18.1955 H   0  0  0  0  0  0
  -28.0855  -21.4396   14.8234 H   0  0  0  0  0  0
  -29.6119  -22.1809   15.2779 H   0  0  0  0  0  0
  -28.0972  -23.0602   15.4829 H   0  0  0  0  0  0
  -29.7641  -17.4508   21.9061 H   0  0  0  0  0  0
  -31.4008  -16.9312   21.8494 H   0  0  0  0  0  0
  -29.5129  -22.9108   21.4971 H   0  0  0  0  0  0
  -30.9101  -23.0110   20.5097 H   0  0  0  0  0  0
  -29.9665  -22.8616   17.6561 H   0  0  0  0  0  0
  -28.3679  -23.3201   18.1285 H   0  0  0  0  0  0
  -29.9086  -24.8813   19.1169 H   0  0  0  0  0  0
  -30.3698  -25.1951   20.7355 H   0  0  0  0  0  0
  -28.3667  -21.6100   19.9073 H   0  0  0  0  0  0
  -28.9429  -20.5482   17.0148 H   0  0  0  0  0  0
  -29.0369  -15.6536   20.7587 H   0  0  0  0  0  0
  -28.2272  -25.3038   21.4907 H   0  0  0  0  0  0
  1 25  1  0  0  0
  1 30  2  0  0  0
  1 86  1  0  0  0
  2  3  1  0  0  0
  2 25  1  0  0  0
  2 88  1  0  0  0
  2 89  1  0  0  0
  3  4  1  0  0  0
  3 90  1  0  0  0
  3 91  1  0  0  0
  4  5  1  0  0  0
  4 92  1  0  0  0
  4 93  1  0  0  0
  5  6  1  0  0  0
  5 26  1  0  0  0
  5 94  1  0  0  0
  6 25  1  0  0  0
  6 95  1  0  0  0
  6 96  1  0  0  0
  7  8  2  0  0  0
  7 26  1  0  0  0
  7 29  1  0  0  0
  8  9  1  0  0  0
  8 22  1  0  0  0
  9 10  1  0  0  0
  9 27  2  0  0  0
 10 11  2  0  0  0
 10 15  1  0  0  0
 11 12  1  0  0  0
 11 97  1  0  0  0
 12 13  2  0  0  0
 12 98  1  0  0  0
 13 14  1  0  0  0
 13 31  1  0  0  0
 14 15  2  0  0  0
 14 99  1  0  0  0
 15100  1  0  0  0
 16 17  2  0  0  0
 16 21  1  0  0  0
 16 31  1  0  0  0
 17 18  1  0  0  0
 17101  1  0  0  0
 18 19  2  0  0  0
 18102  1  0  0  0
 19 20  1  0  0  0
 19 24  1  0  0  0
 20 21  2  0  0  0
 20103  1  0  0  0
 21 23  1  0  0  0
 22 28  1  0  0  0
 22 32  2  0  0  0
 26 27  1  0  0  0
 28104  1  0  0  0
 28105  1  0  0  0
 29106  1  0  0  0
 29107  1  0  0  0
 33 34  1  0  0  0
 33 66  1  0  0  0
 33 70  2  0  0  0
 34 36  1  0  0  0
 34 59  1  0  0  0
 34108  1  0  0  0
 35 44  2  0  0  0
 35 45  1  0  0  0
 35 68  1  0  0  0
 36 56  1  0  0  0
 36109  1  0  0  0
 37 39  1  0  0  0
 37 47  1  0  0  0
 37 66  1  0  0  0
 37110  1  0  0  0
 38 43  2  0  0  0
 38 46  1  0  0  0
 38 47  1  0  0  0
 39 64  1  0  0  0
 39 67  2  0  0  0
 40 52  1  0  0  0
 40 53  2  0  0  0
 40 58  1  0  0  0
 41111  1  0  0  0
 41112  1  0  0  0
 41113  1  0  0  0
 41 48  1  0  0  0
 42 43  1  0  0  0
 42 66  1  0  0  0
 42114  1  0  0  0
 42115  1  0  0  0
 43 44  1  0  0  0
 44116  1  0  0  0
 45 46  2  0  0  0
 45117  1  0  0  0
 46118  1  0  0  0
 47119  1  0  0  0
 47120  1  0  0  0
 48 56  1  0  0  0
 48 65  1  0  0  0
 48121  1  0  0  0
 49 50  1  0  0  0
 49 53  1  0  0  0
 49 64  1  0  0  0
 49122  1  0  0  0
 50 51  1  0  0  0
 50123  1  0  0  0
 50124  1  0  0  0
 51 52  1  0  0  0
 51125  1  0  0  0
 51126  1  0  0  0
 52127  1  0  0  0
 52128  1  0  0  0
 53 54  1  0  0  0
 54 55  2  0  0  0
 54129  1  0  0  0
 55 57  1  0  0  0
 55130  1  0  0  0
 56 69  2  0  0  0
 57 58  2  0  0  0
 57131  1  0  0  0
 58132  1  0  0  0
 59 60  1  0  0  0
 59 61  1  0  0  0
 59 62  1  0  0  0
 60133  1  0  0  0
 60134  1  0  0  0
 60135  1  0  0  0
 61136  1  0  0  0
 61137  1  0  0  0
 61138  1  0  0  0
 62139  1  0  0  0
 62140  1  0  0  0
 62141  1  0  0  0
 63 65  1  0  0  0
 63142  1  0  0  0
 63143  1  0  0  0
 63144  1  0  0  0
 64145  1  0  0  0
 65146  1  0  0  0
 68 87  1  0  0  0
 71 72  2  0  0  0
 71 74  1  0  0  0
 71147  1  0  0  0
 72 75  1  0  0  0
 72148  1  0  0  0
 73 74  2  0  0  0
 73 76  1  0  0  0
 73149  1  0  0  0
 74 84  1  0  0  0
 75 76  2  0  0  0
 75 77  1  0  0  0
 76 80  1  0  0  0
 77150  1  0  0  0
 77151  1  0  0  0
 77152  1  0  0  0
 78153  1  0  0  0
 78154  1  0  0  0
 78155  1  0  0  0
 78 85  1  0  0  0
 79 85  1  0  0  0
 79156  1  0  0  0
 79157  1  0  0  0
 79158  1  0  0  0
 80 86  1  0  0  0
 80159  1  0  0  0
 80160  1  0  0  0
 81 83  1  0  0  0
 81161  1  0  0  0
 81162  1  0  0  0
 81 84  1  0  0  0
 82 84  1  0  0  0
 82 85  1  0  0  0
 82163  1  0  0  0
 82164  1  0  0  0
 83 87  1  0  0  0
 83165  1  0  0  0
 83166  1  0  0  0
 84167  1  0  0  0
 85168  1  0  0  0
 86169  1  0  0  0
 87170  1  0  0  0
M  ISO  4   1 100  68 101  86 100  87 101
M  END
> <chiral flag>
0

> <version>
0

> <s_m_source_file>
/data/baiqing/PycharmProjects/Reinvent-master-3.2/result/LINK_invent/BTK/process_docking_weight1_custom_sum_contain_oxygen_bond_distance_aromatic_linkinvent_7_9_3/rearranged_h_0099.sdf

> <i_m_source_file_index>
20

> <r_mmod_Potential_Energy-OPLS-2005>
31.6054840087891

> <r_mmod_Stretch_Energy-OPLS-2005>
74.925422668457

> <r_mmod_Bend_Energy-OPLS-2005>
156.377227783203

> <r_mmod_Torsional_Energy-OPLS-2005>
234.564865112305

> <r_mmod_Improper_Torsional_Energy-OPLS-2005>
5.57060766220093

> <r_mmod_Van_der_Waal_Energy-OPLS-2005>
132.699783325195

> <r_mmod_Electrostatic_Energy-OPLS-2005>
-405.195556640625

> <r_mmod_Solvation_Energy-OPLS-2005>
-207.158065795898

> <b_mmod_Minimization_Converged-OPLS-2005>
0

> <r_mmod_RMS_Derivative-OPLS-2005>
8.36659526824951

$$$$
20
                    3D
 Structure written by MMmdl.
171179  0  0  1  0            999 V2000
  -30.6425  -14.5885   20.4572 C   0  0  0  0  0  0
  -30.4308  -12.3274   19.4705 C   0  0  0  0  0  0
  -29.5197  -12.3915   18.2245 C   0  0  0  0  0  0
  -28.0214  -12.3304   18.6155 C   0  0  0  0  0  0
  -27.6393  -13.1933   19.8528 C   0  0  2  0  0  0
  -28.6874  -13.0753   20.9764 C   0  0  0  0  0  0
  -25.2550  -13.8081   20.5724 C   0  0  0  0  0  0
  -24.1820  -13.0385   20.9242 C   0  0  0  0  0  0
  -24.6352  -11.6825   20.8780 C   0  0  0  0  0  0
  -23.9026  -10.4230   21.0450 C   0  0  0  0  0  0
  -24.3606   -9.4132   21.9210 C   0  0  0  0  0  0
  -23.6291   -8.2170   22.0754 C   0  0  0  0  0  0
  -22.4271   -8.0236   21.3543 C   0  0  0  0  0  0
  -21.9904   -9.0196   20.4637 C   0  0  0  0  0  0
  -22.7227  -10.2077   20.3073 C   0  0  0  0  0  0
  -21.6835   -6.0709   22.5279 C   0  0  0  0  0  0
  -21.3981   -6.5619   23.8210 C   0  0  0  0  0  0
  -21.3680   -5.6788   24.9186 C   0  0  0  0  0  0
  -21.6050   -4.3046   24.7240 C   0  0  0  0  0  0
  -21.8818   -3.8121   23.4364 C   0  0  0  0  0  0
  -21.9186   -4.6935   22.3416 C   0  0  0  0  0  0
  -22.7846  -13.5197   21.1912 C   0  0  0  0  0  0
  -22.1671   -4.2123   21.1001 F   0  0  0  0  0  0
  -21.5647   -3.4536   25.7764 F   0  0  0  0  0  0
  -30.0019  -13.3817   20.4017 N   0  0  0  0  0  0
  -26.2924  -12.9188   20.3313 N   0  0  0  0  0  0
  -25.9258  -11.6364   20.5760 N   0  0  0  0  0  0
  -22.0508  -12.8152   22.0454 N   0  0  0  0  0  0
  -25.4331  -15.1810   20.4193 N   0  0  0  0  0  0
  -31.8464  -14.6954   20.2016 O   0  0  0  0  0  0
  -21.6615   -6.8851   21.4241 O   0  0  0  0  0  0
  -22.3532  -14.5516   20.6767 O   0  0  0  0  0  0
  -24.6156  -31.8650   23.2069 C   0  0  0  0  0  0
  -25.9057  -32.4813   23.8368 C   0  0  1  0  0  0
  -27.2401  -27.4204   20.1009 C   0  0  0  0  0  0
  -25.5896  -33.8617   24.2297 N   0  0  0  0  0  0
  -23.4025  -30.4888   21.5465 C   0  0  2  0  0  0
  -24.8470  -28.9457   20.1124 C   0  0  0  0  0  0
  -22.7404  -29.4662   22.4964 C   0  0  0  0  0  0
  -18.0273  -28.1394   22.8487 C   0  0  0  0  0  0
  -24.1484  -36.7329   23.2646 C   0  0  0  0  0  0
  -25.9314  -30.8257   21.3604 C   0  0  0  0  0  0
  -26.0036  -29.4583   20.7083 C   0  0  0  0  0  0
  -27.1971  -28.7038   20.6950 C   0  0  0  0  0  0
  -26.0567  -26.9099   19.5198 C   0  0  0  0  0  0
  -24.8686  -27.6710   19.5165 C   0  0  0  0  0  0
  -23.6106  -29.8167   20.1608 C   0  0  0  0  0  0
  -25.4104  -36.3117   24.0334 C   0  0  1  0  0  0
  -20.5862  -28.3692   23.1307 C   0  0  2  0  0  0
  -20.6763  -26.9436   22.5411 C   0  0  0  0  0  0
  -19.5746  -26.6397   21.5211 C   0  0  0  0  0  0
  -18.1918  -26.7934   22.1620 C   0  0  0  0  0  0
  -19.1523  -28.8856   23.2891 C   0  0  0  0  0  0
  -18.9448  -30.1452   23.8925 C   0  0  0  0  0  0
  -17.6454  -30.6605   24.0573 C   0  0  0  0  0  0
  -25.9046  -34.9486   23.5124 C   0  0  0  0  0  0
  -16.5345  -29.9111   23.6338 C   0  0  0  0  0  0
  -16.7258  -28.6523   23.0363 C   0  0  0  0  0  0
  -26.4465  -31.6614   25.0726 C   0  0  0  0  0  0
  -25.3725  -31.3709   26.1470 C   0  0  0  0  0  0
  -27.0312  -30.3056   24.6153 C   0  0  0  0  0  0
  -27.6034  -32.4350   25.7488 C   0  0  0  0  0  0
  -27.5579  -37.1819   24.8463 C   0  0  0  0  0  0
  -21.4136  -29.3051   22.3712 N   0  0  0  0  0  0
  -26.4283  -37.3805   23.9408 N   0  0  0  0  0  0
  -24.6682  -31.0745   22.0973 N   0  0  0  0  0  0
  -23.4166  -28.8236   23.3031 O   0  0  0  0  0  0
  -28.4526  -26.7536   20.1468 O   0  0  0  0  0  0
  -26.5628  -34.8941   22.4700 O   0  0  0  0  0  0
  -23.5352  -32.1397   23.7468 O   0  0  0  0  0  0
  -29.5483  -18.0175   23.3407 C   0  0  0  0  0  0
  -29.8918  -18.1706   20.6011 C   0  0  0  0  0  0
  -29.5989  -19.2869   22.7315 C   0  0  0  0  0  0
  -29.6873  -16.8175   22.6110 C   0  0  0  0  0  0
  -29.7900  -19.3892   21.3317 C   0  0  0  0  0  0
  -29.8344  -16.8642   21.1927 C   0  0  0  0  0  0
  -29.4503  -20.5059   23.6353 C   0  0  0  0  0  0
  -29.6206  -15.5395   23.4324 C   0  0  0  0  0  0
  -30.6825  -20.6565   19.2644 C   0  0  0  0  0  0
  -28.5624  -25.5035   17.9910 C   0  0  0  0  0  0
  -29.4638  -15.9627   18.9192 C   0  0  0  0  0  0
  -28.7351  -21.7079   20.5526 C   0  0  0  0  0  0
  -28.1965  -24.2118   20.2333 C   0  0  0  0  0  0
  -29.9932  -20.7733   20.6411 C   0  0  1  0  0  0
  -28.7389  -25.4886   19.5193 C   0  0  2  0  0  0
  -29.8302  -15.6869   20.3243 N   0  0  0  0  0  0
  -29.0774  -23.0355   19.9575 N   0  3  0  0  0  0
  -31.4806  -12.4253   19.1867 H   0  0  0  0  0  0
  -30.3406  -11.3497   19.9484 H   0  0  0  0  0  0
  -29.7480  -11.5494   17.5685 H   0  0  0  0  0  0
  -29.7495  -13.2668   17.6237 H   0  0  0  0  0  0
  -27.7961  -11.2844   18.8228 H   0  0  0  0  0  0
  -27.4052  -12.6089   17.7580 H   0  0  0  0  0  0
  -27.6149  -14.2241   19.5224 H   0  0  0  0  0  0
  -28.6863  -12.0772   21.4193 H   0  0  0  0  0  0
  -28.4365  -13.7666   21.7756 H   0  0  0  0  0  0
  -25.2774   -9.5581   22.4774 H   0  0  0  0  0  0
  -23.9993   -7.4529   22.7441 H   0  0  0  0  0  0
  -21.0845   -8.8693   19.8940 H   0  0  0  0  0  0
  -22.3702  -10.9611   19.6158 H   0  0  0  0  0  0
  -21.1948   -7.6121   23.9700 H   0  0  0  0  0  0
  -21.1545   -6.0531   25.9095 H   0  0  0  0  0  0
  -22.0599   -2.7581   23.2872 H   0  0  0  0  0  0
  -22.4136  -11.9770   22.4759 H   0  0  0  0  0  0
  -21.1104  -13.1075   22.2692 H   0  0  0  0  0  0
  -24.6799  -15.8489   20.5400 H   0  0  0  0  0  0
  -26.3046  -15.6172   20.1386 H   0  0  0  0  0  0
  -26.7142  -32.5508   23.1128 H   0  0  0  0  0  0
  -24.9982  -33.9765   25.0404 H   0  0  0  0  0  0
  -22.6926  -31.3071   21.4037 H   0  0  0  0  0  0
  -23.3748  -35.9666   23.3308 H   0  0  0  0  0  0
  -24.3566  -36.8951   22.2060 H   0  0  0  0  0  0
  -23.7228  -37.6530   23.6666 H   0  0  0  0  0  0
  -26.0492  -31.5895   20.5898 H   0  0  0  0  0  0
  -26.8172  -30.8752   21.9805 H   0  0  0  0  0  0
  -28.0912  -29.1035   21.1537 H   0  0  0  0  0  0
  -26.0210  -25.9232   19.0876 H   0  0  0  0  0  0
  -23.9761  -27.2647   19.0598 H   0  0  0  0  0  0
  -23.7176  -30.5900   19.3977 H   0  0  0  0  0  0
  -22.7335  -29.2367   19.8672 H   0  0  0  0  0  0
  -25.1279  -36.1979   25.0823 H   0  0  0  0  0  0
  -20.9947  -28.3286   24.1424 H   0  0  0  0  0  0
  -20.5682  -26.2327   23.3609 H   0  0  0  0  0  0
  -21.6633  -26.7483   22.1203 H   0  0  0  0  0  0
  -19.6926  -25.6307   21.1253 H   0  0  0  0  0  0
  -19.6689  -27.3211   20.6742 H   0  0  0  0  0  0
  -17.4190  -26.6699   21.4015 H   0  0  0  0  0  0
  -18.0323  -26.0069   22.9010 H   0  0  0  0  0  0
  -19.7917  -30.7248   24.2334 H   0  0  0  0  0  0
  -17.5010  -31.6294   24.5163 H   0  0  0  0  0  0
  -15.5353  -30.3030   23.7624 H   0  0  0  0  0  0
  -15.8649  -28.0842   22.7075 H   0  0  0  0  0  0
  -24.5872  -30.7106   25.7773 H   0  0  0  0  0  0
  -24.8961  -32.2873   26.4989 H   0  0  0  0  0  0
  -25.8070  -30.8794   27.0193 H   0  0  0  0  0  0
  -26.2874  -29.6805   24.1212 H   0  0  0  0  0  0
  -27.4054  -29.7319   25.4647 H   0  0  0  0  0  0
  -27.8723  -30.4358   23.9332 H   0  0  0  0  0  0
  -27.2640  -33.3623   26.2111 H   0  0  0  0  0  0
  -28.3811  -32.6960   25.0300 H   0  0  0  0  0  0
  -28.0756  -31.8464   26.5362 H   0  0  0  0  0  0
  -28.2595  -38.0124   24.7514 H   0  0  0  0  0  0
  -28.1068  -36.2647   24.6266 H   0  0  0  0  0  0
  -27.2299  -37.1447   25.8870 H   0  0  0  0  0  0
  -20.9331  -29.8738   21.6881 H   0  0  0  0  0  0
  -26.0184  -38.2887   24.1415 H   0  0  0  0  0  0
  -29.3912  -17.9612   24.4092 H   0  0  0  0  0  0
  -30.0388  -18.2527   19.5368 H   0  0  0  0  0  0
  -29.6272  -20.2402   24.6775 H   0  0  0  0  0  0
  -28.4364  -20.8976   23.5772 H   0  0  0  0  0  0
  -30.1475  -21.3057   23.3908 H   0  0  0  0  0  0
  -30.2703  -14.7467   23.0700 H   0  0  0  0  0  0
  -28.5920  -15.1844   23.4895 H   0  0  0  0  0  0
  -29.9440  -15.7337   24.4559 H   0  0  0  0  0  0
  -31.5630  -20.0150   19.3174 H   0  0  0  0  0  0
  -31.0366  -21.6211   18.9023 H   0  0  0  0  0  0
  -30.0097  -20.2521   18.5088 H   0  0  0  0  0  0
  -29.1284  -24.6964   17.5276 H   0  0  0  0  0  0
  -28.9377  -26.4321   17.5645 H   0  0  0  0  0  0
  -27.5286  -25.3852   17.6754 H   0  0  0  0  0  0
  -28.6286  -16.6606   18.8565 H   0  0  0  0  0  0
  -29.1407  -15.0926   18.3674 H   0  0  0  0  0  0
  -30.3095  -16.3736   18.3631 H   0  0  0  0  0  0
  -28.3050  -21.8668   21.5396 H   0  0  0  0  0  0
  -27.9516  -21.2403   19.9531 H   0  0  0  0  0  0
  -27.1653  -24.0118   19.9407 H   0  0  0  0  0  0
  -28.1891  -24.3809   21.3121 H   0  0  0  0  0  0
  -30.7248  -21.2838   21.2675 H   0  0  0  0  0  0
  -29.8190  -25.4521   19.6686 H   0  0  0  0  0  0
  -29.1449  -22.9098   18.9598 H   0  0  0  0  0  0
  -29.9990  -23.2738   20.2905 H   0  0  0  0  0  0
  1 25  1  0  0  0
  1 30  2  0  0  0
  1 86  1  0  0  0
  2  3  1  0  0  0
  2 25  1  0  0  0
  2 88  1  0  0  0
  2 89  1  0  0  0
  3  4  1  0  0  0
  3 90  1  0  0  0
  3 91  1  0  0  0
  4  5  1  0  0  0
  4 92  1  0  0  0
  4 93  1  0  0  0
  5  6  1  0  0  0
  5 26  1  0  0  0
  5 94  1  0  0  0
  6 25  1  0  0  0
  6 95  1  0  0  0
  6 96  1  0  0  0
  7  8  2  0  0  0
  7 26  1  0  0  0
  7 29  1  0  0  0
  8  9  1  0  0  0
  8 22  1  0  0  0
  9 10  1  0  0  0
  9 27  2  0  0  0
 10 11  2  0  0  0
 10 15  1  0  0  0
 11 12  1  0  0  0
 11 97  1  0  0  0
 12 13  2  0  0  0
 12 98  1  0  0  0
 13 14  1  0  0  0
 13 31  1  0  0  0
 14 15  2  0  0  0
 14 99  1  0  0  0
 15100  1  0  0  0
 16 17  2  0  0  0
 16 21  1  0  0  0
 16 31  1  0  0  0
 17 18  1  0  0  0
 17101  1  0  0  0
 18 19  2  0  0  0
 18102  1  0  0  0
 19 20  1  0  0  0
 19 24  1  0  0  0
 20 21  2  0  0  0
 20103  1  0  0  0
 21 23  1  0  0  0
 22 28  1  0  0  0
 22 32  2  0  0  0
 26 27  1  0  0  0
 28104  1  0  0  0
 28105  1  0  0  0
 29106  1  0  0  0
 29107  1  0  0  0
 33 34  1  0  0  0
 33 66  1  0  0  0
 33 70  2  0  0  0
 34 36  1  0  0  0
 34 59  1  0  0  0
 34108  1  0  0  0
 35 44  2  0  0  0
 35 45  1  0  0  0
 35 68  1  0  0  0
 36 56  1  0  0  0
 36109  1  0  0  0
 37 39  1  0  0  0
 37 47  1  0  0  0
 37 66  1  0  0  0
 37110  1  0  0  0
 38 43  2  0  0  0
 38 46  1  0  0  0
 38 47  1  0  0  0
 39 64  1  0  0  0
 39 67  2  0  0  0
 40 52  1  0  0  0
 40 53  2  0  0  0
 40 58  1  0  0  0
 41111  1  0  0  0
 41112  1  0  0  0
 41113  1  0  0  0
 41 48  1  0  0  0
 42 43  1  0  0  0
 42 66  1  0  0  0
 42114  1  0  0  0
 42115  1  0  0  0
 43 44  1  0  0  0
 44116  1  0  0  0
 45 46  2  0  0  0
 45117  1  0  0  0
 46118  1  0  0  0
 47119  1  0  0  0
 47120  1  0  0  0
 48 56  1  0  0  0
 48 65  1  0  0  0
 48121  1  0  0  0
 49 50  1  0  0  0
 49 53  1  0  0  0
 49 64  1  0  0  0
 49122  1  0  0  0
 50 51  1  0  0  0
 50123  1  0  0  0
 50124  1  0  0  0
 51 52  1  0  0  0
 51125  1  0  0  0
 51126  1  0  0  0
 52127  1  0  0  0
 52128  1  0  0  0
 53 54  1  0  0  0
 54 55  2  0  0  0
 54129  1  0  0  0
 55 57  1  0  0  0
 55130  1  0  0  0
 56 69  2  0  0  0
 57 58  2  0  0  0
 57131  1  0  0  0
 58132  1  0  0  0
 59 60  1  0  0  0
 59 61  1  0  0  0
 59 62  1  0  0  0
 60133  1  0  0  0
 60134  1  0  0  0
 60135  1  0  0  0
 61136  1  0  0  0
 61137  1  0  0  0
 61138  1  0  0  0
 62139  1  0  0  0
 62140  1  0  0  0
 62141  1  0  0  0
 63 65  1  0  0  0
 63142  1  0  0  0
 63143  1  0  0  0
 63144  1  0  0  0
 64145  1  0  0  0
 65146  1  0  0  0
 68 85  1  0  0  0
 71 73  2  0  0  0
 71 74  1  0  0  0
 71147  1  0  0  0
 72 75  2  0  0  0
 72 76  1  0  0  0
 72148  1  0  0  0
 73 75  1  0  0  0
 73 77  1  0  0  0
 74 76  2  0  0  0
 74 78  1  0  0  0
 75 84  1  0  0  0
 76 86  1  0  0  0
 77149  1  0  0  0
 77150  1  0  0  0
 77151  1  0  0  0
 78152  1  0  0  0
 78153  1  0  0  0
 78154  1  0  0  0
 79155  1  0  0  0
 79156  1  0  0  0
 79157  1  0  0  0
 79 84  1  0  0  0
 80158  1  0  0  0
 80159  1  0  0  0
 80160  1  0  0  0
 80 85  1  0  0  0
 81 86  1  0  0  0
 81161  1  0  0  0
 81162  1  0  0  0
 81163  1  0  0  0
 82 84  1  0  0  0
 82 87  1  0  0  0
 82164  1  0  0  0
 82165  1  0  0  0
 83 85  1  0  0  0
 83 87  1  0  0  0
 83166  1  0  0  0
 83167  1  0  0  0
 84168  1  0  0  0
 85169  1  0  0  0
 87170  1  0  0  0
 87171  1  0  0  0
M  CHG  1  87   1
M  ISO  4   1 100  68 101  85 101  86 100
M  END
> <chiral flag>
0

> <version>
0

> <s_m_source_file>
/data/baiqing/PycharmProjects/Reinvent-master-3.2/result/LINK_invent/BTK/process_docking_weight1_custom_sum_contain_oxygen_bond_distance_aromatic_linkinvent_7_9_3/rearranged_h_0099.sdf

> <i_m_source_file_index>
21

> <r_mmod_Potential_Energy-OPLS-2005>
72.6192169189453

> <r_mmod_Stretch_Energy-OPLS-2005>
56.8557472229004

> <r_mmod_Bend_Energy-OPLS-2005>
154.158020019531

> <r_mmod_Torsional_Energy-OPLS-2005>
303.848175048828

> <r_mmod_Improper_Torsional_Energy-OPLS-2005>
16.9574661254883

> <r_mmod_Van_der_Waal_Energy-OPLS-2005>
169.965255737305

> <r_mmod_Electrostatic_Energy-OPLS-2005>
-229.697937011719

> <r_mmod_Solvation_Energy-OPLS-2005>
-432.623718261719

> <b_mmod_Minimization_Converged-OPLS-2005>
0

> <r_mmod_RMS_Derivative-OPLS-2005>
4.21311330795288

$$$$
21
                    3D
 Structure written by MMmdl.
167175  0  0  1  0            999 V2000
  -30.6328  -14.7169   20.4551 C   0  0  0  0  0  0
  -30.4225  -12.4335   19.4709 C   0  0  0  0  0  0
  -29.5038  -12.4979   18.2322 C   0  0  0  0  0  0
  -28.0301  -12.3287   18.6476 C   0  0  0  0  0  0
  -27.6391  -13.2308   19.8489 C   0  0  2  0  0  0
  -28.6844  -13.1651   20.9837 C   0  0  0  0  0  0
  -25.2490  -13.8184   20.5677 C   0  0  0  0  0  0
  -24.1796  -13.0435   20.9229 C   0  0  0  0  0  0
  -24.6386  -11.6913   20.8769 C   0  0  0  0  0  0
  -23.9068  -10.4291   21.0418 C   0  0  0  0  0  0
  -24.3620   -9.4202   21.9190 C   0  0  0  0  0  0
  -23.6292   -8.2237   22.0754 C   0  0  0  0  0  0
  -22.4275   -8.0281   21.3544 C   0  0  0  0  0  0
  -21.9917   -9.0254   20.4646 C   0  0  0  0  0  0
  -22.7246  -10.2134   20.3060 C   0  0  0  0  0  0
  -21.6853   -6.0736   22.5276 C   0  0  0  0  0  0
  -21.4015   -6.5640   23.8213 C   0  0  0  0  0  0
  -21.3657   -5.6791   24.9175 C   0  0  0  0  0  0
  -21.6043   -4.3052   24.7227 C   0  0  0  0  0  0
  -21.8819   -3.8146   23.4346 C   0  0  0  0  0  0
  -21.9195   -4.6961   22.3401 C   0  0  0  0  0  0
  -22.7818  -13.5219   21.1877 C   0  0  0  0  0  0
  -22.1662   -4.2145   21.0977 F   0  0  0  0  0  0
  -21.5627   -3.4536   25.7742 F   0  0  0  0  0  0
  -29.9869  -13.5024   20.3991 N   0  0  0  0  0  0
  -26.2919  -12.9396   20.3276 N   0  0  0  0  0  0
  -25.9314  -11.6541   20.5762 N   0  0  0  0  0  0
  -22.0461  -12.8209   22.0430 N   0  0  0  0  0  0
  -25.4150  -15.1896   20.4001 N   0  0  0  0  0  0
  -31.8298  -14.7560   20.1504 O   0  0  0  0  0  0
  -21.6641   -6.8876   21.4238 O   0  0  0  0  0  0
  -22.3509  -14.5523   20.6720 O   0  0  0  0  0  0
  -24.6277  -31.8570   23.1978 C   0  0  0  0  0  0
  -25.9117  -32.4758   23.8322 C   0  0  1  0  0  0
  -27.2221  -27.2803   20.1198 C   0  0  0  0  0  0
  -25.5927  -33.8565   24.2238 N   0  0  0  0  0  0
  -23.4236  -30.4750   21.5419 C   0  0  2  0  0  0
  -24.8692  -28.9201   20.1086 C   0  0  0  0  0  0
  -22.7482  -29.4588   22.4930 C   0  0  0  0  0  0
  -18.0277  -28.1391   22.8475 C   0  0  0  0  0  0
  -24.1491  -36.7284   23.2643 C   0  0  0  0  0  0
  -25.9658  -30.7715   21.3772 C   0  0  0  0  0  0
  -26.0371  -29.3959   20.7166 C   0  0  0  0  0  0
  -27.2123  -28.5856   20.7129 C   0  0  0  0  0  0
  -26.0301  -26.8569   19.4943 C   0  0  0  0  0  0
  -24.8690  -27.6582   19.4895 C   0  0  0  0  0  0
  -23.6402  -29.8062   20.1579 C   0  0  0  0  0  0
  -25.4119  -36.3072   24.0322 C   0  0  1  0  0  0
  -20.5875  -28.3699   23.1275 C   0  0  2  0  0  0
  -20.6772  -26.9419   22.5417 C   0  0  0  0  0  0
  -19.5751  -26.6384   21.5215 C   0  0  0  0  0  0
  -18.1923  -26.7930   22.1611 C   0  0  0  0  0  0
  -19.1528  -28.8860   23.2865 C   0  0  0  0  0  0
  -18.9469  -30.1460   23.8883 C   0  0  0  0  0  0
  -17.6475  -30.6600   24.0556 C   0  0  0  0  0  0
  -25.9059  -34.9445   23.5083 C   0  0  0  0  0  0
  -16.5361  -29.9095   23.6331 C   0  0  0  0  0  0
  -16.7268  -28.6511   23.0348 C   0  0  0  0  0  0
  -26.4489  -31.6597   25.0720 C   0  0  0  0  0  0
  -25.3713  -31.3766   26.1445 C   0  0  0  0  0  0
  -27.0364  -30.3019   24.6229 C   0  0  0  0  0  0
  -27.6030  -32.4369   25.7496 C   0  0  0  0  0  0
  -27.5578  -37.1794   24.8460 C   0  0  0  0  0  0
  -21.4193  -29.3039   22.3676 N   0  0  0  0  0  0
  -26.4295  -37.3770   23.9399 N   0  0  0  0  0  0
  -24.6910  -31.0530   22.0953 N   0  0  0  0  0  0
  -23.4183  -28.8138   23.3037 O   0  0  0  0  0  0
  -28.3515  -26.4442   20.1985 O   0  0  0  0  0  0
  -26.5641  -34.8919   22.4656 O   0  0  0  0  0  0
  -23.5440  -32.1402   23.7283 O   0  0  0  0  0  0
  -31.1077  -19.9695   20.1925 C   0  0  0  0  0  0
  -29.7136  -19.7942   20.2522 C   0  0  0  0  0  0
  -29.2904  -18.4033   20.4224 C   0  0  0  0  0  0
  -31.9788  -18.8881   20.3811 C   0  0  0  0  0  0
  -30.2492  -17.3018   20.5343 C   0  0  0  0  0  0
  -27.8018  -18.0944   20.4397 C   0  0  0  0  0  0
  -34.0000  -19.1527   21.8727 C   0  0  0  0  0  0
  -30.3364  -22.9791   20.9980 C   0  0  0  0  0  0
  -28.4279  -22.0673   22.2665 C   0  0  0  0  0  0
  -28.7887  -21.0830   19.9875 C   0  0  0  0  0  0
  -33.4805  -19.1023   20.4298 C   0  0  0  0  0  0
  -27.9481  -23.7434   20.4254 C   0  0  0  0  0  0
  -28.4380  -25.0634   19.6331 C   0  0  0  0  0  0
  -28.8899  -22.4704   20.8489 C   0  0  0  0  0  0
  -31.5600  -17.6222   20.5513 N   0  0  0  0  0  0
  -29.8719  -15.8693   20.6303 N   0  0  0  0  0  0
  -31.4648  -12.5386   19.1661 H   0  0  0  0  0  0
  -30.3517  -11.4580   19.9544 H   0  0  0  0  0  0
  -29.7804  -11.7236   17.5148 H   0  0  0  0  0  0
  -29.6356  -13.4523   17.7200 H   0  0  0  0  0  0
  -27.8850  -11.2810   18.9128 H   0  0  0  0  0  0
  -27.3720  -12.5199   17.7991 H   0  0  0  0  0  0
  -27.6337  -14.2511   19.4655 H   0  0  0  0  0  0
  -28.7130  -12.1699   21.4285 H   0  0  0  0  0  0
  -28.4261  -13.8529   21.7902 H   0  0  0  0  0  0
  -25.2761   -9.5680   22.4771 H   0  0  0  0  0  0
  -24.0000   -7.4629   22.7474 H   0  0  0  0  0  0
  -21.0847   -8.8773   19.8951 H   0  0  0  0  0  0
  -22.3699  -10.9676   19.6174 H   0  0  0  0  0  0
  -21.2007   -7.6150   23.9714 H   0  0  0  0  0  0
  -21.1478   -6.0524   25.9078 H   0  0  0  0  0  0
  -22.0601   -2.7607   23.2849 H   0  0  0  0  0  0
  -22.4082  -11.9869   22.4814 H   0  0  0  0  0  0
  -21.1077  -13.1226   22.2627 H   0  0  0  0  0  0
  -24.6297  -15.8269   20.4757 H   0  0  0  0  0  0
  -26.2200  -15.6066   19.9542 H   0  0  0  0  0  0
  -26.7176  -32.5399   23.1056 H   0  0  0  0  0  0
  -25.0054  -33.9716   25.0367 H   0  0  0  0  0  0
  -22.7188  -31.2959   21.3962 H   0  0  0  0  0  0
  -23.3767  -35.9605   23.3311 H   0  0  0  0  0  0
  -24.3572  -36.8914   22.2059 H   0  0  0  0  0  0
  -23.7236  -37.6474   23.6683 H   0  0  0  0  0  0
  -26.1066  -31.5372   20.6128 H   0  0  0  0  0  0
  -26.8399  -30.8145   22.0152 H   0  0  0  0  0  0
  -28.1083  -28.9445   21.2004 H   0  0  0  0  0  0
  -25.9678  -25.8841   19.0306 H   0  0  0  0  0  0
  -23.9703  -27.2864   19.0155 H   0  0  0  0  0  0
  -23.7641  -30.5823   19.4017 H   0  0  0  0  0  0
  -22.7585  -29.2387   19.8538 H   0  0  0  0  0  0
  -25.1300  -36.1927   25.0816 H   0  0  0  0  0  0
  -20.9941  -28.3311   24.1405 H   0  0  0  0  0  0
  -20.5685  -26.2314   23.3626 H   0  0  0  0  0  0
  -21.6635  -26.7462   22.1197 H   0  0  0  0  0  0
  -19.6922  -25.6288   21.1258 H   0  0  0  0  0  0
  -19.6698  -27.3182   20.6737 H   0  0  0  0  0  0
  -17.4189  -26.6677   21.4017 H   0  0  0  0  0  0
  -18.0314  -26.0078   22.9011 H   0  0  0  0  0  0
  -19.7960  -30.7257   24.2254 H   0  0  0  0  0  0
  -17.5046  -31.6274   24.5171 H   0  0  0  0  0  0
  -15.5361  -30.2997   23.7683 H   0  0  0  0  0  0
  -15.8659  -28.0839   22.7067 H   0  0  0  0  0  0
  -24.5851  -30.7165   25.7764 H   0  0  0  0  0  0
  -24.8951  -32.2953   26.4887 H   0  0  0  0  0  0
  -25.8017  -30.8915   27.0210 H   0  0  0  0  0  0
  -26.2969  -29.6740   24.1252 H   0  0  0  0  0  0
  -27.4034  -29.7314   25.4767 H   0  0  0  0  0  0
  -27.8839  -30.4288   23.9489 H   0  0  0  0  0  0
  -27.2607  -33.3669   26.2046 H   0  0  0  0  0  0
  -28.3840  -32.6944   25.0328 H   0  0  0  0  0  0
  -28.0691  -31.8523   26.5434 H   0  0  0  0  0  0
  -28.2583  -38.0105   24.7502 H   0  0  0  0  0  0
  -28.1085  -36.2626   24.6291 H   0  0  0  0  0  0
  -27.2282  -37.1428   25.8861 H   0  0  0  0  0  0
  -20.9403  -29.8771   21.6869 H   0  0  0  0  0  0
  -26.0185  -38.2841   24.1425 H   0  0  0  0  0  0
  -31.5344  -20.9395   19.9947 H   0  0  0  0  0  0
  -27.2606  -18.8112   21.0572 H   0  0  0  0  0  0
  -27.5891  -17.1086   20.8491 H   0  0  0  0  0  0
  -27.3973  -18.1348   19.4282 H   0  0  0  0  0  0
  -35.0762  -19.3232   21.8974 H   0  0  0  0  0  0
  -33.7969  -18.2167   22.3938 H   0  0  0  0  0  0
  -33.5200  -19.9560   22.4315 H   0  0  0  0  0  0
  -30.9552  -22.2967   21.5797 H   0  0  0  0  0  0
  -30.3674  -23.9325   21.5269 H   0  0  0  0  0  0
  -30.8110  -23.1282   20.0283 H   0  0  0  0  0  0
  -29.0195  -21.2417   22.6664 H   0  0  0  0  0  0
  -27.3847  -21.7470   22.2658 H   0  0  0  0  0  0
  -28.5151  -22.8941   22.9742 H   0  0  0  0  0  0
  -27.7479  -20.7607   19.9986 H   0  0  0  0  0  0
  -28.9639  -21.3479   18.9444 H   0  0  0  0  0  0
  -33.7375  -20.0261   19.9100 H   0  0  0  0  0  0
  -33.9789  -18.2987   19.8854 H   0  0  0  0  0  0
  -27.0908  -23.3440   19.8821 H   0  0  0  0  0  0
  -27.4919  -24.1424   21.3325 H   0  0  0  0  0  0
  -27.9802  -25.0608   18.6435 H   0  0  0  0  0  0
  -29.4939  -24.9396   19.4018 H   0  0  0  0  0  0
  -28.8946  -15.6957   20.7910 H   0  0  0  0  0  0
  1 25  1  0  0  0
  1 30  2  0  0  0
  1 86  1  0  0  0
  2  3  1  0  0  0
  2 25  1  0  0  0
  2 87  1  0  0  0
  2 88  1  0  0  0
  3  4  1  0  0  0
  3 89  1  0  0  0
  3 90  1  0  0  0
  4  5  1  0  0  0
  4 91  1  0  0  0
  4 92  1  0  0  0
  5  6  1  0  0  0
  5 26  1  0  0  0
  5 93  1  0  0  0
  6 25  1  0  0  0
  6 94  1  0  0  0
  6 95  1  0  0  0
  7  8  2  0  0  0
  7 26  1  0  0  0
  7 29  1  0  0  0
  8  9  1  0  0  0
  8 22  1  0  0  0
  9 10  1  0  0  0
  9 27  2  0  0  0
 10 11  2  0  0  0
 10 15  1  0  0  0
 11 12  1  0  0  0
 11 96  1  0  0  0
 12 13  2  0  0  0
 12 97  1  0  0  0
 13 14  1  0  0  0
 13 31  1  0  0  0
 14 15  2  0  0  0
 14 98  1  0  0  0
 15 99  1  0  0  0
 16 17  2  0  0  0
 16 21  1  0  0  0
 16 31  1  0  0  0
 17 18  1  0  0  0
 17100  1  0  0  0
 18 19  2  0  0  0
 18101  1  0  0  0
 19 20  1  0  0  0
 19 24  1  0  0  0
 20 21  2  0  0  0
 20102  1  0  0  0
 21 23  1  0  0  0
 22 28  1  0  0  0
 22 32  2  0  0  0
 26 27  1  0  0  0
 28103  1  0  0  0
 28104  1  0  0  0
 29105  1  0  0  0
 29106  1  0  0  0
 33 34  1  0  0  0
 33 66  1  0  0  0
 33 70  2  0  0  0
 34 36  1  0  0  0
 34 59  1  0  0  0
 34107  1  0  0  0
 35 44  2  0  0  0
 35 45  1  0  0  0
 35 68  1  0  0  0
 36 56  1  0  0  0
 36108  1  0  0  0
 37 39  1  0  0  0
 37 47  1  0  0  0
 37 66  1  0  0  0
 37109  1  0  0  0
 38 43  2  0  0  0
 38 46  1  0  0  0
 38 47  1  0  0  0
 39 64  1  0  0  0
 39 67  2  0  0  0
 40 52  1  0  0  0
 40 53  2  0  0  0
 40 58  1  0  0  0
 41110  1  0  0  0
 41111  1  0  0  0
 41112  1  0  0  0
 41 48  1  0  0  0
 42 43  1  0  0  0
 42 66  1  0  0  0
 42113  1  0  0  0
 42114  1  0  0  0
 43 44  1  0  0  0
 44115  1  0  0  0
 45 46  2  0  0  0
 45116  1  0  0  0
 46117  1  0  0  0
 47118  1  0  0  0
 47119  1  0  0  0
 48 56  1  0  0  0
 48 65  1  0  0  0
 48120  1  0  0  0
 49 50  1  0  0  0
 49 53  1  0  0  0
 49 64  1  0  0  0
 49121  1  0  0  0
 50 51  1  0  0  0
 50122  1  0  0  0
 50123  1  0  0  0
 51 52  1  0  0  0
 51124  1  0  0  0
 51125  1  0  0  0
 52126  1  0  0  0
 52127  1  0  0  0
 53 54  1  0  0  0
 54 55  2  0  0  0
 54128  1  0  0  0
 55 57  1  0  0  0
 55129  1  0  0  0
 56 69  2  0  0  0
 57 58  2  0  0  0
 57130  1  0  0  0
 58131  1  0  0  0
 59 60  1  0  0  0
 59 61  1  0  0  0
 59 62  1  0  0  0
 60132  1  0  0  0
 60133  1  0  0  0
 60134  1  0  0  0
 61135  1  0  0  0
 61136  1  0  0  0
 61137  1  0  0  0
 62138  1  0  0  0
 62139  1  0  0  0
 62140  1  0  0  0
 63 65  1  0  0  0
 63141  1  0  0  0
 63142  1  0  0  0
 63143  1  0  0  0
 64144  1  0  0  0
 65145  1  0  0  0
 68 83  1  0  0  0
 71 72  2  0  0  0
 71 74  1  0  0  0
 71146  1  0  0  0
 72 73  1  0  0  0
 72 80  1  0  0  0
 73 75  2  0  0  0
 73 76  1  0  0  0
 74 81  1  0  0  0
 74 85  2  0  0  0
 75 85  1  0  0  0
 75 86  1  0  0  0
 76147  1  0  0  0
 76148  1  0  0  0
 76149  1  0  0  0
 77 81  1  0  0  0
 77150  1  0  0  0
 77151  1  0  0  0
 77152  1  0  0  0
 78153  1  0  0  0
 78154  1  0  0  0
 78155  1  0  0  0
 78 84  1  0  0  0
 79 84  1  0  0  0
 79156  1  0  0  0
 79157  1  0  0  0
 79158  1  0  0  0
 80 84  1  0  0  0
 80159  1  0  0  0
 80160  1  0  0  0
 81161  1  0  0  0
 81162  1  0  0  0
 82 83  1  0  0  0
 82 84  1  0  0  0
 82163  1  0  0  0
 82164  1  0  0  0
 83165  1  0  0  0
 83166  1  0  0  0
 86167  1  0  0  0
M  ISO  4   1 100  68 101  83 101  86 100
M  END
> <chiral flag>
0

> <version>
0

> <s_m_source_file>
/data/baiqing/PycharmProjects/Reinvent-master-3.2/result/LINK_invent/BTK/process_docking_weight1_custom_sum_contain_oxygen_bond_distance_aromatic_linkinvent_7_9_3/rearranged_h_0099.sdf

> <i_m_source_file_index>
22

> <r_mmod_Potential_Energy-OPLS-2005>
72.9244155883789

> <r_mmod_Stretch_Energy-OPLS-2005>
130.924133300781

> <r_mmod_Bend_Energy-OPLS-2005>
200.099700927734

> <r_mmod_Torsional_Energy-OPLS-2005>
220.343841552734

> <r_mmod_Improper_Torsional_Energy-OPLS-2005>
6.21199417114258

> <r_mmod_Van_der_Waal_Energy-OPLS-2005>
145.36116027832

> <r_mmod_Electrostatic_Energy-OPLS-2005>
-476.698822021484

> <r_mmod_Solvation_Energy-OPLS-2005>
-225.679656982422

> <b_mmod_Minimization_Converged-OPLS-2005>
0

> <r_mmod_RMS_Derivative-OPLS-2005>
1.41050267219543

$$$$
22
                    3D
 Structure written by MMmdl.
170177  0  0  1  0            999 V2000
  -30.6593  -14.7001   20.5572 C   0  0  0  0  0  0
  -30.4361  -12.4444   19.4765 C   0  0  0  0  0  0
  -29.5135  -12.5115   18.2401 C   0  0  0  0  0  0
  -28.0407  -12.3314   18.6525 C   0  0  0  0  0  0
  -27.6497  -13.2248   19.8588 C   0  0  2  0  0  0
  -28.6908  -13.1297   20.9954 C   0  0  0  0  0  0
  -25.2540  -13.8182   20.5675 C   0  0  0  0  0  0
  -24.1818  -13.0433   20.9201 C   0  0  0  0  0  0
  -24.6403  -11.6914   20.8734 C   0  0  0  0  0  0
  -23.9073  -10.4292   21.0409 C   0  0  0  0  0  0
  -24.3618   -9.4207   21.9187 C   0  0  0  0  0  0
  -23.6285   -8.2238   22.0765 C   0  0  0  0  0  0
  -22.4269   -8.0277   21.3552 C   0  0  0  0  0  0
  -21.9909   -9.0252   20.4649 C   0  0  0  0  0  0
  -22.7242  -10.2131   20.3060 C   0  0  0  0  0  0
  -21.6854   -6.0720   22.5276 C   0  0  0  0  0  0
  -21.4011   -6.5633   23.8208 C   0  0  0  0  0  0
  -21.3652   -5.6793   24.9170 C   0  0  0  0  0  0
  -21.6050   -4.3051   24.7230 C   0  0  0  0  0  0
  -21.8819   -3.8140   23.4354 C   0  0  0  0  0  0
  -21.9192   -4.6948   22.3404 C   0  0  0  0  0  0
  -22.7843  -13.5228   21.1839 C   0  0  0  0  0  0
  -22.1661   -4.2133   21.0979 F   0  0  0  0  0  0
  -21.5627   -3.4540   25.7742 F   0  0  0  0  0  0
  -30.0006  -13.4921   20.4336 N   0  0  0  0  0  0
  -26.2969  -12.9379   20.3290 N   0  0  0  0  0  0
  -25.9336  -11.6534   20.5765 N   0  0  0  0  0  0
  -22.0484  -12.8223   22.0402 N   0  0  0  0  0  0
  -25.4258  -15.1895   20.4073 N   0  0  0  0  0  0
  -31.7834  -14.8107   20.0539 O   0  0  0  0  0  0
  -21.6638   -6.8868   21.4244 O   0  0  0  0  0  0
  -22.3535  -14.5529   20.6684 O   0  0  0  0  0  0
  -24.6310  -31.8553   23.1977 C   0  0  0  0  0  0
  -25.9152  -32.4743   23.8322 C   0  0  1  0  0  0
  -27.2330  -27.2799   20.1149 C   0  0  0  0  0  0
  -25.5949  -33.8542   24.2245 N   0  0  0  0  0  0
  -23.4267  -30.4741   21.5402 C   0  0  2  0  0  0
  -24.8733  -28.9183   20.1073 C   0  0  0  0  0  0
  -22.7507  -29.4589   22.4922 C   0  0  0  0  0  0
  -18.0302  -28.1344   22.8462 C   0  0  0  0  0  0
  -24.1523  -36.7294   23.2636 C   0  0  0  0  0  0
  -25.9689  -30.7711   21.3751 C   0  0  0  0  0  0
  -26.0417  -29.3956   20.7134 C   0  0  0  0  0  0
  -27.2187  -28.5869   20.7055 C   0  0  0  0  0  0
  -26.0360  -26.8537   19.4977 C   0  0  0  0  0  0
  -24.8734  -27.6544   19.4944 C   0  0  0  0  0  0
  -23.6433  -29.8041   20.1570 C   0  0  0  0  0  0
  -25.4140  -36.3058   24.0329 C   0  0  1  0  0  0
  -20.5900  -28.3672   23.1241 C   0  0  2  0  0  0
  -20.6810  -26.9387   22.5379 C   0  0  0  0  0  0
  -19.5790  -26.6342   21.5183 C   0  0  0  0  0  0
  -18.1958  -26.7901   22.1575 C   0  0  0  0  0  0
  -19.1551  -28.8823   23.2854 C   0  0  0  0  0  0
  -18.9475  -30.1431   23.8861 C   0  0  0  0  0  0
  -17.6471  -30.6552   24.0529 C   0  0  0  0  0  0
  -25.9065  -34.9424   23.5093 C   0  0  0  0  0  0
  -16.5365  -29.9029   23.6327 C   0  0  0  0  0  0
  -16.7290  -28.6449   23.0335 C   0  0  0  0  0  0
  -26.4522  -31.6578   25.0717 C   0  0  0  0  0  0
  -25.3718  -31.3690   26.1414 C   0  0  0  0  0  0
  -27.0406  -30.3011   24.6197 C   0  0  0  0  0  0
  -27.6082  -32.4336   25.7461 C   0  0  0  0  0  0
  -27.5602  -37.1806   24.8456 C   0  0  0  0  0  0
  -21.4221  -29.3026   22.3653 N   0  0  0  0  0  0
  -26.4327  -37.3743   23.9383 N   0  0  0  0  0  0
  -24.6939  -31.0524   22.0942 N   0  0  0  0  0  0
  -23.4211  -28.8136   23.3022 O   0  0  0  0  0  0
  -28.3685  -26.4499   20.1960 O   0  0  0  0  0  0
  -26.5626  -34.8898   22.4653 O   0  0  0  0  0  0
  -23.5466  -32.1364   23.7281 O   0  0  0  0  0  0
  -32.4441  -17.4493   24.0713 C   0  0  0  0  0  0
  -29.1737  -23.8068   21.6879 C   0  0  0  0  0  0
  -26.9076  -23.4601   20.6494 C   0  0  0  0  0  0
  -30.7576  -18.4978   19.0542 C   0  0  0  0  0  0
  -28.7177  -20.8475   19.8847 C   0  0  0  0  0  0
  -29.0133  -22.4170   19.5759 C   0  0  0  0  0  0
  -29.6846  -19.9223   20.7753 C   0  0  0  0  0  0
  -29.3654  -17.2474   20.6761 C   0  0  0  0  0  0
  -31.2211  -16.7074   23.5081 C   0  0  0  0  0  0
  -28.5108  -25.1050   19.5578 C   0  0  0  0  0  0
  -30.1235  -15.9832   21.3595 C   0  0  2  0  0  0
  -28.4002  -23.6966   20.3625 C   0  0  0  0  0  0
  -30.1324  -18.5206   20.3744 N   0  0  0  0  0  0
  -31.2917  -16.5761   22.0359 N   0  3  0  0  0  0
  -31.4771  -12.5597   19.1711 H   0  0  0  0  0  0
  -30.3802  -11.4594   19.9433 H   0  0  0  0  0  0
  -29.7949  -11.7426   17.5195 H   0  0  0  0  0  0
  -29.6442  -13.4685   17.7337 H   0  0  0  0  0  0
  -27.9019  -11.2823   18.9141 H   0  0  0  0  0  0
  -27.3806  -12.5222   17.8057 H   0  0  0  0  0  0
  -27.6571  -14.2523   19.4953 H   0  0  0  0  0  0
  -28.7218  -12.1172   21.4018 H   0  0  0  0  0  0
  -28.3983  -13.7671   21.8275 H   0  0  0  0  0  0
  -25.2766   -9.5667   22.4763 H   0  0  0  0  0  0
  -23.9980   -7.4639   22.7502 H   0  0  0  0  0  0
  -21.0836   -8.8775   19.8963 H   0  0  0  0  0  0
  -22.3705  -10.9664   19.6162 H   0  0  0  0  0  0
  -21.2007   -7.6146   23.9702 H   0  0  0  0  0  0
  -21.1474   -6.0526   25.9072 H   0  0  0  0  0  0
  -22.0606   -2.7604   23.2863 H   0  0  0  0  0  0
  -22.4085  -11.9875   22.4779 H   0  0  0  0  0  0
  -21.1107  -13.1266   22.2601 H   0  0  0  0  0  0
  -24.6567  -15.8425   20.5070 H   0  0  0  0  0  0
  -26.2627  -15.6226   20.0405 H   0  0  0  0  0  0
  -26.7225  -32.5387   23.1067 H   0  0  0  0  0  0
  -25.0108  -33.9684   25.0393 H   0  0  0  0  0  0
  -22.7234  -31.2967   21.3945 H   0  0  0  0  0  0
  -23.3784  -35.9624   23.3277 H   0  0  0  0  0  0
  -24.3620  -36.8936   22.2056 H   0  0  0  0  0  0
  -23.7307  -37.6495   23.6680 H   0  0  0  0  0  0
  -26.1116  -31.5414   20.6146 H   0  0  0  0  0  0
  -26.8419  -30.8078   22.0138 H   0  0  0  0  0  0
  -28.1189  -28.9474   21.1839 H   0  0  0  0  0  0
  -25.9660  -25.8772   19.0421 H   0  0  0  0  0  0
  -23.9715  -27.2779   19.0309 H   0  0  0  0  0  0
  -23.7605  -30.5751   19.3951 H   0  0  0  0  0  0
  -22.7626  -29.2324   19.8610 H   0  0  0  0  0  0
  -25.1347  -36.1905   25.0833 H   0  0  0  0  0  0
  -20.9996  -28.3242   24.1360 H   0  0  0  0  0  0
  -20.5716  -26.2278   23.3582 H   0  0  0  0  0  0
  -21.6686  -26.7411   22.1178 H   0  0  0  0  0  0
  -19.6957  -25.6242   21.1243 H   0  0  0  0  0  0
  -19.6744  -27.3119   20.6687 H   0  0  0  0  0  0
  -17.4254  -26.6640   21.3960 H   0  0  0  0  0  0
  -18.0346  -26.0025   22.8946 H   0  0  0  0  0  0
  -19.7952  -30.7243   24.2217 H   0  0  0  0  0  0
  -17.5018  -31.6234   24.5120 H   0  0  0  0  0  0
  -15.5358  -30.2896   23.7688 H   0  0  0  0  0  0
  -15.8697  -28.0758   22.7057 H   0  0  0  0  0  0
  -24.5924  -30.7029   25.7681 H   0  0  0  0  0  0
  -24.8883  -32.2853   26.4830 H   0  0  0  0  0  0
  -25.8034  -30.8846   27.0189 H   0  0  0  0  0  0
  -26.2994  -29.6698   24.1280 H   0  0  0  0  0  0
  -27.4168  -29.7346   25.4728 H   0  0  0  0  0  0
  -27.8835  -30.4311   23.9393 H   0  0  0  0  0  0
  -27.2721  -33.3677   26.1977 H   0  0  0  0  0  0
  -28.3893  -32.6829   25.0263 H   0  0  0  0  0  0
  -28.0732  -31.8486   26.5403 H   0  0  0  0  0  0
  -28.2594  -38.0127   24.7531 H   0  0  0  0  0  0
  -28.1156  -36.2670   24.6290 H   0  0  0  0  0  0
  -27.2324  -37.1433   25.8857 H   0  0  0  0  0  0
  -20.9408  -29.8751   21.6859 H   0  0  0  0  0  0
  -26.0217  -38.2813   24.1380 H   0  0  0  0  0  0
  -32.3615  -17.5699   25.1528 H   0  0  0  0  0  0
  -32.5396  -18.4465   23.6402 H   0  0  0  0  0  0
  -33.3702  -16.9073   23.8746 H   0  0  0  0  0  0
  -29.0433  -22.9096   22.2952 H   0  0  0  0  0  0
  -28.8385  -24.6590   22.2793 H   0  0  0  0  0  0
  -30.2443  -23.9282   21.5143 H   0  0  0  0  0  0
  -26.7406  -22.5559   21.2340 H   0  0  0  0  0  0
  -26.3379  -23.3698   19.7233 H   0  0  0  0  0  0
  -26.4820  -24.2922   21.2130 H   0  0  0  0  0  0
  -31.4720  -19.3160   18.9431 H   0  0  0  0  0  0
  -30.0175  -18.5912   18.2576 H   0  0  0  0  0  0
  -31.3005  -17.5657   18.8910 H   0  0  0  0  0  0
  -28.6763  -20.3741   18.9039 H   0  0  0  0  0  0
  -27.6986  -20.7380   20.2506 H   0  0  0  0  0  0
  -28.6615  -22.5510   18.5516 H   0  0  0  0  0  0
  -30.0936  -22.5450   19.4894 H   0  0  0  0  0  0
  -29.2791  -19.8823   21.7879 H   0  0  0  0  0  0
  -30.6088  -20.4911   20.8887 H   0  0  0  0  0  0
  -28.5645  -17.5302   21.3604 H   0  0  0  0  0  0
  -28.8460  -16.9140   19.7761 H   0  0  0  0  0  0
  -30.3161  -17.2529   23.7813 H   0  0  0  0  0  0
  -31.1481  -15.7192   23.9671 H   0  0  0  0  0  0
  -27.9136  -25.0556   18.6485 H   0  0  0  0  0  0
  -29.5296  -25.1331   19.1697 H   0  0  0  0  0  0
  -29.4583  -15.5967   22.1295 H   0  0  0  0  0  0
  -32.0813  -16.0164   21.7447 H   0  0  0  0  0  0
  -31.3704  -17.4885   21.6046 H   0  0  0  0  0  0
  1 25  1  0  0  0
  1 30  2  0  0  0
  1 81  1  0  0  0
  2  3  1  0  0  0
  2 25  1  0  0  0
  2 85  1  0  0  0
  2 86  1  0  0  0
  3  4  1  0  0  0
  3 87  1  0  0  0
  3 88  1  0  0  0
  4  5  1  0  0  0
  4 89  1  0  0  0
  4 90  1  0  0  0
  5  6  1  0  0  0
  5 26  1  0  0  0
  5 91  1  0  0  0
  6 25  1  0  0  0
  6 92  1  0  0  0
  6 93  1  0  0  0
  7  8  2  0  0  0
  7 26  1  0  0  0
  7 29  1  0  0  0
  8  9  1  0  0  0
  8 22  1  0  0  0
  9 10  1  0  0  0
  9 27  2  0  0  0
 10 11  2  0  0  0
 10 15  1  0  0  0
 11 12  1  0  0  0
 11 94  1  0  0  0
 12 13  2  0  0  0
 12 95  1  0  0  0
 13 14  1  0  0  0
 13 31  1  0  0  0
 14 15  2  0  0  0
 14 96  1  0  0  0
 15 97  1  0  0  0
 16 17  2  0  0  0
 16 21  1  0  0  0
 16 31  1  0  0  0
 17 18  1  0  0  0
 17 98  1  0  0  0
 18 19  2  0  0  0
 18 99  1  0  0  0
 19 20  1  0  0  0
 19 24  1  0  0  0
 20 21  2  0  0  0
 20100  1  0  0  0
 21 23  1  0  0  0
 22 28  1  0  0  0
 22 32  2  0  0  0
 26 27  1  0  0  0
 28101  1  0  0  0
 28102  1  0  0  0
 29103  1  0  0  0
 29104  1  0  0  0
 33 34  1  0  0  0
 33 66  1  0  0  0
 33 70  2  0  0  0
 34 36  1  0  0  0
 34 59  1  0  0  0
 34105  1  0  0  0
 35 44  2  0  0  0
 35 45  1  0  0  0
 35 68  1  0  0  0
 36 56  1  0  0  0
 36106  1  0  0  0
 37 39  1  0  0  0
 37 47  1  0  0  0
 37 66  1  0  0  0
 37107  1  0  0  0
 38 43  2  0  0  0
 38 46  1  0  0  0
 38 47  1  0  0  0
 39 64  1  0  0  0
 39 67  2  0  0  0
 40 52  1  0  0  0
 40 53  2  0  0  0
 40 58  1  0  0  0
 41108  1  0  0  0
 41109  1  0  0  0
 41110  1  0  0  0
 41 48  1  0  0  0
 42 43  1  0  0  0
 42 66  1  0  0  0
 42111  1  0  0  0
 42112  1  0  0  0
 43 44  1  0  0  0
 44113  1  0  0  0
 45 46  2  0  0  0
 45114  1  0  0  0
 46115  1  0  0  0
 47116  1  0  0  0
 47117  1  0  0  0
 48 56  1  0  0  0
 48 65  1  0  0  0
 48118  1  0  0  0
 49 50  1  0  0  0
 49 53  1  0  0  0
 49 64  1  0  0  0
 49119  1  0  0  0
 50 51  1  0  0  0
 50120  1  0  0  0
 50121  1  0  0  0
 51 52  1  0  0  0
 51122  1  0  0  0
 51123  1  0  0  0
 52124  1  0  0  0
 52125  1  0  0  0
 53 54  1  0  0  0
 54 55  2  0  0  0
 54126  1  0  0  0
 55 57  1  0  0  0
 55127  1  0  0  0
 56 69  2  0  0  0
 57 58  2  0  0  0
 57128  1  0  0  0
 58129  1  0  0  0
 59 60  1  0  0  0
 59 61  1  0  0  0
 59 62  1  0  0  0
 60130  1  0  0  0
 60131  1  0  0  0
 60132  1  0  0  0
 61133  1  0  0  0
 61134  1  0  0  0
 61135  1  0  0  0
 62136  1  0  0  0
 62137  1  0  0  0
 62138  1  0  0  0
 63 65  1  0  0  0
 63139  1  0  0  0
 63140  1  0  0  0
 63141  1  0  0  0
 64142  1  0  0  0
 65143  1  0  0  0
 68 80  1  0  0  0
 71 79  1  0  0  0
 71144  1  0  0  0
 71145  1  0  0  0
 71146  1  0  0  0
 72147  1  0  0  0
 72148  1  0  0  0
 72149  1  0  0  0
 72 82  1  0  0  0
 73 82  1  0  0  0
 73150  1  0  0  0
 73151  1  0  0  0
 73152  1  0  0  0
 74 83  1  0  0  0
 74153  1  0  0  0
 74154  1  0  0  0
 74155  1  0  0  0
 75 76  1  0  0  0
 75 77  1  0  0  0
 75156  1  0  0  0
 75157  1  0  0  0
 76 82  1  0  0  0
 76158  1  0  0  0
 76159  1  0  0  0
 77 83  1  0  0  0
 77160  1  0  0  0
 77161  1  0  0  0
 78 83  1  0  0  0
 78162  1  0  0  0
 78163  1  0  0  0
 78 81  1  0  0  0
 79 84  1  0  0  0
 79164  1  0  0  0
 79165  1  0  0  0
 80 82  1  0  0  0
 80166  1  0  0  0
 80167  1  0  0  0
 81 84  1  0  0  0
 81168  1  0  0  0
 84169  1  0  0  0
 84170  1  0  0  0
M  CHG  1  84   1
M  ISO  4   1 100  68 101  80 101  81 100
M  END
> <chiral flag>
0

> <version>
0

> <s_m_source_file>
/data/baiqing/PycharmProjects/Reinvent-master-3.2/result/LINK_invent/BTK/process_docking_weight1_custom_sum_contain_oxygen_bond_distance_aromatic_linkinvent_7_9_3/rearranged_h_0099.sdf

> <i_m_source_file_index>
23

> <r_mmod_Potential_Energy-OPLS-2005>
77.3909225463867

> <r_mmod_Stretch_Energy-OPLS-2005>
127.043342590332

> <r_mmod_Bend_Energy-OPLS-2005>
252.709930419922

> <r_mmod_Torsional_Energy-OPLS-2005>
219.979110717773

> <r_mmod_Improper_Torsional_Energy-OPLS-2005>
2.02266883850098

> <r_mmod_Van_der_Waal_Energy-OPLS-2005>
114.979942321777

> <r_mmod_Electrostatic_Energy-OPLS-2005>
-306.219421386719

> <r_mmod_Solvation_Energy-OPLS-2005>
-398.16552734375

> <b_mmod_Minimization_Converged-OPLS-2005>
0

> <r_mmod_RMS_Derivative-OPLS-2005>
2.56427502632141

$$$$
23
                    3D
 Structure written by MMmdl.
162170  0  0  1  0            999 V2000
  -30.4969  -14.9941   20.4006 C   0  0  0  0  0  0
  -30.4561  -12.6203   19.4823 C   0  0  0  0  0  0
  -29.5254  -12.5241   18.2493 C   0  0  0  0  0  0
  -28.0614  -12.2987   18.6777 C   0  0  0  0  0  0
  -27.6291  -13.2408   19.8305 C   0  0  2  0  0  0
  -28.6763  -13.2809   20.9623 C   0  0  0  0  0  0
  -25.2473  -13.8188   20.5700 C   0  0  0  0  0  0
  -24.1791  -13.0429   20.9243 C   0  0  0  0  0  0
  -24.6394  -11.6906   20.8762 C   0  0  0  0  0  0
  -23.9069  -10.4284   21.0418 C   0  0  0  0  0  0
  -24.3618   -9.4201   21.9196 C   0  0  0  0  0  0
  -23.6290   -8.2238   22.0764 C   0  0  0  0  0  0
  -22.4272   -8.0278   21.3550 C   0  0  0  0  0  0
  -21.9910   -9.0253   20.4652 C   0  0  0  0  0  0
  -22.7242  -10.2130   20.3065 C   0  0  0  0  0  0
  -21.6854   -6.0731   22.5277 C   0  0  0  0  0  0
  -21.4012   -6.5638   23.8209 C   0  0  0  0  0  0
  -21.3659   -5.6795   24.9173 C   0  0  0  0  0  0
  -21.6040   -4.3057   24.7228 C   0  0  0  0  0  0
  -21.8819   -3.8145   23.4352 C   0  0  0  0  0  0
  -21.9190   -4.6957   22.3405 C   0  0  0  0  0  0
  -22.7810  -13.5213   21.1883 C   0  0  0  0  0  0
  -22.1661   -4.2142   21.0985 F   0  0  0  0  0  0
  -21.5628   -3.4543   25.7743 F   0  0  0  0  0  0
  -29.9431  -13.7135   20.3542 N   0  0  0  0  0  0
  -26.2888  -12.9406   20.3208 N   0  0  0  0  0  0
  -25.9322  -11.6545   20.5724 N   0  0  0  0  0  0
  -22.0441  -12.8213   22.0429 N   0  0  0  0  0  0
  -25.4102  -15.1922   20.4092 N   0  0  0  0  0  0
  -31.7135  -15.1001   20.2091 O   0  0  0  0  0  0
  -21.6640   -6.8875   21.4240 O   0  0  0  0  0  0
  -22.3510  -14.5519   20.6715 O   0  0  0  0  0  0
  -24.6486  -31.8398   23.1868 C   0  0  0  0  0  0
  -25.9233  -32.4665   23.8271 C   0  0  1  0  0  0
  -27.2148  -27.0906   20.1435 C   0  0  0  0  0  0
  -25.5956  -33.8479   24.2185 N   0  0  0  0  0  0
  -23.4539  -30.4597   21.5355 C   0  0  2  0  0  0
  -24.9012  -28.8809   20.1149 C   0  0  0  0  0  0
  -22.7584  -29.4534   22.4863 C   0  0  0  0  0  0
  -18.0309  -28.1370   22.8477 C   0  0  0  0  0  0
  -24.1500  -36.7241   23.2642 C   0  0  0  0  0  0
  -26.0162  -30.6963   21.3955 C   0  0  0  0  0  0
  -26.0851  -29.3058   20.7313 C   0  0  0  0  0  0
  -27.2434  -28.4302   20.7240 C   0  0  0  0  0  0
  -26.0016  -26.7862   19.4846 C   0  0  0  0  0  0
  -24.8756  -27.6356   19.4751 C   0  0  0  0  0  0
  -23.6798  -29.7876   20.1571 C   0  0  0  0  0  0
  -25.4133  -36.3018   24.0313 C   0  0  1  0  0  0
  -20.5922  -28.3708   23.1214 C   0  0  2  0  0  0
  -20.6789  -26.9405   22.5391 C   0  0  0  0  0  0
  -19.5766  -26.6366   21.5197 C   0  0  0  0  0  0
  -18.1953  -26.7913   22.1614 C   0  0  0  0  0  0
  -19.1565  -28.8858   23.2838 C   0  0  0  0  0  0
  -18.9475  -30.1452   23.8863 C   0  0  0  0  0  0
  -17.6469  -30.6570   24.0542 C   0  0  0  0  0  0
  -25.9078  -34.9390   23.5065 C   0  0  0  0  0  0
  -16.5364  -29.9050   23.6333 C   0  0  0  0  0  0
  -16.7295  -28.6464   23.0374 C   0  0  0  0  0  0
  -26.4540  -31.6543   25.0728 C   0  0  0  0  0  0
  -25.3710  -31.3721   26.1407 C   0  0  0  0  0  0
  -27.0406  -30.2926   24.6355 C   0  0  0  0  0  0
  -27.6062  -32.4331   25.7499 C   0  0  0  0  0  0
  -27.5593  -37.1773   24.8465 C   0  0  0  0  0  0
  -21.4273  -29.3032   22.3586 N   0  0  0  0  0  0
  -26.4300  -37.3730   23.9405 N   0  0  0  0  0  0
  -24.7266  -31.0206   22.0933 N   0  0  0  0  0  0
  -23.4203  -28.8088   23.3042 O   0  0  0  0  0  0
  -28.2503  -26.0671   20.1923 O   0  0  0  0  0  0
  -26.5674  -34.8887   22.4650 O   0  0  0  0  0  0
  -23.5594  -32.1302   23.7051 O   0  0  0  0  0  0
  -26.7210  -21.4128   20.7601 C   0  0  0  0  0  0
  -28.1638  -21.4990   20.5045 C   0  0  0  0  0  0
  -26.2881  -20.2119   21.2714 C   0  0  0  0  0  0
  -28.6734  -20.0989   20.5500 C   0  0  0  0  0  0
  -25.6771  -22.4745   20.5204 C   0  0  0  0  0  0
  -24.5103  -20.3699   23.0744 C   0  0  0  0  0  0
  -31.1626  -19.9405   19.9811 C   0  0  0  0  0  0
  -28.7765  -23.0400   20.2214 C   0  0  0  0  0  0
  -24.9180  -19.7872   21.7163 C   0  0  0  0  0  0
  -27.8931  -24.5279   20.2048 C   0  0  0  0  0  0
  -29.8749  -19.1063   20.0519 C   0  0  1  0  0  0
  -29.6291  -16.1229   20.4065 N   0  0  0  0  0  0
  -30.2580  -17.6753   20.6848 N   0  3  0  0  0  0
  -27.5573  -19.0783   21.4060 S   0  0  0  0  0  0
  -31.4800  -12.8135   19.1589 H   0  0  0  0  0  0
  -30.4839  -11.6741   20.0255 H   0  0  0  0  0  0
  -29.8506  -11.7156   17.5930 H   0  0  0  0  0  0
  -29.5977  -13.4416   17.6628 H   0  0  0  0  0  0
  -27.9737  -11.2618   19.0040 H   0  0  0  0  0  0
  -27.3926  -12.4053   17.8229 H   0  0  0  0  0  0
  -27.5843  -14.2364   19.3895 H   0  0  0  0  0  0
  -28.7780  -12.3054   21.4402 H   0  0  0  0  0  0
  -28.3685  -13.9778   21.7438 H   0  0  0  0  0  0
  -25.2753   -9.5680   22.4785 H   0  0  0  0  0  0
  -23.9989   -7.4633   22.7493 H   0  0  0  0  0  0
  -21.0838   -8.8776   19.8965 H   0  0  0  0  0  0
  -22.3695  -10.9675   19.6185 H   0  0  0  0  0  0
  -21.2005   -7.6148   23.9709 H   0  0  0  0  0  0
  -21.1480   -6.0529   25.9075 H   0  0  0  0  0  0
  -22.0596   -2.7608   23.2856 H   0  0  0  0  0  0
  -22.4038  -11.9877   22.4839 H   0  0  0  0  0  0
  -21.1055  -13.1250   22.2607 H   0  0  0  0  0  0
  -24.6224  -15.8244   20.4978 H   0  0  0  0  0  0
  -26.2168  -15.6278   19.9856 H   0  0  0  0  0  0
  -26.7291  -32.5247   23.0987 H   0  0  0  0  0  0
  -25.0025  -33.9588   25.0284 H   0  0  0  0  0  0
  -22.7589  -31.2871   21.3794 H   0  0  0  0  0  0
  -23.3769  -35.9563   23.3281 H   0  0  0  0  0  0
  -24.3575  -36.8913   22.2060 H   0  0  0  0  0  0
  -23.7258  -37.6430   23.6700 H   0  0  0  0  0  0
  -26.1873  -31.4520   20.6275 H   0  0  0  0  0  0
  -26.8799  -30.7382   22.0465 H   0  0  0  0  0  0
  -28.1464  -28.7539   21.2215 H   0  0  0  0  0  0
  -25.8738  -25.8492   18.9693 H   0  0  0  0  0  0
  -23.9744  -27.3059   18.9775 H   0  0  0  0  0  0
  -23.8143  -30.5604   19.3998 H   0  0  0  0  0  0
  -22.7929  -29.2290   19.8511 H   0  0  0  0  0  0
  -25.1327  -36.1846   25.0806 H   0  0  0  0  0  0
  -21.0021  -28.3303   24.1331 H   0  0  0  0  0  0
  -20.5677  -26.2321   23.3612 H   0  0  0  0  0  0
  -21.6656  -26.7402   22.1197 H   0  0  0  0  0  0
  -19.6925  -25.6268   21.1243 H   0  0  0  0  0  0
  -19.6705  -27.3152   20.6706 H   0  0  0  0  0  0
  -17.4225  -26.6662   21.4013 H   0  0  0  0  0  0
  -18.0345  -26.0047   22.8998 H   0  0  0  0  0  0
  -19.7949  -30.7274   24.2229 H   0  0  0  0  0  0
  -17.5020  -31.6253   24.5130 H   0  0  0  0  0  0
  -15.5358  -30.2936   23.7672 H   0  0  0  0  0  0
  -15.8700  -28.0756   22.7129 H   0  0  0  0  0  0
  -24.5910  -30.7049   25.7714 H   0  0  0  0  0  0
  -24.8854  -32.2880   26.4774 H   0  0  0  0  0  0
  -25.7980  -30.8933   27.0226 H   0  0  0  0  0  0
  -26.3029  -29.6622   24.1368 H   0  0  0  0  0  0
  -27.3987  -29.7256   25.4958 H   0  0  0  0  0  0
  -27.8967  -30.4127   23.9712 H   0  0  0  0  0  0
  -27.2659  -33.3670   26.1979 H   0  0  0  0  0  0
  -28.3901  -32.6836   25.0337 H   0  0  0  0  0  0
  -28.0693  -31.8526   26.5482 H   0  0  0  0  0  0
  -28.2588  -38.0093   24.7529 H   0  0  0  0  0  0
  -28.1127  -36.2620   24.6287 H   0  0  0  0  0  0
  -27.2299  -37.1405   25.8865 H   0  0  0  0  0  0
  -20.9484  -29.8727   21.6742 H   0  0  0  0  0  0
  -26.0170  -38.2807   24.1390 H   0  0  0  0  0  0
  -25.8179  -22.9786   19.5702 H   0  0  0  0  0  0
  -25.6165  -23.1910   21.3370 H   0  0  0  0  0  0
  -24.6749  -22.0633   20.4275 H   0  0  0  0  0  0
  -23.5155  -20.0260   23.3584 H   0  0  0  0  0  0
  -24.4885  -21.4598   23.0508 H   0  0  0  0  0  0
  -25.2044  -20.0652   23.8589 H   0  0  0  0  0  0
  -31.0180  -20.8256   19.3607 H   0  0  0  0  0  0
  -31.9871  -19.3760   19.5450 H   0  0  0  0  0  0
  -31.4702  -20.2798   20.9707 H   0  0  0  0  0  0
  -29.3197  -23.0027   19.2772 H   0  0  0  0  0  0
  -29.5593  -23.1911   20.9640 H   0  0  0  0  0  0
  -24.8854  -18.6988   21.7878 H   0  0  0  0  0  0
  -24.1743  -20.0309   20.9584 H   0  0  0  0  0  0
  -27.2508  -24.4897   21.0796 H   0  0  0  0  0  0
  -27.2830  -24.4132   19.3169 H   0  0  0  0  0  0
  -29.6364  -18.8567   19.0170 H   0  0  0  0  0  0
  -28.6314  -16.0291   20.4946 H   0  0  0  0  0  0
  -30.2754  -17.7994   21.6843 H   0  0  0  0  0  0
  -31.2294  -17.5699   20.4344 H   0  0  0  0  0  0
  1 25  1  0  0  0
  1 30  2  0  0  0
  1 82  1  0  0  0
  2  3  1  0  0  0
  2 25  1  0  0  0
  2 85  1  0  0  0
  2 86  1  0  0  0
  3  4  1  0  0  0
  3 87  1  0  0  0
  3 88  1  0  0  0
  4  5  1  0  0  0
  4 89  1  0  0  0
  4 90  1  0  0  0
  5  6  1  0  0  0
  5 26  1  0  0  0
  5 91  1  0  0  0
  6 25  1  0  0  0
  6 92  1  0  0  0
  6 93  1  0  0  0
  7  8  2  0  0  0
  7 26  1  0  0  0
  7 29  1  0  0  0
  8  9  1  0  0  0
  8 22  1  0  0  0
  9 10  1  0  0  0
  9 27  2  0  0  0
 10 11  2  0  0  0
 10 15  1  0  0  0
 11 12  1  0  0  0
 11 94  1  0  0  0
 12 13  2  0  0  0
 12 95  1  0  0  0
 13 14  1  0  0  0
 13 31  1  0  0  0
 14 15  2  0  0  0
 14 96  1  0  0  0
 15 97  1  0  0  0
 16 17  2  0  0  0
 16 21  1  0  0  0
 16 31  1  0  0  0
 17 18  1  0  0  0
 17 98  1  0  0  0
 18 19  2  0  0  0
 18 99  1  0  0  0
 19 20  1  0  0  0
 19 24  1  0  0  0
 20 21  2  0  0  0
 20100  1  0  0  0
 21 23  1  0  0  0
 22 28  1  0  0  0
 22 32  2  0  0  0
 26 27  1  0  0  0
 28101  1  0  0  0
 28102  1  0  0  0
 29103  1  0  0  0
 29104  1  0  0  0
 33 34  1  0  0  0
 33 66  1  0  0  0
 33 70  2  0  0  0
 34 36  1  0  0  0
 34 59  1  0  0  0
 34105  1  0  0  0
 35 44  2  0  0  0
 35 45  1  0  0  0
 35 68  1  0  0  0
 36 56  1  0  0  0
 36106  1  0  0  0
 37 39  1  0  0  0
 37 47  1  0  0  0
 37 66  1  0  0  0
 37107  1  0  0  0
 38 43  2  0  0  0
 38 46  1  0  0  0
 38 47  1  0  0  0
 39 64  1  0  0  0
 39 67  2  0  0  0
 40 52  1  0  0  0
 40 53  2  0  0  0
 40 58  1  0  0  0
 41108  1  0  0  0
 41109  1  0  0  0
 41110  1  0  0  0
 41 48  1  0  0  0
 42 43  1  0  0  0
 42 66  1  0  0  0
 42111  1  0  0  0
 42112  1  0  0  0
 43 44  1  0  0  0
 44113  1  0  0  0
 45 46  2  0  0  0
 45114  1  0  0  0
 46115  1  0  0  0
 47116  1  0  0  0
 47117  1  0  0  0
 48 56  1  0  0  0
 48 65  1  0  0  0
 48118  1  0  0  0
 49 50  1  0  0  0
 49 53  1  0  0  0
 49 64  1  0  0  0
 49119  1  0  0  0
 50 51  1  0  0  0
 50120  1  0  0  0
 50121  1  0  0  0
 51 52  1  0  0  0
 51122  1  0  0  0
 51123  1  0  0  0
 52124  1  0  0  0
 52125  1  0  0  0
 53 54  1  0  0  0
 54 55  2  0  0  0
 54126  1  0  0  0
 55 57  1  0  0  0
 55127  1  0  0  0
 56 69  2  0  0  0
 57 58  2  0  0  0
 57128  1  0  0  0
 58129  1  0  0  0
 59 60  1  0  0  0
 59 61  1  0  0  0
 59 62  1  0  0  0
 60130  1  0  0  0
 60131  1  0  0  0
 60132  1  0  0  0
 61133  1  0  0  0
 61134  1  0  0  0
 61135  1  0  0  0
 62136  1  0  0  0
 62137  1  0  0  0
 62138  1  0  0  0
 63 65  1  0  0  0
 63139  1  0  0  0
 63140  1  0  0  0
 63141  1  0  0  0
 64142  1  0  0  0
 65143  1  0  0  0
 68 80  1  0  0  0
 71 72  1  0  0  0
 71 73  2  0  0  0
 71 75  1  0  0  0
 72 74  2  0  0  0
 72 78  1  0  0  0
 73 79  1  0  0  0
 73 84  1  0  0  0
 74 81  1  0  0  0
 74 84  1  0  0  0
 75144  1  0  0  0
 75145  1  0  0  0
 75146  1  0  0  0
 76 79  1  0  0  0
 76147  1  0  0  0
 76148  1  0  0  0
 76149  1  0  0  0
 77150  1  0  0  0
 77151  1  0  0  0
 77152  1  0  0  0
 77 81  1  0  0  0
 78 80  1  0  0  0
 78153  1  0  0  0
 78154  1  0  0  0
 79155  1  0  0  0
 79156  1  0  0  0
 80157  1  0  0  0
 80158  1  0  0  0
 81 83  1  0  0  0
 81159  1  0  0  0
 82 83  1  0  0  0
 82160  1  0  0  0
 83161  1  0  0  0
 83162  1  0  0  0
M  CHG  1  83   1
M  ISO  4   1 100  68 101  80 101  82 100
M  END
> <chiral flag>
0

> <version>
0

> <s_m_source_file>
/data/baiqing/PycharmProjects/Reinvent-master-3.2/result/LINK_invent/BTK/process_docking_weight1_custom_sum_contain_oxygen_bond_distance_aromatic_linkinvent_7_9_3/rearranged_h_0099.sdf

> <i_m_source_file_index>
24

> <r_mmod_Potential_Energy-OPLS-2005>
445.184112548828

> <r_mmod_Stretch_Energy-OPLS-2005>
352.390014648438

> <r_mmod_Bend_Energy-OPLS-2005>
369.297943115234

> <r_mmod_Torsional_Energy-OPLS-2005>
236.322052001953

> <r_mmod_Improper_Torsional_Energy-OPLS-2005>
6.9268593788147

> <r_mmod_Van_der_Waal_Energy-OPLS-2005>
119.734107971191

> <r_mmod_Electrostatic_Energy-OPLS-2005>
-422.100280761719

> <r_mmod_Solvation_Energy-OPLS-2005>
-452.991088867188

> <b_mmod_Minimization_Converged-OPLS-2005>
0

> <r_mmod_RMS_Derivative-OPLS-2005>
1.47326302528381

$$$$
24
                    3D
 Structure written by MMmdl.
160168  0  0  1  0            999 V2000
  -30.5018  -15.0282   20.3893 C   0  0  0  0  0  0
  -30.4392  -12.6322   19.5287 C   0  0  0  0  0  0
  -29.5329  -12.5416   18.2774 C   0  0  0  0  0  0
  -28.0652  -12.3193   18.6872 C   0  0  0  0  0  0
  -27.6283  -13.2577   19.8424 C   0  0  2  0  0  0
  -28.6632  -13.3151   20.9871 C   0  0  0  0  0  0
  -25.2445  -13.8237   20.5723 C   0  0  0  0  0  0
  -24.1772  -13.0444   20.9228 C   0  0  0  0  0  0
  -24.6402  -11.6935   20.8752 C   0  0  0  0  0  0
  -23.9091  -10.4295   21.0402 C   0  0  0  0  0  0
  -24.3638   -9.4210   21.9183 C   0  0  0  0  0  0
  -23.6304   -8.2249   22.0760 C   0  0  0  0  0  0
  -22.4281   -8.0291   21.3549 C   0  0  0  0  0  0
  -21.9920   -9.0268   20.4651 C   0  0  0  0  0  0
  -22.7261  -10.2138   20.3057 C   0  0  0  0  0  0
  -21.6857   -6.0744   22.5276 C   0  0  0  0  0  0
  -21.4023   -6.5645   23.8211 C   0  0  0  0  0  0
  -21.3657   -5.6793   24.9171 C   0  0  0  0  0  0
  -21.6041   -4.3058   24.7219 C   0  0  0  0  0  0
  -21.8821   -3.8152   23.4338 C   0  0  0  0  0  0
  -21.9194   -4.6970   22.3395 C   0  0  0  0  0  0
  -22.7787  -13.5208   21.1872 C   0  0  0  0  0  0
  -22.1662   -4.2159   21.0971 F   0  0  0  0  0  0
  -21.5620   -3.4541   25.7730 F   0  0  0  0  0  0
  -29.9352  -13.7457   20.3941 N   0  0  0  0  0  0
  -26.2877  -12.9487   20.3255 N   0  0  0  0  0  0
  -25.9338  -11.6604   20.5735 N   0  0  0  0  0  0
  -22.0438  -12.8202   22.0430 N   0  0  0  0  0  0
  -25.4098  -15.1971   20.4156 N   0  0  0  0  0  0
  -31.6897  -15.0882   20.0499 O   0  0  0  0  0  0
  -21.6646   -6.8888   21.4241 O   0  0  0  0  0  0
  -22.3464  -14.5506   20.6705 O   0  0  0  0  0  0
  -24.6474  -31.8361   23.1814 C   0  0  0  0  0  0
  -25.9224  -32.4650   23.8227 C   0  0  1  0  0  0
  -27.2263  -27.0801   20.1617 C   0  0  0  0  0  0
  -25.5951  -33.8458   24.2144 N   0  0  0  0  0  0
  -23.4548  -30.4504   21.5258 C   0  0  2  0  0  0
  -24.9074  -28.8614   20.1052 C   0  0  0  0  0  0
  -22.7589  -29.4497   22.4825 C   0  0  0  0  0  0
  -18.0306  -28.1393   22.8472 C   0  0  0  0  0  0
  -24.1492  -36.7239   23.2645 C   0  0  0  0  0  0
  -26.0117  -30.6915   21.3879 C   0  0  0  0  0  0
  -26.0815  -29.2962   20.7305 C   0  0  0  0  0  0
  -27.2350  -28.4201   20.7414 C   0  0  0  0  0  0
  -26.0285  -26.7534   19.4919 C   0  0  0  0  0  0
  -24.8970  -27.6067   19.4698 C   0  0  0  0  0  0
  -23.6848  -29.7698   20.1474 C   0  0  0  0  0  0
  -25.4126  -36.3003   24.0309 C   0  0  1  0  0  0
  -20.5921  -28.3721   23.1221 C   0  0  2  0  0  0
  -20.6781  -26.9416   22.5405 C   0  0  0  0  0  0
  -19.5758  -26.6372   21.5210 C   0  0  0  0  0  0
  -18.1941  -26.7929   22.1623 C   0  0  0  0  0  0
  -19.1565  -28.8877   23.2836 C   0  0  0  0  0  0
  -18.9480  -30.1471   23.8866 C   0  0  0  0  0  0
  -17.6476  -30.6588   24.0555 C   0  0  0  0  0  0
  -25.9079  -34.9382   23.5043 C   0  0  0  0  0  0
  -16.5366  -29.9080   23.6335 C   0  0  0  0  0  0
  -16.7290  -28.6499   23.0357 C   0  0  0  0  0  0
  -26.4533  -31.6548   25.0700 C   0  0  0  0  0  0
  -25.3702  -31.3761   26.1388 C   0  0  0  0  0  0
  -27.0412  -30.2933   24.6336 C   0  0  0  0  0  0
  -27.6046  -32.4335   25.7492 C   0  0  0  0  0  0
  -27.5571  -37.1775   24.8463 C   0  0  0  0  0  0
  -21.4273  -29.3036   22.3586 N   0  0  0  0  0  0
  -26.4282  -37.3724   23.9405 N   0  0  0  0  0  0
  -24.7245  -31.0164   22.0865 N   0  0  0  0  0  0
  -23.4208  -28.8056   23.3004 O   0  0  0  0  0  0
  -28.2915  -26.1006   20.2927 O   0  0  0  0  0  0
  -26.5678  -34.8894   22.4628 O   0  0  0  0  0  0
  -23.5583  -32.1261   23.7007 O   0  0  0  0  0  0
  -28.6296  -20.3317   20.0421 C   0  0  0  0  0  0
  -29.5605  -19.2745   20.3286 C   0  0  0  0  0  0
  -30.5205  -20.0695   21.0319 C   0  0  0  0  0  0
  -30.2296  -21.4336   21.0987 C   0  0  0  0  0  0
  -33.1762  -23.9429   21.5485 C   0  0  0  0  0  0
  -30.8582  -22.5162   23.2740 C   0  0  0  0  0  0
  -29.7626  -17.6619   19.8381 C   0  0  0  0  0  0
  -32.4867  -22.5932   21.3053 C   0  0  0  0  0  0
  -28.1653  -23.0880   20.5765 C   0  0  0  0  0  0
  -28.4031  -24.5979   19.7945 C   0  0  0  0  0  0
  -31.0065  -22.5550   21.7451 C   0  0  1  0  0  0
  -28.9856  -21.6876   20.4971 N   0  0  0  0  0  0
  -29.7177  -16.2246   20.5495 N   0  0  0  0  0  0
  -31.9489  -19.3556   21.6904 Cl  0  0  0  0  0  0
  -31.4750  -12.7868   19.2243 H   0  0  0  0  0  0
  -30.4360  -11.6894   20.0783 H   0  0  0  0  0  0
  -29.8679  -11.7345   17.6244 H   0  0  0  0  0  0
  -29.6189  -13.4611   17.6963 H   0  0  0  0  0  0
  -27.9674  -11.2798   19.0027 H   0  0  0  0  0  0
  -27.4068  -12.4393   17.8259 H   0  0  0  0  0  0
  -27.5843  -14.2552   19.4038 H   0  0  0  0  0  0
  -28.7615  -12.3471   21.4817 H   0  0  0  0  0  0
  -28.3462  -14.0233   21.7540 H   0  0  0  0  0  0
  -25.2782   -9.5686   22.4759 H   0  0  0  0  0  0
  -24.0013   -7.4641   22.7483 H   0  0  0  0  0  0
  -21.0852   -8.8797   19.8956 H   0  0  0  0  0  0
  -22.3728  -10.9684   19.6167 H   0  0  0  0  0  0
  -21.2028   -7.6155   23.9719 H   0  0  0  0  0  0
  -21.1472   -6.0520   25.9073 H   0  0  0  0  0  0
  -22.0602   -2.7616   23.2829 H   0  0  0  0  0  0
  -22.4063  -11.9880   22.4840 H   0  0  0  0  0  0
  -21.1050  -13.1222   22.2626 H   0  0  0  0  0  0
  -24.6379  -15.8462   20.5267 H   0  0  0  0  0  0
  -26.2466  -15.6391   20.0587 H   0  0  0  0  0  0
  -26.7287  -32.5234   23.0947 H   0  0  0  0  0  0
  -25.0056  -33.9555   25.0266 H   0  0  0  0  0  0
  -22.7599  -31.2775   21.3644 H   0  0  0  0  0  0
  -23.3757  -35.9567   23.3287 H   0  0  0  0  0  0
  -24.3574  -36.8898   22.2063 H   0  0  0  0  0  0
  -23.7250  -37.6426   23.6706 H   0  0  0  0  0  0
  -26.1752  -31.4427   20.6141 H   0  0  0  0  0  0
  -26.8787  -30.7431   22.0351 H   0  0  0  0  0  0
  -28.1264  -28.7464   21.2586 H   0  0  0  0  0  0
  -25.9353  -25.7866   19.0202 H   0  0  0  0  0  0
  -23.9992  -27.2681   18.9708 H   0  0  0  0  0  0
  -23.8249  -30.5403   19.3883 H   0  0  0  0  0  0
  -22.7990  -29.2123   19.8376 H   0  0  0  0  0  0
  -25.1320  -36.1814   25.0800 H   0  0  0  0  0  0
  -21.0013  -28.3318   24.1341 H   0  0  0  0  0  0
  -20.5653  -26.2338   23.3632 H   0  0  0  0  0  0
  -21.6648  -26.7397   22.1217 H   0  0  0  0  0  0
  -19.6914  -25.6273   21.1260 H   0  0  0  0  0  0
  -19.6697  -27.3163   20.6724 H   0  0  0  0  0  0
  -17.4207  -26.6670   21.4029 H   0  0  0  0  0  0
  -18.0342  -26.0076   22.9025 H   0  0  0  0  0  0
  -19.7955  -30.7294   24.2222 H   0  0  0  0  0  0
  -17.5027  -31.6265   24.5162 H   0  0  0  0  0  0
  -15.5364  -30.2973   23.7672 H   0  0  0  0  0  0
  -15.8691  -28.0804   22.7093 H   0  0  0  0  0  0
  -24.5883  -30.7107   25.7709 H   0  0  0  0  0  0
  -24.8892  -32.2951   26.4744 H   0  0  0  0  0  0
  -25.7972  -30.8976   27.0211 H   0  0  0  0  0  0
  -26.3046  -29.6634   24.1334 H   0  0  0  0  0  0
  -27.3985  -29.7262   25.4943 H   0  0  0  0  0  0
  -27.8970  -30.4148   23.9693 H   0  0  0  0  0  0
  -27.2624  -33.3660   26.1994 H   0  0  0  0  0  0
  -28.3899  -32.6859   25.0352 H   0  0  0  0  0  0
  -28.0671  -31.8513   26.5473 H   0  0  0  0  0  0
  -28.2574  -38.0082   24.7505 H   0  0  0  0  0  0
  -28.1081  -36.2610   24.6296 H   0  0  0  0  0  0
  -27.2287  -37.1426   25.8865 H   0  0  0  0  0  0
  -20.9497  -29.8747   21.6755 H   0  0  0  0  0  0
  -26.0139  -38.2787   24.1411 H   0  0  0  0  0  0
  -27.6922  -20.2372   19.5102 H   0  0  0  0  0  0
  -34.1983  -23.9250   21.1689 H   0  0  0  0  0  0
  -33.2274  -24.1839   22.6101 H   0  0  0  0  0  0
  -32.6518  -24.7541   21.0435 H   0  0  0  0  0  0
  -29.8089  -22.5770   23.5635 H   0  0  0  0  0  0
  -31.3730  -23.3480   23.7534 H   0  0  0  0  0  0
  -31.2600  -21.5915   23.6893 H   0  0  0  0  0  0
  -30.7351  -17.6741   19.3441 H   0  0  0  0  0  0
  -29.0588  -17.5579   19.0121 H   0  0  0  0  0  0
  -33.0590  -21.8075   21.7963 H   0  0  0  0  0  0
  -32.5399  -22.3843   20.2357 H   0  0  0  0  0  0
  -27.1238  -22.8242   20.3962 H   0  0  0  0  0  0
  -28.1688  -23.3375   21.6376 H   0  0  0  0  0  0
  -27.8527  -24.5463   18.8555 H   0  0  0  0  0  0
  -29.4413  -24.5530   19.4669 H   0  0  0  0  0  0
  -30.5834  -23.5025   21.4149 H   0  0  0  0  0  0
  -28.8113  -16.0271   20.9461 H   0  0  0  0  0  0
  1 25  1  0  0  0
  1 30  2  0  0  0
  1 83  1  0  0  0
  2  3  1  0  0  0
  2 25  1  0  0  0
  2 85  1  0  0  0
  2 86  1  0  0  0
  3  4  1  0  0  0
  3 87  1  0  0  0
  3 88  1  0  0  0
  4  5  1  0  0  0
  4 89  1  0  0  0
  4 90  1  0  0  0
  5  6  1  0  0  0
  5 26  1  0  0  0
  5 91  1  0  0  0
  6 25  1  0  0  0
  6 92  1  0  0  0
  6 93  1  0  0  0
  7  8  2  0  0  0
  7 26  1  0  0  0
  7 29  1  0  0  0
  8  9  1  0  0  0
  8 22  1  0  0  0
  9 10  1  0  0  0
  9 27  2  0  0  0
 10 11  2  0  0  0
 10 15  1  0  0  0
 11 12  1  0  0  0
 11 94  1  0  0  0
 12 13  2  0  0  0
 12 95  1  0  0  0
 13 14  1  0  0  0
 13 31  1  0  0  0
 14 15  2  0  0  0
 14 96  1  0  0  0
 15 97  1  0  0  0
 16 17  2  0  0  0
 16 21  1  0  0  0
 16 31  1  0  0  0
 17 18  1  0  0  0
 17 98  1  0  0  0
 18 19  2  0  0  0
 18 99  1  0  0  0
 19 20  1  0  0  0
 19 24  1  0  0  0
 20 21  2  0  0  0
 20100  1  0  0  0
 21 23  1  0  0  0
 22 28  1  0  0  0
 22 32  2  0  0  0
 26 27  1  0  0  0
 28101  1  0  0  0
 28102  1  0  0  0
 29103  1  0  0  0
 29104  1  0  0  0
 33 34  1  0  0  0
 33 66  1  0  0  0
 33 70  2  0  0  0
 34 36  1  0  0  0
 34 59  1  0  0  0
 34105  1  0  0  0
 35 44  2  0  0  0
 35 45  1  0  0  0
 35 68  1  0  0  0
 36 56  1  0  0  0
 36106  1  0  0  0
 37 39  1  0  0  0
 37 47  1  0  0  0
 37 66  1  0  0  0
 37107  1  0  0  0
 38 43  2  0  0  0
 38 46  1  0  0  0
 38 47  1  0  0  0
 39 64  1  0  0  0
 39 67  2  0  0  0
 40 52  1  0  0  0
 40 53  2  0  0  0
 40 58  1  0  0  0
 41108  1  0  0  0
 41109  1  0  0  0
 41110  1  0  0  0
 41 48  1  0  0  0
 42 43  1  0  0  0
 42 66  1  0  0  0
 42111  1  0  0  0
 42112  1  0  0  0
 43 44  1  0  0  0
 44113  1  0  0  0
 45 46  2  0  0  0
 45114  1  0  0  0
 46115  1  0  0  0
 47116  1  0  0  0
 47117  1  0  0  0
 48 56  1  0  0  0
 48 65  1  0  0  0
 48118  1  0  0  0
 49 50  1  0  0  0
 49 53  1  0  0  0
 49 64  1  0  0  0
 49119  1  0  0  0
 50 51  1  0  0  0
 50120  1  0  0  0
 50121  1  0  0  0
 51 52  1  0  0  0
 51122  1  0  0  0
 51123  1  0  0  0
 52124  1  0  0  0
 52125  1  0  0  0
 53 54  1  0  0  0
 54 55  2  0  0  0
 54126  1  0  0  0
 55 57  1  0  0  0
 55127  1  0  0  0
 56 69  2  0  0  0
 57 58  2  0  0  0
 57128  1  0  0  0
 58129  1  0  0  0
 59 60  1  0  0  0
 59 61  1  0  0  0
 59 62  1  0  0  0
 60130  1  0  0  0
 60131  1  0  0  0
 60132  1  0  0  0
 61133  1  0  0  0
 61134  1  0  0  0
 61135  1  0  0  0
 62136  1  0  0  0
 62137  1  0  0  0
 62138  1  0  0  0
 63 65  1  0  0  0
 63139  1  0  0  0
 63140  1  0  0  0
 63141  1  0  0  0
 64142  1  0  0  0
 65143  1  0  0  0
 68 80  1  0  0  0
 71 72  2  0  0  0
 71 82  1  0  0  0
 71144  1  0  0  0
 72 73  1  0  0  0
 72 77  1  0  0  0
 73 74  2  0  0  0
 73 84  1  0  0  0
 74 81  1  0  0  0
 74 82  1  0  0  0
 75 78  1  0  0  0
 75145  1  0  0  0
 75146  1  0  0  0
 75147  1  0  0  0
 76148  1  0  0  0
 76149  1  0  0  0
 76150  1  0  0  0
 76 81  1  0  0  0
 77 83  1  0  0  0
 77151  1  0  0  0
 77152  1  0  0  0
 78 81  1  0  0  0
 78153  1  0  0  0
 78154  1  0  0  0
 79 80  1  0  0  0
 79 82  1  0  0  0
 79155  1  0  0  0
 79156  1  0  0  0
 80157  1  0  0  0
 80158  1  0  0  0
 81159  1  0  0  0
 83160  1  0  0  0
M  ISO  4   1 100  68 101  80 101  83 100
M  END
> <chiral flag>
0

> <version>
0

> <s_m_source_file>
/data/baiqing/PycharmProjects/Reinvent-master-3.2/result/LINK_invent/BTK/process_docking_weight1_custom_sum_contain_oxygen_bond_distance_aromatic_linkinvent_7_9_3/rearranged_h_0099.sdf

> <i_m_source_file_index>
25

> <r_mmod_Potential_Energy-OPLS-2005>
714.671752929688

> <r_mmod_Stretch_Energy-OPLS-2005>
330.127014160156

> <r_mmod_Bend_Energy-OPLS-2005>
362.432250976562

> <r_mmod_Torsional_Energy-OPLS-2005>
250.0810546875

> <r_mmod_Improper_Torsional_Energy-OPLS-2005>
9.35214900970459

> <r_mmod_Van_der_Waal_Energy-OPLS-2005>
103.896301269531

> <r_mmod_Electrostatic_Energy-OPLS-2005>
-371.498443603516

> <r_mmod_Solvation_Energy-OPLS-2005>
-218.046112060547

> <b_mmod_Minimization_Converged-OPLS-2005>
0

> <r_mmod_RMS_Derivative-OPLS-2005>
0.900564134120941

$$$$
25
                    3D
 Structure written by MMmdl.
173181  0  0  1  0            999 V2000
  -30.7356  -14.4382   20.6436 C   0  0  0  0  0  0
  -30.4258  -12.3165   19.4059 C   0  0  0  0  0  0
  -29.4919  -12.5280   18.1976 C   0  0  0  0  0  0
  -28.0148  -12.3795   18.6123 C   0  0  0  0  0  0
  -27.6642  -13.2060   19.8774 C   0  0  2  0  0  0
  -28.7061  -12.9675   20.9924 C   0  0  0  0  0  0
  -25.2592  -13.8159   20.5685 C   0  0  0  0  0  0
  -24.1837  -13.0432   20.9145 C   0  0  0  0  0  0
  -24.6396  -11.6898   20.8699 C   0  0  0  0  0  0
  -23.9062  -10.4291   21.0383 C   0  0  0  0  0  0
  -24.3606   -9.4203   21.9165 C   0  0  0  0  0  0
  -23.6277   -8.2250   22.0754 C   0  0  0  0  0  0
  -22.4257   -8.0276   21.3538 C   0  0  0  0  0  0
  -21.9892   -9.0260   20.4649 C   0  0  0  0  0  0
  -22.7228  -10.2131   20.3036 C   0  0  0  0  0  0
  -21.6854   -6.0728   22.5265 C   0  0  0  0  0  0
  -21.4021   -6.5632   23.8202 C   0  0  0  0  0  0
  -21.3661   -5.6781   24.9163 C   0  0  0  0  0  0
  -21.6032   -4.3046   24.7211 C   0  0  0  0  0  0
  -21.8812   -3.8144   23.4335 C   0  0  0  0  0  0
  -21.9199   -4.6964   22.3392 C   0  0  0  0  0  0
  -22.7856  -13.5236   21.1795 C   0  0  0  0  0  0
  -22.1662   -4.2153   21.0968 F   0  0  0  0  0  0
  -21.5629   -3.4517   25.7722 F   0  0  0  0  0  0
  -30.0407  -13.2837   20.4460 N   0  0  0  0  0  0
  -26.3032  -12.9326   20.3366 N   0  0  0  0  0  0
  -25.9324  -11.6480   20.5733 N   0  0  0  0  0  0
  -22.0493  -12.8241   22.0355 N   0  0  0  0  0  0
  -25.4278  -15.1886   20.4130 N   0  0  0  0  0  0
  -31.8114  -14.6703   20.0852 O   0  0  0  0  0  0
  -21.6632   -6.8866   21.4227 O   0  0  0  0  0  0
  -22.3551  -14.5551   20.6659 O   0  0  0  0  0  0
  -24.6136  -31.8686   23.2093 C   0  0  0  0  0  0
  -25.9030  -32.4830   23.8380 C   0  0  1  0  0  0
  -27.2355  -27.4278   20.0988 C   0  0  0  0  0  0
  -25.5892  -33.8628   24.2322 N   0  0  0  0  0  0
  -23.4015  -30.4918   21.5506 C   0  0  2  0  0  0
  -24.8493  -28.9573   20.1184 C   0  0  0  0  0  0
  -22.7392  -29.4666   22.4988 C   0  0  0  0  0  0
  -18.0264  -28.1377   22.8487 C   0  0  0  0  0  0
  -24.1493  -36.7318   23.2634 C   0  0  0  0  0  0
  -25.9313  -30.8336   21.3626 C   0  0  0  0  0  0
  -26.0106  -29.4662   20.7120 C   0  0  0  0  0  0
  -27.2072  -28.7103   20.6979 C   0  0  0  0  0  0
  -26.0550  -26.9434   19.4886 C   0  0  0  0  0  0
  -24.8661  -27.6943   19.5050 C   0  0  0  0  0  0
  -23.6106  -29.8220   20.1666 C   0  0  0  0  0  0
  -25.4113  -36.3122   24.0338 C   0  0  1  0  0  0
  -20.5854  -28.3666   23.1322 C   0  0  2  0  0  0
  -20.6765  -26.9403   22.5424 C   0  0  0  0  0  0
  -19.5751  -26.6389   21.5211 C   0  0  0  0  0  0
  -18.1922  -26.7926   22.1613 C   0  0  0  0  0  0
  -19.1514  -28.8834   23.2904 C   0  0  0  0  0  0
  -18.9449  -30.1440   23.8915 C   0  0  0  0  0  0
  -17.6457  -30.6589   24.0561 C   0  0  0  0  0  0
  -25.9037  -34.9486   23.5130 C   0  0  0  0  0  0
  -16.5344  -29.9094   23.6327 C   0  0  0  0  0  0
  -16.7257  -28.6508   23.0349 C   0  0  0  0  0  0
  -26.4466  -31.6602   25.0699 C   0  0  0  0  0  0
  -25.3727  -31.3726   26.1444 C   0  0  0  0  0  0
  -27.0286  -30.3040   24.6073 C   0  0  0  0  0  0
  -27.6050  -32.4307   25.7459 C   0  0  0  0  0  0
  -27.5594  -37.1804   24.8457 C   0  0  0  0  0  0
  -21.4122  -29.3036   22.3727 N   0  0  0  0  0  0
  -26.4300  -37.3806   23.9411 N   0  0  0  0  0  0
  -24.6672  -31.0780   22.0995 N   0  0  0  0  0  0
  -23.4168  -28.8196   23.3024 O   0  0  0  0  0  0
  -28.4039  -26.6865   20.0953 O   0  0  0  0  0  0
  -26.5599  -34.8934   22.4690 O   0  0  0  0  0  0
  -23.5328  -32.1430   23.7490 O   0  0  0  0  0  0
  -30.8231  -19.0879   22.1588 C   0  0  0  0  0  0
  -30.4099  -17.9499   21.4286 C   0  0  0  0  0  0
  -29.9006  -18.2131   20.1172 C   0  0  0  0  0  0
  -30.0405  -19.5338   19.5633 C   0  0  0  0  0  0
  -30.4570  -20.5875   20.4323 C   0  0  0  0  0  0
  -29.1813  -17.1275   19.3203 C   0  0  0  0  0  0
  -31.1767  -20.0066   17.3206 C   0  0  0  0  0  0
  -28.7316  -20.7705   17.6781 C   0  0  0  0  0  0
  -29.7662  -16.5773   23.4504 C   0  0  0  0  0  0
  -32.0816  -16.3956   22.5518 C   0  0  0  0  0  0
  -30.5932  -22.0767   20.0558 C   0  0  0  0  0  0
  -29.4103  -22.9688   20.5189 C   0  0  0  0  0  0
  -29.5540  -24.4757   20.1598 C   0  0  0  0  0  0
  -28.2767  -25.2965   20.4557 C   0  0  0  0  0  0
  -29.8394  -19.7670   18.0471 C   0  0  0  0  0  0
  -30.5946  -16.5614   22.1457 C   0  0  0  0  0  0
  -30.8040  -20.3524   21.7079 N   0  0  0  0  0  0
  -30.1376  -15.3203   21.4732 N   0  0  0  0  0  0
  -31.4691  -12.4206   19.1031 H   0  0  0  0  0  0
  -30.3308  -11.2988   19.7885 H   0  0  0  0  0  0
  -29.7306  -11.8178   17.4040 H   0  0  0  0  0  0
  -29.6566  -13.5225   17.7791 H   0  0  0  0  0  0
  -27.8273  -11.3212   18.7951 H   0  0  0  0  0  0
  -27.3609  -12.6637   17.7868 H   0  0  0  0  0  0
  -27.7136  -14.2557   19.5906 H   0  0  0  0  0  0
  -28.6843  -11.9234   21.3074 H   0  0  0  0  0  0
  -28.4516  -13.5363   21.8879 H   0  0  0  0  0  0
  -25.2758   -9.5677   22.4746 H   0  0  0  0  0  0
  -23.9985   -7.4649   22.7484 H   0  0  0  0  0  0
  -21.0819   -8.8783   19.8970 H   0  0  0  0  0  0
  -22.3690  -10.9670   19.6145 H   0  0  0  0  0  0
  -21.2017   -7.6143   23.9695 H   0  0  0  0  0  0
  -21.1486   -6.0517   25.9058 H   0  0  0  0  0  0
  -22.0596   -2.7610   23.2830 H   0  0  0  0  0  0
  -22.4112  -11.9933   22.4793 H   0  0  0  0  0  0
  -21.1114  -13.1289   22.2530 H   0  0  0  0  0  0
  -24.6602  -15.8371   20.5527 H   0  0  0  0  0  0
  -26.2784  -15.6424   20.1056 H   0  0  0  0  0  0
  -26.7091  -32.5557   23.1136 H   0  0  0  0  0  0
  -25.0042  -33.9787   25.0467 H   0  0  0  0  0  0
  -22.6892  -31.3079   21.4096 H   0  0  0  0  0  0
  -23.3764  -35.9642   23.3292 H   0  0  0  0  0  0
  -24.3590  -36.8934   22.2050 H   0  0  0  0  0  0
  -23.7232  -37.6516   23.6646 H   0  0  0  0  0  0
  -26.0375  -31.5986   20.5918 H   0  0  0  0  0  0
  -26.8214  -30.8913   21.9780 H   0  0  0  0  0  0
  -28.1036  -29.1018   21.1586 H   0  0  0  0  0  0
  -26.0352  -25.9930   18.9769 H   0  0  0  0  0  0
  -23.9744  -27.2989   19.0385 H   0  0  0  0  0  0
  -23.7147  -30.5933   19.4027 H   0  0  0  0  0  0
  -22.7367  -29.2373   19.8751 H   0  0  0  0  0  0
  -25.1289  -36.1987   25.0832 H   0  0  0  0  0  0
  -20.9944  -28.3241   24.1443 H   0  0  0  0  0  0
  -20.5676  -26.2269   23.3606 H   0  0  0  0  0  0
  -21.6638  -26.7465   22.1213 H   0  0  0  0  0  0
  -19.6922  -25.6306   21.1231 H   0  0  0  0  0  0
  -19.6703  -27.3207   20.6749 H   0  0  0  0  0  0
  -17.4198  -26.6671   21.4008 H   0  0  0  0  0  0
  -18.0327  -26.0067   22.9008 H   0  0  0  0  0  0
  -19.7929  -30.7243   24.2302 H   0  0  0  0  0  0
  -17.5021  -31.6274   24.5155 H   0  0  0  0  0  0
  -15.5350  -30.3009   23.7649 H   0  0  0  0  0  0
  -15.8648  -28.0844   22.7060 H   0  0  0  0  0  0
  -24.5896  -30.7079   25.7779 H   0  0  0  0  0  0
  -24.8924  -32.2897   26.4866 H   0  0  0  0  0  0
  -25.8071  -30.8903   27.0209 H   0  0  0  0  0  0
  -26.2826  -29.6803   24.1134 H   0  0  0  0  0  0
  -27.4059  -29.7272   25.4528 H   0  0  0  0  0  0
  -27.8660  -30.4346   23.9213 H   0  0  0  0  0  0
  -27.2684  -33.3604   26.2056 H   0  0  0  0  0  0
  -28.3851  -32.6866   25.0278 H   0  0  0  0  0  0
  -28.0720  -31.8409   26.5354 H   0  0  0  0  0  0
  -28.2600  -38.0116   24.7538 H   0  0  0  0  0  0
  -28.1101  -36.2648   24.6239 H   0  0  0  0  0  0
  -27.2313  -37.1405   25.8859 H   0  0  0  0  0  0
  -20.9269  -29.8753   21.6953 H   0  0  0  0  0  0
  -26.0195  -38.2882   24.1430 H   0  0  0  0  0  0
  -31.1914  -18.9976   23.1682 H   0  0  0  0  0  0
  -28.6149  -16.4683   19.9699 H   0  0  0  0  0  0
  -29.8789  -16.5492   18.7149 H   0  0  0  0  0  0
  -28.4005  -17.5281   18.6769 H   0  0  0  0  0  0
  -31.8496  -19.1623   17.4763 H   0  0  0  0  0  0
  -31.7081  -20.8965   17.6477 H   0  0  0  0  0  0
  -31.0255  -20.0953   16.2441 H   0  0  0  0  0  0
  -27.7980  -20.5275   18.1863 H   0  0  0  0  0  0
  -28.5297  -20.7334   16.6067 H   0  0  0  0  0  0
  -28.9750  -21.8052   17.8999 H   0  0  0  0  0  0
  -30.0912  -17.3501   24.1465 H   0  0  0  0  0  0
  -29.8480  -15.6332   23.9932 H   0  0  0  0  0  0
  -28.7079  -16.7522   23.2520 H   0  0  0  0  0  0
  -32.4028  -17.1287   23.2916 H   0  0  0  0  0  0
  -32.7435  -16.5085   21.6934 H   0  0  0  0  0  0
  -32.2774  -15.4161   22.9909 H   0  0  0  0  0  0
  -30.7608  -22.2142   18.9945 H   0  0  0  0  0  0
  -31.5087  -22.4548   20.5146 H   0  0  0  0  0  0
  -29.2926  -22.8722   21.5983 H   0  0  0  0  0  0
  -28.4881  -22.5813   20.0855 H   0  0  0  0  0  0
  -29.7911  -24.5737   19.1000 H   0  0  0  0  0  0
  -30.3982  -24.9041   20.7018 H   0  0  0  0  0  0
  -28.0380  -25.2362   21.5187 H   0  0  0  0  0  0
  -27.4615  -24.8064   19.9291 H   0  0  0  0  0  0
  -29.5072  -18.8490   17.5758 H   0  0  0  0  0  0
  -29.2438  -14.9880   21.8007 H   0  0  0  0  0  0
  1 25  1  0  0  0
  1 30  2  0  0  0
  1 88  1  0  0  0
  2  3  1  0  0  0
  2 25  1  0  0  0
  2 89  1  0  0  0
  2 90  1  0  0  0
  3  4  1  0  0  0
  3 91  1  0  0  0
  3 92  1  0  0  0
  4  5  1  0  0  0
  4 93  1  0  0  0
  4 94  1  0  0  0
  5  6  1  0  0  0
  5 26  1  0  0  0
  5 95  1  0  0  0
  6 25  1  0  0  0
  6 96  1  0  0  0
  6 97  1  0  0  0
  7  8  2  0  0  0
  7 26  1  0  0  0
  7 29  1  0  0  0
  8  9  1  0  0  0
  8 22  1  0  0  0
  9 10  1  0  0  0
  9 27  2  0  0  0
 10 11  2  0  0  0
 10 15  1  0  0  0
 11 12  1  0  0  0
 11 98  1  0  0  0
 12 13  2  0  0  0
 12 99  1  0  0  0
 13 14  1  0  0  0
 13 31  1  0  0  0
 14 15  2  0  0  0
 14100  1  0  0  0
 15101  1  0  0  0
 16 17  2  0  0  0
 16 21  1  0  0  0
 16 31  1  0  0  0
 17 18  1  0  0  0
 17102  1  0  0  0
 18 19  2  0  0  0
 18103  1  0  0  0
 19 20  1  0  0  0
 19 24  1  0  0  0
 20 21  2  0  0  0
 20104  1  0  0  0
 21 23  1  0  0  0
 22 28  1  0  0  0
 22 32  2  0  0  0
 26 27  1  0  0  0
 28105  1  0  0  0
 28106  1  0  0  0
 29107  1  0  0  0
 29108  1  0  0  0
 33 34  1  0  0  0
 33 66  1  0  0  0
 33 70  2  0  0  0
 34 36  1  0  0  0
 34 59  1  0  0  0
 34109  1  0  0  0
 35 44  2  0  0  0
 35 45  1  0  0  0
 35 68  1  0  0  0
 36 56  1  0  0  0
 36110  1  0  0  0
 37 39  1  0  0  0
 37 47  1  0  0  0
 37 66  1  0  0  0
 37111  1  0  0  0
 38 43  2  0  0  0
 38 46  1  0  0  0
 38 47  1  0  0  0
 39 64  1  0  0  0
 39 67  2  0  0  0
 40 52  1  0  0  0
 40 53  2  0  0  0
 40 58  1  0  0  0
 41112  1  0  0  0
 41113  1  0  0  0
 41114  1  0  0  0
 41 48  1  0  0  0
 42 43  1  0  0  0
 42 66  1  0  0  0
 42115  1  0  0  0
 42116  1  0  0  0
 43 44  1  0  0  0
 44117  1  0  0  0
 45 46  2  0  0  0
 45118  1  0  0  0
 46119  1  0  0  0
 47120  1  0  0  0
 47121  1  0  0  0
 48 56  1  0  0  0
 48 65  1  0  0  0
 48122  1  0  0  0
 49 50  1  0  0  0
 49 53  1  0  0  0
 49 64  1  0  0  0
 49123  1  0  0  0
 50 51  1  0  0  0
 50124  1  0  0  0
 50125  1  0  0  0
 51 52  1  0  0  0
 51126  1  0  0  0
 51127  1  0  0  0
 52128  1  0  0  0
 52129  1  0  0  0
 53 54  1  0  0  0
 54 55  2  0  0  0
 54130  1  0  0  0
 55 57  1  0  0  0
 55131  1  0  0  0
 56 69  2  0  0  0
 57 58  2  0  0  0
 57132  1  0  0  0
 58133  1  0  0  0
 59 60  1  0  0  0
 59 61  1  0  0  0
 59 62  1  0  0  0
 60134  1  0  0  0
 60135  1  0  0  0
 60136  1  0  0  0
 61137  1  0  0  0
 61138  1  0  0  0
 61139  1  0  0  0
 62140  1  0  0  0
 62141  1  0  0  0
 62142  1  0  0  0
 63 65  1  0  0  0
 63143  1  0  0  0
 63144  1  0  0  0
 63145  1  0  0  0
 64146  1  0  0  0
 65147  1  0  0  0
 68 84  1  0  0  0
 71 72  2  0  0  0
 71 87  1  0  0  0
 71148  1  0  0  0
 72 73  1  0  0  0
 72 86  1  0  0  0
 73 74  2  0  0  0
 73 76  1  0  0  0
 74 75  1  0  0  0
 74 85  1  0  0  0
 75 81  1  0  0  0
 75 87  2  0  0  0
 76149  1  0  0  0
 76150  1  0  0  0
 76151  1  0  0  0
 77152  1  0  0  0
 77153  1  0  0  0
 77154  1  0  0  0
 77 85  1  0  0  0
 78 85  1  0  0  0
 78155  1  0  0  0
 78156  1  0  0  0
 78157  1  0  0  0
 79158  1  0  0  0
 79159  1  0  0  0
 79160  1  0  0  0
 79 86  1  0  0  0
 80 86  1  0  0  0
 80161  1  0  0  0
 80162  1  0  0  0
 80163  1  0  0  0
 81 82  1  0  0  0
 81164  1  0  0  0
 81165  1  0  0  0
 82 83  1  0  0  0
 82166  1  0  0  0
 82167  1  0  0  0
 83 84  1  0  0  0
 83168  1  0  0  0
 83169  1  0  0  0
 84170  1  0  0  0
 84171  1  0  0  0
 85172  1  0  0  0
 86 88  1  0  0  0
 88173  1  0  0  0
M  ISO  4   1 100  68 101  84 101  88 100
M  END
> <chiral flag>
0

> <version>
0

> <s_m_source_file>
/data/baiqing/PycharmProjects/Reinvent-master-3.2/result/LINK_invent/BTK/process_docking_weight1_custom_sum_contain_oxygen_bond_distance_aromatic_linkinvent_7_9_3/rearranged_h_0099.sdf

> <i_m_source_file_index>
26

> <r_mmod_Potential_Energy-OPLS-2005>
-77.0462951660156

> <r_mmod_Stretch_Energy-OPLS-2005>
52.889347076416

> <r_mmod_Bend_Energy-OPLS-2005>
141.700408935547

> <r_mmod_Torsional_Energy-OPLS-2005>
204.264755249023

> <r_mmod_Improper_Torsional_Energy-OPLS-2005>
2.21300840377808

> <r_mmod_Van_der_Waal_Energy-OPLS-2005>
172.391006469727

> <r_mmod_Electrostatic_Energy-OPLS-2005>
-447.288146972656

> <r_mmod_Solvation_Energy-OPLS-2005>
-213.369888305664

> <b_mmod_Minimization_Converged-OPLS-2005>
0

> <r_mmod_RMS_Derivative-OPLS-2005>
2.03775191307068

$$$$
26
                    3D
 Structure written by MMmdl.
146153  0  0  1  0            999 V2000
  -30.3320  -15.5511   20.3374 C   0  0  0  0  0  0
  -30.4251  -13.0164   19.5390 C   0  0  0  0  0  0
  -29.5467  -12.6348   18.3152 C   0  0  0  0  0  0
  -28.1118  -12.2990   18.7518 C   0  0  0  0  0  0
  -27.5972  -13.2991   19.8132 C   0  0  2  0  0  0
  -28.6167  -13.5993   20.9358 C   0  0  0  0  0  0
  -25.2335  -13.8272   20.5774 C   0  0  0  0  0  0
  -24.1714  -13.0432   20.9278 C   0  0  0  0  0  0
  -24.6402  -11.6940   20.8761 C   0  0  0  0  0  0
  -23.9106  -10.4291   21.0395 C   0  0  0  0  0  0
  -24.3648   -9.4206   21.9174 C   0  0  0  0  0  0
  -23.6314   -8.2244   22.0748 C   0  0  0  0  0  0
  -22.4290   -8.0287   21.3545 C   0  0  0  0  0  0
  -21.9934   -9.0259   20.4641 C   0  0  0  0  0  0
  -22.7272  -10.2132   20.3049 C   0  0  0  0  0  0
  -21.6860   -6.0742   22.5279 C   0  0  0  0  0  0
  -21.4020   -6.5643   23.8212 C   0  0  0  0  0  0
  -21.3662   -5.6793   24.9174 C   0  0  0  0  0  0
  -21.6046   -4.3056   24.7222 C   0  0  0  0  0  0
  -21.8820   -3.8150   23.4343 C   0  0  0  0  0  0
  -21.9197   -4.6968   22.3401 C   0  0  0  0  0  0
  -22.7731  -13.5172   21.1922 C   0  0  0  0  0  0
  -22.1666   -4.2155   21.0978 F   0  0  0  0  0  0
  -21.5625   -3.4541   25.7733 F   0  0  0  0  0  0
  -29.8025  -14.1965   20.2839 N   0  0  0  0  0  0
  -26.2768  -12.9582   20.3216 N   0  0  0  0  0  0
  -25.9348  -11.6666   20.5706 N   0  0  0  0  0  0
  -22.0400  -12.8150   22.0474 N   0  0  0  0  0  0
  -25.3939  -15.2012   20.4219 N   0  0  0  0  0  0
  -31.5657  -15.5007   20.1800 O   0  0  0  0  0  0
  -21.6650   -6.8887   21.4243 O   0  0  0  0  0  0
  -22.3408  -14.5472   20.6757 O   0  0  0  0  0  0
  -24.6799  -31.8035   23.1539 C   0  0  0  0  0  0
  -25.9397  -32.4485   23.8073 C   0  0  1  0  0  0
  -27.2247  -26.7388   20.2087 C   0  0  0  0  0  0
  -25.5988  -33.8310   24.1964 N   0  0  0  0  0  0
  -23.5047  -30.4058   21.5083 C   0  0  2  0  0  0
  -24.9614  -28.7537   20.1169 C   0  0  0  0  0  0
  -22.7752  -29.4326   22.4731 C   0  0  0  0  0  0
  -18.0335  -28.1415   22.8457 C   0  0  0  0  0  0
  -24.1499  -36.7160   23.2650 C   0  0  0  0  0  0
  -26.0835  -30.5478   21.4138 C   0  0  0  0  0  0
  -26.1499  -29.1172   20.7610 C   0  0  0  0  0  0
  -27.2692  -28.1372   20.7729 C   0  0  0  0  0  0
  -26.0033  -26.5733   19.5107 C   0  0  0  0  0  0
  -24.9252  -27.5074   19.4679 C   0  0  0  0  0  0
  -23.7559  -29.7048   20.1425 C   0  0  0  0  0  0
  -25.4150  -36.2906   24.0279 C   0  0  1  0  0  0
  -20.5968  -28.3770   23.1151 C   0  0  2  0  0  0
  -20.6802  -26.9430   22.5408 C   0  0  0  0  0  0
  -19.5779  -26.6364   21.5219 C   0  0  0  0  0  0
  -18.1960  -26.7943   22.1618 C   0  0  0  0  0  0
  -19.1601  -28.8918   23.2784 C   0  0  0  0  0  0
  -18.9504  -30.1504   23.8826 C   0  0  0  0  0  0
  -17.6492  -30.6599   24.0547 C   0  0  0  0  0  0
  -25.9122  -34.9294   23.4958 C   0  0  0  0  0  0
  -16.5383  -29.9077   23.6350 C   0  0  0  0  0  0
  -16.7314  -28.6501   23.0366 C   0  0  0  0  0  0
  -26.4583  -31.6508   25.0685 C   0  0  0  0  0  0
  -25.3650  -31.3827   26.1302 C   0  0  0  0  0  0
  -27.0509  -30.2845   24.6574 C   0  0  0  0  0  0
  -27.6038  -32.4364   25.7502 C   0  0  0  0  0  0
  -27.5568  -37.1737   24.8463 C   0  0  0  0  0  0
  -21.4404  -29.3022   22.3478 N   0  0  0  0  0  0
  -26.4279  -37.3662   23.9399 N   0  0  0  0  0  0
  -24.7792  -30.9513   22.0778 N   0  0  0  0  0  0
  -23.4211  -28.7927   23.3065 O   0  0  0  0  0  0
  -28.2019  -25.5458   20.2792 O   0  0  0  0  0  0
  -26.5761  -34.8862   22.4573 O   0  0  0  0  0  0
  -23.5824  -32.1091   23.6512 O   0  0  0  0  0  0
  -29.7518  -22.3734   21.6738 C   0  0  0  0  0  0
  -28.7632  -20.2701   20.2654 C   0  0  0  0  0  0
  -29.7979  -18.6506   20.3608 C   0  0  0  0  0  0
  -28.0048  -23.8146   20.1789 C   0  0  0  0  0  0
  -29.0063  -22.1792   20.3497 C   0  0  1  0  0  0
  -29.5726  -16.8994   20.3785 N   0  0  0  0  0  0
  -31.4278  -13.2611   19.1872 H   0  0  0  0  0  0
  -30.5575  -12.1587   20.2008 H   0  0  0  0  0  0
  -29.9835  -11.7942   17.7743 H   0  0  0  0  0  0
  -29.5259  -13.4729   17.6170 H   0  0  0  0  0  0
  -28.1176  -11.2924   19.1725 H   0  0  0  0  0  0
  -27.4431  -12.2707   17.8905 H   0  0  0  0  0  0
  -27.4704  -14.2308   19.2605 H   0  0  0  0  0  0
  -28.8566  -12.7066   21.5150 H   0  0  0  0  0  0
  -28.1995  -14.3211   21.6396 H   0  0  0  0  0  0
  -25.2787   -9.5690   22.4759 H   0  0  0  0  0  0
  -24.0026   -7.4636   22.7467 H   0  0  0  0  0  0
  -21.0868   -8.8779   19.8945 H   0  0  0  0  0  0
  -22.3721  -10.9675   19.6167 H   0  0  0  0  0  0
  -21.2016   -7.6151   23.9718 H   0  0  0  0  0  0
  -21.1484   -6.0522   25.9077 H   0  0  0  0  0  0
  -22.0596   -2.7613   23.2837 H   0  0  0  0  0  0
  -22.4057  -11.9835   22.4876 H   0  0  0  0  0  0
  -21.1001  -13.1134   22.2664 H   0  0  0  0  0  0
  -24.6204  -15.8476   20.5356 H   0  0  0  0  0  0
  -26.2295  -15.6434   20.0632 H   0  0  0  0  0  0
  -26.7479  -32.4966   23.0788 H   0  0  0  0  0  0
  -25.0049  -33.9370   25.0057 H   0  0  0  0  0  0
  -22.8278  -31.2420   21.3219 H   0  0  0  0  0  0
  -23.3780  -35.9471   23.3272 H   0  0  0  0  0  0
  -24.3561  -36.8862   22.2071 H   0  0  0  0  0  0
  -23.7245  -37.6323   23.6753 H   0  0  0  0  0  0
  -26.2853  -31.2791   20.6301 H   0  0  0  0  0  0
  -26.9336  -30.6104   22.0808 H   0  0  0  0  0  0
  -28.1672  -28.4211   21.3030 H   0  0  0  0  0  0
  -25.8437  -25.6274   19.0125 H   0  0  0  0  0  0
  -24.0273  -27.2215   18.9374 H   0  0  0  0  0  0
  -23.9258  -30.4660   19.3804 H   0  0  0  0  0  0
  -22.8616  -29.1687   19.8204 H   0  0  0  0  0  0
  -25.1362  -36.1676   25.0770 H   0  0  0  0  0  0
  -21.0049  -28.3389   24.1276 H   0  0  0  0  0  0
  -20.5667  -26.2387   23.3664 H   0  0  0  0  0  0
  -21.6663  -26.7374   22.1224 H   0  0  0  0  0  0
  -19.6933  -25.6257   21.1292 H   0  0  0  0  0  0
  -19.6729  -27.3135   20.6717 H   0  0  0  0  0  0
  -17.4231  -26.6685   21.4020 H   0  0  0  0  0  0
  -18.0350  -26.0104   22.9032 H   0  0  0  0  0  0
  -19.7980  -30.7343   24.2161 H   0  0  0  0  0  0
  -17.5040  -31.6275   24.5156 H   0  0  0  0  0  0
  -15.5378  -30.2949   23.7721 H   0  0  0  0  0  0
  -15.8716  -28.0794   22.7115 H   0  0  0  0  0  0
  -24.5853  -30.7163   25.7597 H   0  0  0  0  0  0
  -24.8821  -32.3053   26.4534 H   0  0  0  0  0  0
  -25.7815  -30.9111   27.0211 H   0  0  0  0  0  0
  -26.3217  -29.6466   24.1568 H   0  0  0  0  0  0
  -27.3938  -29.7289   25.5314 H   0  0  0  0  0  0
  -27.9203  -30.3974   24.0093 H   0  0  0  0  0  0
  -27.2579  -33.3726   26.1898 H   0  0  0  0  0  0
  -28.3937  -32.6826   25.0393 H   0  0  0  0  0  0
  -28.0612  -31.8619   26.5569 H   0  0  0  0  0  0
  -28.2553  -38.0061   24.7507 H   0  0  0  0  0  0
  -28.1097  -36.2582   24.6299 H   0  0  0  0  0  0
  -27.2277  -37.1382   25.8863 H   0  0  0  0  0  0
  -20.9699  -29.8681   21.6555 H   0  0  0  0  0  0
  -26.0111  -38.2713   24.1414 H   0  0  0  0  0  0
  -30.5608  -21.6509   21.7835 H   0  0  0  0  0  0
  -29.0775  -22.2504   22.5217 H   0  0  0  0  0  0
  -30.1882  -23.3711   21.7379 H   0  0  0  0  0  0
  -27.9951  -20.1020   21.0210 H   0  0  0  0  0  0
  -28.2199  -20.1452   19.3279 H   0  0  0  0  0  0
  -30.3892  -18.7945   21.2656 H   0  0  0  0  0  0
  -30.5301  -18.7709   19.5614 H   0  0  0  0  0  0
  -27.1750  -23.6609   20.8694 H   0  0  0  0  0  0
  -27.5380  -23.7073   19.1996 H   0  0  0  0  0  0
  -29.7564  -22.3214   19.5707 H   0  0  0  0  0  0
  -28.5871  -16.6882   20.4509 H   0  0  0  0  0  0
  1 25  1  0  0  0
  1 30  2  0  0  0
  1 76  1  0  0  0
  2  3  1  0  0  0
  2 25  1  0  0  0
  2 77  1  0  0  0
  2 78  1  0  0  0
  3  4  1  0  0  0
  3 79  1  0  0  0
  3 80  1  0  0  0
  4  5  1  0  0  0
  4 81  1  0  0  0
  4 82  1  0  0  0
  5  6  1  0  0  0
  5 26  1  0  0  0
  5 83  1  0  0  0
  6 25  1  0  0  0
  6 84  1  0  0  0
  6 85  1  0  0  0
  7  8  2  0  0  0
  7 26  1  0  0  0
  7 29  1  0  0  0
  8  9  1  0  0  0
  8 22  1  0  0  0
  9 10  1  0  0  0
  9 27  2  0  0  0
 10 11  2  0  0  0
 10 15  1  0  0  0
 11 12  1  0  0  0
 11 86  1  0  0  0
 12 13  2  0  0  0
 12 87  1  0  0  0
 13 14  1  0  0  0
 13 31  1  0  0  0
 14 15  2  0  0  0
 14 88  1  0  0  0
 15 89  1  0  0  0
 16 17  2  0  0  0
 16 21  1  0  0  0
 16 31  1  0  0  0
 17 18  1  0  0  0
 17 90  1  0  0  0
 18 19  2  0  0  0
 18 91  1  0  0  0
 19 20  1  0  0  0
 19 24  1  0  0  0
 20 21  2  0  0  0
 20 92  1  0  0  0
 21 23  1  0  0  0
 22 28  1  0  0  0
 22 32  2  0  0  0
 26 27  1  0  0  0
 28 93  1  0  0  0
 28 94  1  0  0  0
 29 95  1  0  0  0
 29 96  1  0  0  0
 33 34  1  0  0  0
 33 66  1  0  0  0
 33 70  2  0  0  0
 34 36  1  0  0  0
 34 59  1  0  0  0
 34 97  1  0  0  0
 35 44  2  0  0  0
 35 45  1  0  0  0
 35 68  1  0  0  0
 36 56  1  0  0  0
 36 98  1  0  0  0
 37 39  1  0  0  0
 37 47  1  0  0  0
 37 66  1  0  0  0
 37 99  1  0  0  0
 38 43  2  0  0  0
 38 46  1  0  0  0
 38 47  1  0  0  0
 39 64  1  0  0  0
 39 67  2  0  0  0
 40 52  1  0  0  0
 40 53  2  0  0  0
 40 58  1  0  0  0
 41100  1  0  0  0
 41101  1  0  0  0
 41102  1  0  0  0
 41 48  1  0  0  0
 42 43  1  0  0  0
 42 66  1  0  0  0
 42103  1  0  0  0
 42104  1  0  0  0
 43 44  1  0  0  0
 44105  1  0  0  0
 45 46  2  0  0  0
 45106  1  0  0  0
 46107  1  0  0  0
 47108  1  0  0  0
 47109  1  0  0  0
 48 56  1  0  0  0
 48 65  1  0  0  0
 48110  1  0  0  0
 49 50  1  0  0  0
 49 53  1  0  0  0
 49 64  1  0  0  0
 49111  1  0  0  0
 50 51  1  0  0  0
 50112  1  0  0  0
 50113  1  0  0  0
 51 52  1  0  0  0
 51114  1  0  0  0
 51115  1  0  0  0
 52116  1  0  0  0
 52117  1  0  0  0
 53 54  1  0  0  0
 54 55  2  0  0  0
 54118  1  0  0  0
 55 57  1  0  0  0
 55119  1  0  0  0
 56 69  2  0  0  0
 57 58  2  0  0  0
 57120  1  0  0  0
 58121  1  0  0  0
 59 60  1  0  0  0
 59 61  1  0  0  0
 59 62  1  0  0  0
 60122  1  0  0  0
 60123  1  0  0  0
 60124  1  0  0  0
 61125  1  0  0  0
 61126  1  0  0  0
 61127  1  0  0  0
 62128  1  0  0  0
 62129  1  0  0  0
 62130  1  0  0  0
 63 65  1  0  0  0
 63131  1  0  0  0
 63132  1  0  0  0
 63133  1  0  0  0
 64134  1  0  0  0
 65135  1  0  0  0
 68 74  1  0  0  0
 71136  1  0  0  0
 71137  1  0  0  0
 71138  1  0  0  0
 71 75  1  0  0  0
 72 73  1  0  0  0
 72 75  1  0  0  0
 72139  1  0  0  0
 72140  1  0  0  0
 73 76  1  0  0  0
 73141  1  0  0  0
 73142  1  0  0  0
 74 75  1  0  0  0
 74143  1  0  0  0
 74144  1  0  0  0
 75145  1  0  0  0
 76146  1  0  0  0
M  ISO  4   1 100  68 101  74 101  76 100
M  END
> <chiral flag>
0

> <version>
0

> <s_m_source_file>
/data/baiqing/PycharmProjects/Reinvent-master-3.2/result/LINK_invent/BTK/process_docking_weight1_custom_sum_contain_oxygen_bond_distance_aromatic_linkinvent_7_9_3/rearranged_h_0099.sdf

> <i_m_source_file_index>
27

> <r_mmod_Potential_Energy-OPLS-2005>
2259.38916015625

> <r_mmod_Stretch_Energy-OPLS-2005>
1095.21569824219

> <r_mmod_Bend_Energy-OPLS-2005>
603.041259765625

> <r_mmod_Torsional_Energy-OPLS-2005>
213.714019775391

> <r_mmod_Improper_Torsional_Energy-OPLS-2005>
3.66236591339111

> <r_mmod_Van_der_Waal_Energy-OPLS-2005>
108.395294189453

> <r_mmod_Electrostatic_Energy-OPLS-2005>
-348.981872558594

> <r_mmod_Solvation_Energy-OPLS-2005>
-213.346435546875

> <b_mmod_Minimization_Converged-OPLS-2005>
0

> <r_mmod_RMS_Derivative-OPLS-2005>
0.849308967590332

$$$$
27
                    3D
 Structure written by MMmdl.
161168  0  0  1  0            999 V2000
  -30.5025  -14.9628   20.4359 C   0  0  0  0  0  0
  -30.4434  -12.6028   19.4824 C   0  0  0  0  0  0
  -29.5174  -12.5363   18.2458 C   0  0  0  0  0  0
  -28.0520  -12.3128   18.6694 C   0  0  0  0  0  0
  -27.6252  -13.2434   19.8337 C   0  0  2  0  0  0
  -28.6695  -13.2617   20.9664 C   0  0  0  0  0  0
  -25.2444  -13.8196   20.5712 C   0  0  0  0  0  0
  -24.1765  -13.0419   20.9239 C   0  0  0  0  0  0
  -24.6384  -11.6914   20.8758 C   0  0  0  0  0  0
  -23.9064  -10.4285   21.0413 C   0  0  0  0  0  0
  -24.3622   -9.4201   21.9188 C   0  0  0  0  0  0
  -23.6292   -8.2236   22.0755 C   0  0  0  0  0  0
  -22.4274   -8.0279   21.3543 C   0  0  0  0  0  0
  -21.9914   -9.0249   20.4642 C   0  0  0  0  0  0
  -22.7243  -10.2125   20.3052 C   0  0  0  0  0  0
  -21.6846   -6.0734   22.5281 C   0  0  0  0  0  0
  -21.4015   -6.5644   23.8219 C   0  0  0  0  0  0
  -21.3664   -5.6794   24.9175 C   0  0  0  0  0  0
  -21.6041   -4.3057   24.7229 C   0  0  0  0  0  0
  -21.8814   -3.8149   23.4351 C   0  0  0  0  0  0
  -21.9191   -4.6963   22.3403 C   0  0  0  0  0  0
  -22.7786  -13.5190   21.1902 C   0  0  0  0  0  0
  -22.1656   -4.2154   21.0982 F   0  0  0  0  0  0
  -21.5629   -3.4538   25.7738 F   0  0  0  0  0  0
  -29.9356  -13.6923   20.3610 N   0  0  0  0  0  0
  -26.2861  -12.9422   20.3219 N   0  0  0  0  0  0
  -25.9307  -11.6555   20.5724 N   0  0  0  0  0  0
  -22.0438  -12.8172   22.0460 N   0  0  0  0  0  0
  -25.4062  -15.1932   20.4141 N   0  0  0  0  0  0
  -31.7211  -15.0545   20.2545 O   0  0  0  0  0  0
  -21.6632   -6.8875   21.4241 O   0  0  0  0  0  0
  -22.3477  -14.5498   20.6747 O   0  0  0  0  0  0
  -24.6434  -31.8445   23.1865 C   0  0  0  0  0  0
  -25.9207  -32.4694   23.8266 C   0  0  1  0  0  0
  -27.2222  -27.1326   20.1654 C   0  0  0  0  0  0
  -25.5944  -33.8501   24.2183 N   0  0  0  0  0  0
  -23.4469  -30.4613   21.5338 C   0  0  2  0  0  0
  -24.8976  -28.8770   20.1210 C   0  0  0  0  0  0
  -22.7563  -29.4560   22.4880 C   0  0  0  0  0  0
  -18.0297  -28.1391   22.8473 C   0  0  0  0  0  0
  -24.1488  -36.7267   23.2639 C   0  0  0  0  0  0
  -26.0021  -30.7182   21.3832 C   0  0  0  0  0  0
  -26.0754  -29.3250   20.7336 C   0  0  0  0  0  0
  -27.2417  -28.4715   20.7312 C   0  0  0  0  0  0
  -26.0200  -26.7790   19.5233 C   0  0  0  0  0  0
  -24.8823  -27.6163   19.5017 C   0  0  0  0  0  0
  -23.6735  -29.7813   20.1570 C   0  0  0  0  0  0
  -25.4119  -36.3045   24.0309 C   0  0  1  0  0  0
  -20.5905  -28.3730   23.1230 C   0  0  2  0  0  0
  -20.6789  -26.9436   22.5398 C   0  0  0  0  0  0
  -19.5770  -26.6390   21.5200 C   0  0  0  0  0  0
  -18.1945  -26.7934   22.1611 C   0  0  0  0  0  0
  -19.1553  -28.8874   23.2846 C   0  0  0  0  0  0
  -18.9475  -30.1458   23.8886 C   0  0  0  0  0  0
  -17.6480  -30.6600   24.0553 C   0  0  0  0  0  0
  -25.9073  -34.9416   23.5059 C   0  0  0  0  0  0
  -16.5365  -29.9096   23.6333 C   0  0  0  0  0  0
  -16.7283  -28.6503   23.0363 C   0  0  0  0  0  0
  -26.4508  -31.6563   25.0715 C   0  0  0  0  0  0
  -25.3676  -31.3744   26.1399 C   0  0  0  0  0  0
  -27.0380  -30.2971   24.6292 C   0  0  0  0  0  0
  -27.6035  -32.4333   25.7496 C   0  0  0  0  0  0
  -27.5580  -37.1786   24.8456 C   0  0  0  0  0  0
  -21.4255  -29.3063   22.3624 N   0  0  0  0  0  0
  -26.4288  -37.3755   23.9408 N   0  0  0  0  0  0
  -24.7178  -31.0288   22.0906 N   0  0  0  0  0  0
  -23.4193  -28.8116   23.3046 O   0  0  0  0  0  0
  -28.3001  -26.1795   20.1410 O   0  0  0  0  0  0
  -26.5685  -34.8913   22.4657 O   0  0  0  0  0  0
  -23.5556  -32.1335   23.7072 O   0  0  0  0  0  0
  -28.5697  -20.9052   24.4576 C   0  0  0  0  0  0
  -29.6451  -23.5145   18.8519 C   0  0  0  0  0  0
  -28.9365  -20.7349   22.9774 C   0  0  0  0  0  0
  -29.6611  -19.0494   20.0203 C   0  0  0  0  0  0
  -29.7364  -17.6388   20.9552 C   0  0  0  0  0  0
  -28.5682  -21.9653   22.1203 C   0  0  0  0  0  0
  -28.6626  -20.4369   20.0861 C   0  0  0  0  0  0
  -28.1999  -24.7161   20.6770 C   0  0  0  0  0  0
  -28.5728  -23.2366   19.9162 C   0  0  2  0  0  0
  -29.6569  -16.1105   20.5095 N   0  0  0  0  0  0
  -28.9790  -21.8834   20.6887 N   0  3  1  0  0  0
  -31.4734  -12.7835   19.1701 H   0  0  0  0  0  0
  -30.4521  -11.6488   20.0136 H   0  0  0  0  0  0
  -29.8388  -11.7413   17.5710 H   0  0  0  0  0  0
  -29.5968  -13.4674   17.6823 H   0  0  0  0  0  0
  -27.9549  -11.2712   18.9794 H   0  0  0  0  0  0
  -27.3840  -12.4387   17.8161 H   0  0  0  0  0  0
  -27.5872  -14.2461   19.4079 H   0  0  0  0  0  0
  -28.7644  -12.2782   21.4300 H   0  0  0  0  0  0
  -28.3670  -13.9482   21.7591 H   0  0  0  0  0  0
  -25.2757   -9.5675   22.4771 H   0  0  0  0  0  0
  -23.9992   -7.4627   22.7484 H   0  0  0  0  0  0
  -21.0840   -8.8769   19.8957 H   0  0  0  0  0  0
  -22.3696  -10.9664   19.6173 H   0  0  0  0  0  0
  -21.2010   -7.6147   23.9721 H   0  0  0  0  0  0
  -21.1490   -6.0524   25.9082 H   0  0  0  0  0  0
  -22.0588   -2.7611   23.2846 H   0  0  0  0  0  0
  -22.4051  -11.9818   22.4816 H   0  0  0  0  0  0
  -21.1069  -13.1200   22.2689 H   0  0  0  0  0  0
  -24.6244  -15.8313   20.5212 H   0  0  0  0  0  0
  -26.2315  -15.6434   20.0427 H   0  0  0  0  0  0
  -26.7280  -32.5309   23.1003 H   0  0  0  0  0  0
  -24.9972  -33.9592   25.0254 H   0  0  0  0  0  0
  -22.7499  -31.2871   21.3751 H   0  0  0  0  0  0
  -23.3754  -35.9595   23.3280 H   0  0  0  0  0  0
  -24.3554  -36.8945   22.2055 H   0  0  0  0  0  0
  -23.7243  -37.6452   23.6705 H   0  0  0  0  0  0
  -26.1508  -31.4672   20.6046 H   0  0  0  0  0  0
  -26.8736  -30.7753   22.0233 H   0  0  0  0  0  0
  -28.1460  -28.8189   21.2072 H   0  0  0  0  0  0
  -25.9548  -25.8160   19.0364 H   0  0  0  0  0  0
  -23.9851  -27.2663   19.0109 H   0  0  0  0  0  0
  -23.8122  -30.5509   19.3967 H   0  0  0  0  0  0
  -22.7880  -29.2222   19.8494 H   0  0  0  0  0  0
  -25.1308  -36.1859   25.0798 H   0  0  0  0  0  0
  -20.9979  -28.3326   24.1358 H   0  0  0  0  0  0
  -20.5660  -26.2355   23.3621 H   0  0  0  0  0  0
  -21.6657  -26.7438   22.1208 H   0  0  0  0  0  0
  -19.6921  -25.6294   21.1252 H   0  0  0  0  0  0
  -19.6695  -27.3175   20.6704 H   0  0  0  0  0  0
  -17.4211  -26.6670   21.4013 H   0  0  0  0  0  0
  -18.0344  -26.0069   22.9000 H   0  0  0  0  0  0
  -19.7947  -30.7266   24.2267 H   0  0  0  0  0  0
  -17.5039  -31.6272   24.5170 H   0  0  0  0  0  0
  -15.5364  -30.3000   23.7669 H   0  0  0  0  0  0
  -15.8676  -28.0820   22.7100 H   0  0  0  0  0  0
  -24.5887  -30.7057   25.7705 H   0  0  0  0  0  0
  -24.8797  -32.2908   26.4734 H   0  0  0  0  0  0
  -25.7941  -30.8980   27.0237 H   0  0  0  0  0  0
  -26.3001  -29.6683   24.1299 H   0  0  0  0  0  0
  -27.4009  -29.7281   25.4858 H   0  0  0  0  0  0
  -27.8898  -30.4227   23.9613 H   0  0  0  0  0  0
  -27.2660  -33.3690   26.1977 H   0  0  0  0  0  0
  -28.3899  -32.6807   25.0349 H   0  0  0  0  0  0
  -28.0660  -31.8519   26.5496 H   0  0  0  0  0  0
  -28.2571  -38.0108   24.7540 H   0  0  0  0  0  0
  -28.1116  -36.2640   24.6248 H   0  0  0  0  0  0
  -27.2297  -37.1378   25.8858 H   0  0  0  0  0  0
  -20.9483  -29.8789   21.6804 H   0  0  0  0  0  0
  -26.0156  -38.2821   24.1423 H   0  0  0  0  0  0
  -28.8247  -20.0084   25.0249 H   0  0  0  0  0  0
  -27.4987  -21.0725   24.5809 H   0  0  0  0  0  0
  -29.0968  -21.7470   24.9081 H   0  0  0  0  0  0
  -29.3543  -24.3475   18.2093 H   0  0  0  0  0  0
  -29.8041  -22.6512   18.2060 H   0  0  0  0  0  0
  -30.6008  -23.7757   19.3082 H   0  0  0  0  0  0
  -28.4093  -19.8528   22.6172 H   0  0  0  0  0  0
  -30.0042  -20.5275   22.8912 H   0  0  0  0  0  0
  -29.4689  -18.6545   19.0218 H   0  0  0  0  0  0
  -30.6818  -19.4187   19.9361 H   0  0  0  0  0  0
  -28.9409  -17.7329   21.6956 H   0  0  0  0  0  0
  -30.6459  -17.7147   21.5521 H   0  0  0  0  0  0
  -29.0469  -22.8339   22.5706 H   0  0  0  0  0  0
  -27.4914  -22.1328   22.1742 H   0  0  0  0  0  0
  -27.6639  -20.1383   20.4087 H   0  0  0  0  0  0
  -28.5124  -20.6695   19.0310 H   0  0  0  0  0  0
  -28.8564  -24.7749   21.5429 H   0  0  0  0  0  0
  -27.2038  -24.6097   21.1062 H   0  0  0  0  0  0
  -27.6600  -22.9813   19.3755 H   0  0  0  0  0  0
  -28.6955  -15.8081   20.4581 H   0  0  0  0  0  0
  -29.9878  -21.9227   20.7131 H   0  0  0  0  0  0
  1 25  1  0  0  0
  1 30  2  0  0  0
  1 80  1  0  0  0
  2  3  1  0  0  0
  2 25  1  0  0  0
  2 82  1  0  0  0
  2 83  1  0  0  0
  3  4  1  0  0  0
  3 84  1  0  0  0
  3 85  1  0  0  0
  4  5  1  0  0  0
  4 86  1  0  0  0
  4 87  1  0  0  0
  5  6  1  0  0  0
  5 26  1  0  0  0
  5 88  1  0  0  0
  6 25  1  0  0  0
  6 89  1  0  0  0
  6 90  1  0  0  0
  7  8  2  0  0  0
  7 26  1  0  0  0
  7 29  1  0  0  0
  8  9  1  0  0  0
  8 22  1  0  0  0
  9 10  1  0  0  0
  9 27  2  0  0  0
 10 11  2  0  0  0
 10 15  1  0  0  0
 11 12  1  0  0  0
 11 91  1  0  0  0
 12 13  2  0  0  0
 12 92  1  0  0  0
 13 14  1  0  0  0
 13 31  1  0  0  0
 14 15  2  0  0  0
 14 93  1  0  0  0
 15 94  1  0  0  0
 16 17  2  0  0  0
 16 21  1  0  0  0
 16 31  1  0  0  0
 17 18  1  0  0  0
 17 95  1  0  0  0
 18 19  2  0  0  0
 18 96  1  0  0  0
 19 20  1  0  0  0
 19 24  1  0  0  0
 20 21  2  0  0  0
 20 97  1  0  0  0
 21 23  1  0  0  0
 22 28  1  0  0  0
 22 32  2  0  0  0
 26 27  1  0  0  0
 28 98  1  0  0  0
 28 99  1  0  0  0
 29100  1  0  0  0
 29101  1  0  0  0
 33 34  1  0  0  0
 33 66  1  0  0  0
 33 70  2  0  0  0
 34 36  1  0  0  0
 34 59  1  0  0  0
 34102  1  0  0  0
 35 44  2  0  0  0
 35 45  1  0  0  0
 35 68  1  0  0  0
 36 56  1  0  0  0
 36103  1  0  0  0
 37 39  1  0  0  0
 37 47  1  0  0  0
 37 66  1  0  0  0
 37104  1  0  0  0
 38 43  2  0  0  0
 38 46  1  0  0  0
 38 47  1  0  0  0
 39 64  1  0  0  0
 39 67  2  0  0  0
 40 52  1  0  0  0
 40 53  2  0  0  0
 40 58  1  0  0  0
 41105  1  0  0  0
 41106  1  0  0  0
 41107  1  0  0  0
 41 48  1  0  0  0
 42 43  1  0  0  0
 42 66  1  0  0  0
 42108  1  0  0  0
 42109  1  0  0  0
 43 44  1  0  0  0
 44110  1  0  0  0
 45 46  2  0  0  0
 45111  1  0  0  0
 46112  1  0  0  0
 47113  1  0  0  0
 47114  1  0  0  0
 48 56  1  0  0  0
 48 65  1  0  0  0
 48115  1  0  0  0
 49 50  1  0  0  0
 49 53  1  0  0  0
 49 64  1  0  0  0
 49116  1  0  0  0
 50 51  1  0  0  0
 50117  1  0  0  0
 50118  1  0  0  0
 51 52  1  0  0  0
 51119  1  0  0  0
 51120  1  0  0  0
 52121  1  0  0  0
 52122  1  0  0  0
 53 54  1  0  0  0
 54 55  2  0  0  0
 54123  1  0  0  0
 55 57  1  0  0  0
 55124  1  0  0  0
 56 69  2  0  0  0
 57 58  2  0  0  0
 57125  1  0  0  0
 58126  1  0  0  0
 59 60  1  0  0  0
 59 61  1  0  0  0
 59 62  1  0  0  0
 60127  1  0  0  0
 60128  1  0  0  0
 60129  1  0  0  0
 61130  1  0  0  0
 61131  1  0  0  0
 61132  1  0  0  0
 62133  1  0  0  0
 62134  1  0  0  0
 62135  1  0  0  0
 63 65  1  0  0  0
 63136  1  0  0  0
 63137  1  0  0  0
 63138  1  0  0  0
 64139  1  0  0  0
 65140  1  0  0  0
 68 78  1  0  0  0
 71 73  1  0  0  0
 71141  1  0  0  0
 71142  1  0  0  0
 71143  1  0  0  0
 72144  1  0  0  0
 72145  1  0  0  0
 72146  1  0  0  0
 72 79  1  0  0  0
 73 76  1  0  0  0
 73147  1  0  0  0
 73148  1  0  0  0
 74 75  1  0  0  0
 74 77  1  0  0  0
 74149  1  0  0  0
 74150  1  0  0  0
 75 80  1  0  0  0
 75151  1  0  0  0
 75152  1  0  0  0
 76153  1  0  0  0
 76154  1  0  0  0
 76 81  1  0  0  0
 77 81  1  0  0  0
 77155  1  0  0  0
 77156  1  0  0  0
 78 79  1  0  0  0
 78157  1  0  0  0
 78158  1  0  0  0
 79 81  1  0  0  0
 79159  1  0  0  0
 80160  1  0  0  0
 81161  1  0  0  0
M  CHG  1  81   1
M  ISO  4   1 100  68 101  78 101  80 100
M  END
> <chiral flag>
0

> <version>
0

> <s_m_source_file>
/data/baiqing/PycharmProjects/Reinvent-master-3.2/result/LINK_invent/BTK/process_docking_weight1_custom_sum_contain_oxygen_bond_distance_aromatic_linkinvent_7_9_3/rearranged_h_0099.sdf

> <i_m_source_file_index>
28

> <r_mmod_Potential_Energy-OPLS-2005>
612.733764648438

> <r_mmod_Stretch_Energy-OPLS-2005>
295.730895996094

> <r_mmod_Bend_Energy-OPLS-2005>
338.573913574219

> <r_mmod_Torsional_Energy-OPLS-2005>
282.214080810547

> <r_mmod_Improper_Torsional_Energy-OPLS-2005>
5.13877105712891

> <r_mmod_Van_der_Waal_Energy-OPLS-2005>
108.295227050781

> <r_mmod_Electrostatic_Energy-OPLS-2005>
-182.434997558594

> <r_mmod_Solvation_Energy-OPLS-2005>
-432.019165039062

> <b_mmod_Minimization_Converged-OPLS-2005>
0

> <r_mmod_RMS_Derivative-OPLS-2005>
2.28980493545532

$$$$
28
                    3D
 Structure written by MMmdl.
175184  0  0  1  0            999 V2000
  -30.7013  -14.7008   20.4764 C   0  0  0  0  0  0
  -30.4100  -12.4434   19.4566 C   0  0  0  0  0  0
  -29.4905  -12.5022   18.2216 C   0  0  0  0  0  0
  -28.0189  -12.3391   18.6439 C   0  0  0  0  0  0
  -27.6370  -13.2391   19.8511 C   0  0  2  0  0  0
  -28.6920  -13.1780   20.9765 C   0  0  0  0  0  0
  -25.2492  -13.8221   20.5740 C   0  0  0  0  0  0
  -24.1784  -13.0452   20.9218 C   0  0  0  0  0  0
  -24.6386  -11.6935   20.8764 C   0  0  0  0  0  0
  -23.9064  -10.4301   21.0411 C   0  0  0  0  0  0
  -24.3612   -9.4214   21.9187 C   0  0  0  0  0  0
  -23.6293   -8.2246   22.0753 C   0  0  0  0  0  0
  -22.4273   -8.0281   21.3542 C   0  0  0  0  0  0
  -21.9907   -9.0257   20.4646 C   0  0  0  0  0  0
  -22.7237  -10.2138   20.3061 C   0  0  0  0  0  0
  -21.6852   -6.0734   22.5281 C   0  0  0  0  0  0
  -21.4014   -6.5637   23.8216 C   0  0  0  0  0  0
  -21.3662   -5.6789   24.9178 C   0  0  0  0  0  0
  -21.6044   -4.3050   24.7226 C   0  0  0  0  0  0
  -21.8817   -3.8143   23.4345 C   0  0  0  0  0  0
  -21.9190   -4.6961   22.3402 C   0  0  0  0  0  0
  -22.7805  -13.5231   21.1865 C   0  0  0  0  0  0
  -22.1660   -4.2145   21.0980 F   0  0  0  0  0  0
  -21.5630   -3.4537   25.7737 F   0  0  0  0  0  0
  -29.9781  -13.5319   20.3678 N   0  0  0  0  0  0
  -26.2926  -12.9445   20.3347 N   0  0  0  0  0  0
  -25.9322  -11.6576   20.5793 N   0  0  0  0  0  0
  -22.0453  -12.8232   22.0428 N   0  0  0  0  0  0
  -25.4175  -15.1950   20.4178 N   0  0  0  0  0  0
  -31.9091  -14.6430   20.2245 O   0  0  0  0  0  0
  -21.6640   -6.8877   21.4240 O   0  0  0  0  0  0
  -22.3495  -14.5537   20.6712 O   0  0  0  0  0  0
  -24.6323  -31.8587   23.2057 C   0  0  0  0  0  0
  -25.9160  -32.4763   23.8382 C   0  0  1  0  0  0
  -27.1954  -27.2620   20.1125 C   0  0  0  0  0  0
  -25.5968  -33.8569   24.2295 N   0  0  0  0  0  0
  -23.4268  -30.4902   21.5500 C   0  0  2  0  0  0
  -24.8683  -28.9562   20.1063 C   0  0  0  0  0  0
  -22.7509  -29.4630   22.4909 C   0  0  0  0  0  0
  -18.0297  -28.1392   22.8476 C   0  0  0  0  0  0
  -24.1495  -36.7284   23.2637 C   0  0  0  0  0  0
  -25.9780  -30.7693   21.3920 C   0  0  0  0  0  0
  -26.0451  -29.3979   20.7246 C   0  0  0  0  0  0
  -27.2121  -28.5626   20.7243 C   0  0  0  0  0  0
  -25.9939  -26.9190   19.4380 C   0  0  0  0  0  0
  -24.8482  -27.7234   19.4528 C   0  0  0  0  0  0
  -23.6430  -29.8432   20.1608 C   0  0  0  0  0  0
  -25.4118  -36.3071   24.0329 C   0  0  1  0  0  0
  -20.5901  -28.3708   23.1254 C   0  0  2  0  0  0
  -20.6786  -26.9425   22.5399 C   0  0  0  0  0  0
  -19.5763  -26.6384   21.5205 C   0  0  0  0  0  0
  -18.1942  -26.7934   22.1614 C   0  0  0  0  0  0
  -19.1549  -28.8866   23.2861 C   0  0  0  0  0  0
  -18.9467  -30.1464   23.8883 C   0  0  0  0  0  0
  -17.6466  -30.6591   24.0557 C   0  0  0  0  0  0
  -25.9062  -34.9440   23.5103 C   0  0  0  0  0  0
  -16.5356  -29.9084   23.6334 C   0  0  0  0  0  0
  -16.7281  -28.6503   23.0353 C   0  0  0  0  0  0
  -26.4518  -31.6574   25.0764 C   0  0  0  0  0  0
  -25.3731  -31.3735   26.1473 C   0  0  0  0  0  0
  -27.0356  -30.2974   24.6277 C   0  0  0  0  0  0
  -27.6080  -32.4302   25.7536 C   0  0  0  0  0  0
  -27.5584  -37.1797   24.8461 C   0  0  0  0  0  0
  -21.4216  -29.3053   22.3645 N   0  0  0  0  0  0
  -26.4293  -37.3769   23.9410 N   0  0  0  0  0  0
  -24.6981  -31.0558   22.1045 N   0  0  0  0  0  0
  -23.4211  -28.8144   23.2987 O   0  0  0  0  0  0
  -28.2439  -26.3046   20.1979 O   0  0  0  0  0  0
  -26.5614  -34.8905   22.4660 O   0  0  0  0  0  0
  -23.5471  -32.1418   23.7346 O   0  0  0  0  0  0
  -28.9897  -21.2087   19.2814 C   0  0  0  0  0  0
  -28.6461  -22.5780   19.1000 C   0  0  0  0  0  0
  -29.3324  -20.6606   20.5437 C   0  0  0  0  0  0
  -28.6008  -23.5268   20.1579 C   0  0  0  0  0  0
  -29.3363  -21.6130   21.6255 C   0  0  0  0  0  0
  -28.9695  -23.0080   21.4385 C   0  0  0  0  0  0
  -28.7226  -18.0856   21.2283 C   0  0  0  0  0  0
  -30.2362  -18.4184   19.3986 C   0  0  0  0  0  0
  -29.2472  -16.5951   21.4481 C   0  0  0  0  0  0
  -30.8677  -17.0057   19.6380 C   0  0  0  0  0  0
  -29.7596  -19.1209   20.6887 C   0  0  0  0  0  0
  -28.9117  -23.9515   22.6346 C   0  0  0  0  0  0
  -33.2431  -20.5058   24.6471 C   0  0  0  0  0  0
  -31.1753  -21.3245   25.8410 C   0  0  0  0  0  0
  -29.7334  -21.1256   23.0212 C   0  0  0  0  0  0
  -27.8332  -24.8940   19.8783 C   0  0  0  0  0  0
  -31.2458  -21.2543   23.2833 C   0  0  0  0  0  0
  -31.7107  -20.5947   24.5978 C   0  0  0  0  0  0
  -30.0897  -15.9616   20.3852 N   0  0  0  0  0  0
  -31.4512  -12.5309   19.1428 H   0  0  0  0  0  0
  -30.3333  -11.4734   19.9507 H   0  0  0  0  0  0
  -29.7631  -11.7244   17.5070 H   0  0  0  0  0  0
  -29.6209  -13.4551   17.7056 H   0  0  0  0  0  0
  -27.8687  -11.2903   18.9022 H   0  0  0  0  0  0
  -27.3576  -12.5395   17.8002 H   0  0  0  0  0  0
  -27.6286  -14.2615   19.4723 H   0  0  0  0  0  0
  -28.7360  -12.1791   21.4122 H   0  0  0  0  0  0
  -28.4403  -13.8441   21.7990 H   0  0  0  0  0  0
  -25.2753   -9.5698   22.4773 H   0  0  0  0  0  0
  -24.0003   -7.4633   22.7470 H   0  0  0  0  0  0
  -21.0839   -8.8775   19.8955 H   0  0  0  0  0  0
  -22.3687  -10.9678   19.6177 H   0  0  0  0  0  0
  -21.2009   -7.6145   23.9722 H   0  0  0  0  0  0
  -21.1490   -6.0517   25.9081 H   0  0  0  0  0  0
  -22.0593   -2.7606   23.2844 H   0  0  0  0  0  0
  -22.4060  -11.9888   22.4816 H   0  0  0  0  0  0
  -21.1076  -13.1268   22.2644 H   0  0  0  0  0  0
  -24.6507  -15.8479   20.5324 H   0  0  0  0  0  0
  -26.2756  -15.6392   20.1166 H   0  0  0  0  0  0
  -26.7225  -32.5402   23.1122 H   0  0  0  0  0  0
  -25.0125  -33.9721   25.0446 H   0  0  0  0  0  0
  -22.7231  -31.3142   21.4141 H   0  0  0  0  0  0
  -23.3758  -35.9614   23.3286 H   0  0  0  0  0  0
  -24.3594  -36.8918   22.2055 H   0  0  0  0  0  0
  -23.7244  -37.6484   23.6662 H   0  0  0  0  0  0
  -26.1266  -31.5346   20.6288 H   0  0  0  0  0  0
  -26.8525  -30.8061   22.0299 H   0  0  0  0  0  0
  -28.1044  -28.8879   21.2404 H   0  0  0  0  0  0
  -25.8670  -25.9961   18.8962 H   0  0  0  0  0  0
  -23.9517  -27.3845   18.9514 H   0  0  0  0  0  0
  -23.7707  -30.6286   19.4150 H   0  0  0  0  0  0
  -22.7595  -29.2836   19.8487 H   0  0  0  0  0  0
  -25.1295  -36.1924   25.0821 H   0  0  0  0  0  0
  -20.9992  -28.3282   24.1374 H   0  0  0  0  0  0
  -20.5689  -26.2319   23.3604 H   0  0  0  0  0  0
  -21.6652  -26.7455   22.1190 H   0  0  0  0  0  0
  -19.6926  -25.6289   21.1251 H   0  0  0  0  0  0
  -19.6704  -27.3177   20.6721 H   0  0  0  0  0  0
  -17.4215  -26.6682   21.4013 H   0  0  0  0  0  0
  -18.0341  -26.0078   22.9013 H   0  0  0  0  0  0
  -19.7944  -30.7279   24.2250 H   0  0  0  0  0  0
  -17.5023  -31.6271   24.5156 H   0  0  0  0  0  0
  -15.5357  -30.2976   23.7677 H   0  0  0  0  0  0
  -15.8682  -28.0818   22.7071 H   0  0  0  0  0  0
  -24.5928  -30.7059   25.7799 H   0  0  0  0  0  0
  -24.8896  -32.2903   26.4857 H   0  0  0  0  0  0
  -25.8037  -30.8946   27.0277 H   0  0  0  0  0  0
  -26.2949  -29.6719   24.1284 H   0  0  0  0  0  0
  -27.3984  -29.7244   25.4822 H   0  0  0  0  0  0
  -27.8859  -30.4214   23.9568 H   0  0  0  0  0  0
  -27.2707  -33.3611   26.2108 H   0  0  0  0  0  0
  -28.3906  -32.6842   25.0373 H   0  0  0  0  0  0
  -28.0734  -31.8425   26.5462 H   0  0  0  0  0  0
  -28.2584  -38.0109   24.7513 H   0  0  0  0  0  0
  -28.1097  -36.2639   24.6272 H   0  0  0  0  0  0
  -27.2307  -37.1428   25.8863 H   0  0  0  0  0  0
  -20.9397  -29.8797   21.6872 H   0  0  0  0  0  0
  -26.0169  -38.2844   24.1399 H   0  0  0  0  0  0
  -28.9679  -20.5691   18.4111 H   0  0  0  0  0  0
  -28.3396  -22.8844   18.1095 H   0  0  0  0  0  0
  -28.3051  -18.4401   22.1700 H   0  0  0  0  0  0
  -27.8749  -18.0585   20.5422 H   0  0  0  0  0  0
  -29.4103  -18.3255   18.6919 H   0  0  0  0  0  0
  -30.9818  -19.0448   18.9071 H   0  0  0  0  0  0
  -28.3728  -15.9744   21.6311 H   0  0  0  0  0  0
  -29.8298  -16.5697   22.3702 H   0  0  0  0  0  0
  -31.8089  -17.1650   20.1677 H   0  0  0  0  0  0
  -31.1411  -16.5988   18.6625 H   0  0  0  0  0  0
  -30.6110  -19.1122   21.3684 H   0  0  0  0  0  0
  -28.8415  -24.9958   22.3354 H   0  0  0  0  0  0
  -29.8066  -23.8700   23.2501 H   0  0  0  0  0  0
  -28.0451  -23.7256   23.2566 H   0  0  0  0  0  0
  -33.5818  -20.0118   25.5587 H   0  0  0  0  0  0
  -33.7014  -21.4952   24.6148 H   0  0  0  0  0  0
  -33.6326  -19.9323   23.8047 H   0  0  0  0  0  0
  -31.5509  -20.8671   26.7573 H   0  0  0  0  0  0
  -30.0870  -21.2905   25.8928 H   0  0  0  0  0  0
  -31.4761  -22.3728   25.8492 H   0  0  0  0  0  0
  -29.4317  -20.0892   23.1522 H   0  0  0  0  0  0
  -29.1665  -21.6565   23.7840 H   0  0  0  0  0  0
  -26.8778  -24.7088   20.3718 H   0  0  0  0  0  0
  -27.6441  -24.8864   18.8047 H   0  0  0  0  0  0
  -31.5433  -22.3033   23.2641 H   0  0  0  0  0  0
  -31.7790  -20.7864   22.4552 H   0  0  0  0  0  0
  -31.3285  -19.5721   24.6193 H   0  0  0  0  0  0
  1 25  1  0  0  0
  1 30  2  0  0  0
  1 89  1  0  0  0
  2  3  1  0  0  0
  2 25  1  0  0  0
  2 90  1  0  0  0
  2 91  1  0  0  0
  3  4  1  0  0  0
  3 92  1  0  0  0
  3 93  1  0  0  0
  4  5  1  0  0  0
  4 94  1  0  0  0
  4 95  1  0  0  0
  5  6  1  0  0  0
  5 26  1  0  0  0
  5 96  1  0  0  0
  6 25  1  0  0  0
  6 97  1  0  0  0
  6 98  1  0  0  0
  7  8  2  0  0  0
  7 26  1  0  0  0
  7 29  1  0  0  0
  8  9  1  0  0  0
  8 22  1  0  0  0
  9 10  1  0  0  0
  9 27  2  0  0  0
 10 11  2  0  0  0
 10 15  1  0  0  0
 11 12  1  0  0  0
 11 99  1  0  0  0
 12 13  2  0  0  0
 12100  1  0  0  0
 13 14  1  0  0  0
 13 31  1  0  0  0
 14 15  2  0  0  0
 14101  1  0  0  0
 15102  1  0  0  0
 16 17  2  0  0  0
 16 21  1  0  0  0
 16 31  1  0  0  0
 17 18  1  0  0  0
 17103  1  0  0  0
 18 19  2  0  0  0
 18104  1  0  0  0
 19 20  1  0  0  0
 19 24  1  0  0  0
 20 21  2  0  0  0
 20105  1  0  0  0
 21 23  1  0  0  0
 22 28  1  0  0  0
 22 32  2  0  0  0
 26 27  1  0  0  0
 28106  1  0  0  0
 28107  1  0  0  0
 29108  1  0  0  0
 29109  1  0  0  0
 33 34  1  0  0  0
 33 66  1  0  0  0
 33 70  2  0  0  0
 34 36  1  0  0  0
 34 59  1  0  0  0
 34110  1  0  0  0
 35 44  2  0  0  0
 35 45  1  0  0  0
 35 68  1  0  0  0
 36 56  1  0  0  0
 36111  1  0  0  0
 37 39  1  0  0  0
 37 47  1  0  0  0
 37 66  1  0  0  0
 37112  1  0  0  0
 38 43  2  0  0  0
 38 46  1  0  0  0
 38 47  1  0  0  0
 39 64  1  0  0  0
 39 67  2  0  0  0
 40 52  1  0  0  0
 40 53  2  0  0  0
 40 58  1  0  0  0
 41113  1  0  0  0
 41114  1  0  0  0
 41115  1  0  0  0
 41 48  1  0  0  0
 42 43  1  0  0  0
 42 66  1  0  0  0
 42116  1  0  0  0
 42117  1  0  0  0
 43 44  1  0  0  0
 44118  1  0  0  0
 45 46  2  0  0  0
 45119  1  0  0  0
 46120  1  0  0  0
 47121  1  0  0  0
 47122  1  0  0  0
 48 56  1  0  0  0
 48 65  1  0  0  0
 48123  1  0  0  0
 49 50  1  0  0  0
 49 53  1  0  0  0
 49 64  1  0  0  0
 49124  1  0  0  0
 50 51  1  0  0  0
 50125  1  0  0  0
 50126  1  0  0  0
 51 52  1  0  0  0
 51127  1  0  0  0
 51128  1  0  0  0
 52129  1  0  0  0
 52130  1  0  0  0
 53 54  1  0  0  0
 54 55  2  0  0  0
 54131  1  0  0  0
 55 57  1  0  0  0
 55132  1  0  0  0
 56 69  2  0  0  0
 57 58  2  0  0  0
 57133  1  0  0  0
 58134  1  0  0  0
 59 60  1  0  0  0
 59 61  1  0  0  0
 59 62  1  0  0  0
 60135  1  0  0  0
 60136  1  0  0  0
 60137  1  0  0  0
 61138  1  0  0  0
 61139  1  0  0  0
 61140  1  0  0  0
 62141  1  0  0  0
 62142  1  0  0  0
 62143  1  0  0  0
 63 65  1  0  0  0
 63144  1  0  0  0
 63145  1  0  0  0
 63146  1  0  0  0
 64147  1  0  0  0
 65148  1  0  0  0
 68 86  1  0  0  0
 71 72  2  0  0  0
 71 73  1  0  0  0
 71149  1  0  0  0
 72 74  1  0  0  0
 72150  1  0  0  0
 73 75  2  0  0  0
 73 81  1  0  0  0
 74 76  2  0  0  0
 74 86  1  0  0  0
 75 76  1  0  0  0
 75 85  1  0  0  0
 76 82  1  0  0  0
 77 79  1  0  0  0
 77 81  1  0  0  0
 77151  1  0  0  0
 77152  1  0  0  0
 78 80  1  0  0  0
 78 81  1  0  0  0
 78153  1  0  0  0
 78154  1  0  0  0
 79 89  1  0  0  0
 79155  1  0  0  0
 79156  1  0  0  0
 80 89  1  0  0  0
 80157  1  0  0  0
 80158  1  0  0  0
 81159  1  0  0  0
 82160  1  0  0  0
 82161  1  0  0  0
 82162  1  0  0  0
 83163  1  0  0  0
 83164  1  0  0  0
 83165  1  0  0  0
 83 88  1  0  0  0
 84 88  1  0  0  0
 84166  1  0  0  0
 84167  1  0  0  0
 84168  1  0  0  0
 85 87  1  0  0  0
 85169  1  0  0  0
 85170  1  0  0  0
 86171  1  0  0  0
 86172  1  0  0  0
 87 88  1  0  0  0
 87173  1  0  0  0
 87174  1  0  0  0
 88175  1  0  0  0
M  ISO  4   1 100  68 101  86 101  89 100
M  END
> <chiral flag>
0

> <version>
0

> <s_m_source_file>
/data/baiqing/PycharmProjects/Reinvent-master-3.2/result/LINK_invent/BTK/process_docking_weight1_custom_sum_contain_oxygen_bond_distance_aromatic_linkinvent_7_9_3/rearranged_h_0099.sdf

> <i_m_source_file_index>
29

> <r_mmod_Potential_Energy-OPLS-2005>
460.342681884766

> <r_mmod_Stretch_Energy-OPLS-2005>
117.281723022461

> <r_mmod_Bend_Energy-OPLS-2005>
210.16047668457

> <r_mmod_Torsional_Energy-OPLS-2005>
326.199554443359

> <r_mmod_Improper_Torsional_Energy-OPLS-2005>
20.370626449585

> <r_mmod_Van_der_Waal_Energy-OPLS-2005>
168.036041259766

> <r_mmod_Electrostatic_Energy-OPLS-2005>
-285.746734619141

> <r_mmod_Solvation_Energy-OPLS-2005>
-185.756851196289

> <b_mmod_Minimization_Converged-OPLS-2005>
0

> <r_mmod_RMS_Derivative-OPLS-2005>
0.918021023273468

$$$$
29
                    3D
 Structure written by MMmdl.
164171  0  0  1  0            999 V2000
  -30.6654  -14.5206   20.5454 C   0  0  0  0  0  0
  -30.4307  -12.3256   19.4358 C   0  0  0  0  0  0
  -29.5037  -12.5033   18.2133 C   0  0  0  0  0  0
  -28.0222  -12.3592   18.6201 C   0  0  0  0  0  0
  -27.6595  -13.2071   19.8690 C   0  0  2  0  0  0
  -28.7000  -13.0068   20.9948 C   0  0  0  0  0  0
  -25.2561  -13.8164   20.5660 C   0  0  0  0  0  0
  -24.1828  -13.0437   20.9178 C   0  0  0  0  0  0
  -24.6399  -11.6905   20.8732 C   0  0  0  0  0  0
  -23.9074  -10.4288   21.0395 C   0  0  0  0  0  0
  -24.3629   -9.4199   21.9173 C   0  0  0  0  0  0
  -23.6292   -8.2241   22.0758 C   0  0  0  0  0  0
  -22.4264   -8.0286   21.3554 C   0  0  0  0  0  0
  -21.9912   -9.0258   20.4651 C   0  0  0  0  0  0
  -22.7247  -10.2127   20.3045 C   0  0  0  0  0  0
  -21.6853   -6.0729   22.5290 C   0  0  0  0  0  0
  -21.4020   -6.5639   23.8223 C   0  0  0  0  0  0
  -21.3652   -5.6796   24.9188 C   0  0  0  0  0  0
  -21.6038   -4.3062   24.7243 C   0  0  0  0  0  0
  -21.8819   -3.8144   23.4369 C   0  0  0  0  0  0
  -21.9191   -4.6960   22.3417 C   0  0  0  0  0  0
  -22.7842  -13.5228   21.1835 C   0  0  0  0  0  0
  -22.1659   -4.2147   21.0993 F   0  0  0  0  0  0
  -21.5619   -3.4542   25.7749 F   0  0  0  0  0  0
  -30.0300  -13.3184   20.4462 N   0  0  0  0  0  0
  -26.3006  -12.9339   20.3317 N   0  0  0  0  0  0
  -25.9325  -11.6497   20.5759 N   0  0  0  0  0  0
  -22.0472  -12.8225   22.0395 N   0  0  0  0  0  0
  -25.4248  -15.1891   20.4048 N   0  0  0  0  0  0
  -31.8011  -14.7151   20.1040 O   0  0  0  0  0  0
  -21.6639   -6.8875   21.4249 O   0  0  0  0  0  0
  -22.3526  -14.5521   20.6667 O   0  0  0  0  0  0
  -24.6175  -31.8661   23.2066 C   0  0  0  0  0  0
  -25.9057  -32.4818   23.8377 C   0  0  1  0  0  0
  -27.2286  -27.3970   20.1050 C   0  0  0  0  0  0
  -25.5907  -33.8613   24.2295 N   0  0  0  0  0  0
  -23.4063  -30.4872   21.5481 C   0  0  2  0  0  0
  -24.8516  -28.9451   20.1152 C   0  0  0  0  0  0
  -22.7438  -29.4624   22.4962 C   0  0  0  0  0  0
  -18.0302  -28.1390   22.8487 C   0  0  0  0  0  0
  -24.1486  -36.7308   23.2639 C   0  0  0  0  0  0
  -25.9361  -30.8195   21.3630 C   0  0  0  0  0  0
  -26.0136  -29.4485   20.7139 C   0  0  0  0  0  0
  -27.2063  -28.6845   20.6992 C   0  0  0  0  0  0
  -26.0512  -26.9164   19.4947 C   0  0  0  0  0  0
  -24.8678  -27.6814   19.4993 C   0  0  0  0  0  0
  -23.6177  -29.8199   20.1624 C   0  0  0  0  0  0
  -25.4117  -36.3101   24.0327 C   0  0  1  0  0  0
  -20.5890  -28.3681   23.1303 C   0  0  2  0  0  0
  -20.6782  -26.9416   22.5413 C   0  0  0  0  0  0
  -19.5744  -26.6387   21.5220 C   0  0  0  0  0  0
  -18.1926  -26.7928   22.1630 C   0  0  0  0  0  0
  -19.1550  -28.8850   23.2882 C   0  0  0  0  0  0
  -18.9473  -30.1449   23.8904 C   0  0  0  0  0  0
  -17.6479  -30.6584   24.0579 C   0  0  0  0  0  0
  -25.9041  -34.9472   23.5099 C   0  0  0  0  0  0
  -16.5370  -29.9095   23.6326 C   0  0  0  0  0  0
  -16.7294  -28.6519   23.0325 C   0  0  0  0  0  0
  -26.4476  -31.6611   25.0720 C   0  0  0  0  0  0
  -25.3730  -31.3761   26.1472 C   0  0  0  0  0  0
  -27.0309  -30.3055   24.6085 C   0  0  0  0  0  0
  -27.6026  -32.4369   25.7491 C   0  0  0  0  0  0
  -27.5585  -37.1800   24.8475 C   0  0  0  0  0  0
  -21.4165  -29.3040   22.3713 N   0  0  0  0  0  0
  -26.4303  -37.3783   23.9418 N   0  0  0  0  0  0
  -24.6718  -31.0714   22.0990 N   0  0  0  0  0  0
  -23.4193  -28.8156   23.3013 O   0  0  0  0  0  0
  -28.3992  -26.6584   20.0813 O   0  0  0  0  0  0
  -26.5589  -34.8921   22.4654 O   0  0  0  0  0  0
  -23.5364  -32.1437   23.7440 O   0  0  0  0  0  0
  -28.5676  -24.0610   18.2011 C   0  0  0  0  0  0
  -30.5738  -25.1311   19.2392 C   0  0  0  0  0  0
  -29.6933  -20.6250   22.3152 C   0  0  0  0  0  0
  -28.9614  -17.9027   21.2201 C   0  0  0  0  0  0
  -29.7339  -23.0012   20.2323 C   0  0  0  0  0  0
  -30.0957  -16.9869   20.6544 C   0  0  0  0  0  0
  -28.6433  -19.2670   20.4941 C   0  0  0  0  0  0
  -28.7750  -21.7645   20.3069 C   0  0  0  0  0  0
  -28.3581  -25.2511   20.4391 C   0  0  0  0  0  0
  -29.2751  -24.3459   19.5411 C   0  0  0  0  0  0
  -29.8893  -15.5486   20.9570 N   0  0  0  0  0  0
  -29.4088  -20.5116   20.8630 N   0  3  1  0  0  0
  -31.4749  -12.4339   19.1362 H   0  0  0  0  0  0
  -30.3443  -11.3184   19.8460 H   0  0  0  0  0  0
  -29.7520  -11.7711   17.4431 H   0  0  0  0  0  0
  -29.6685  -13.4850   17.7655 H   0  0  0  0  0  0
  -27.8348  -11.3046   18.8223 H   0  0  0  0  0  0
  -27.3755  -12.6261   17.7827 H   0  0  0  0  0  0
  -27.6965  -14.2511   19.5565 H   0  0  0  0  0  0
  -28.6835  -11.9761   21.3498 H   0  0  0  0  0  0
  -28.4595  -13.6189   21.8645 H   0  0  0  0  0  0
  -25.2776   -9.5669   22.4748 H   0  0  0  0  0  0
  -23.9989   -7.4635   22.7485 H   0  0  0  0  0  0
  -21.0840   -8.8795   19.8959 H   0  0  0  0  0  0
  -22.3724  -10.9668   19.6152 H   0  0  0  0  0  0
  -21.2031   -7.6147   23.9742 H   0  0  0  0  0  0
  -21.1456   -6.0518   25.9093 H   0  0  0  0  0  0
  -22.0600   -2.7608   23.2885 H   0  0  0  0  0  0
  -22.4083  -11.9910   22.4816 H   0  0  0  0  0  0
  -21.1085  -13.1253   22.2571 H   0  0  0  0  0  0
  -24.6480  -15.8340   20.5013 H   0  0  0  0  0  0
  -26.2666  -15.6316   20.0606 H   0  0  0  0  0  0
  -26.7110  -32.5514   23.1119 H   0  0  0  0  0  0
  -25.0132  -33.9795   25.0488 H   0  0  0  0  0  0
  -22.6970  -31.3056   21.4070 H   0  0  0  0  0  0
  -23.3740  -35.9647   23.3324 H   0  0  0  0  0  0
  -24.3575  -36.8917   22.2049 H   0  0  0  0  0  0
  -23.7237  -37.6517   23.6645 H   0  0  0  0  0  0
  -26.0424  -31.5795   20.5883 H   0  0  0  0  0  0
  -26.8252  -30.8806   21.9790 H   0  0  0  0  0  0
  -28.1067  -29.0723   21.1547 H   0  0  0  0  0  0
  -26.0443  -25.9548   19.0005 H   0  0  0  0  0  0
  -23.9781  -27.2943   19.0224 H   0  0  0  0  0  0
  -23.7348  -30.5959   19.4051 H   0  0  0  0  0  0
  -22.7401  -29.2454   19.8615 H   0  0  0  0  0  0
  -25.1275  -36.1955   25.0813 H   0  0  0  0  0  0
  -20.9976  -28.3256   24.1424 H   0  0  0  0  0  0
  -20.5689  -26.2309   23.3616 H   0  0  0  0  0  0
  -21.6649  -26.7453   22.1188 H   0  0  0  0  0  0
  -19.6907  -25.6294   21.1242 H   0  0  0  0  0  0
  -19.6664  -27.3205   20.6753 H   0  0  0  0  0  0
  -17.4198  -26.6703   21.4030 H   0  0  0  0  0  0
  -18.0313  -26.0054   22.9013 H   0  0  0  0  0  0
  -19.7953  -30.7259   24.2261 H   0  0  0  0  0  0
  -17.5046  -31.6262   24.5194 H   0  0  0  0  0  0
  -15.5366  -30.3011   23.7630 H   0  0  0  0  0  0
  -15.8697  -28.0861   22.6995 H   0  0  0  0  0  0
  -24.5885  -30.7123   25.7832 H   0  0  0  0  0  0
  -24.8942  -32.2942   26.4882 H   0  0  0  0  0  0
  -25.8063  -30.8964   27.0255 H   0  0  0  0  0  0
  -26.2857  -29.6832   24.1121 H   0  0  0  0  0  0
  -27.4093  -29.7271   25.4523 H   0  0  0  0  0  0
  -27.8674  -30.4406   23.9230 H   0  0  0  0  0  0
  -27.2601  -33.3666   26.2051 H   0  0  0  0  0  0
  -28.3821  -32.6949   25.0313 H   0  0  0  0  0  0
  -28.0691  -31.8518   26.5429 H   0  0  0  0  0  0
  -28.2582  -38.0114   24.7508 H   0  0  0  0  0  0
  -28.1076  -36.2622   24.6288 H   0  0  0  0  0  0
  -27.2296  -37.1469   25.8880 H   0  0  0  0  0  0
  -20.9345  -29.8850   21.6994 H   0  0  0  0  0  0
  -26.0179  -38.2854   24.1430 H   0  0  0  0  0  0
  -29.2081  -23.4973   17.5234 H   0  0  0  0  0  0
  -28.2907  -24.9879   17.6966 H   0  0  0  0  0  0
  -27.6473  -23.4907   18.3344 H   0  0  0  0  0  0
  -31.2509  -24.5612   18.6036 H   0  0  0  0  0  0
  -31.1138  -25.3723   20.1554 H   0  0  0  0  0  0
  -30.3772  -26.0700   18.7198 H   0  0  0  0  0  0
  -28.7722  -20.5918   22.8974 H   0  0  0  0  0  0
  -30.2115  -21.5494   22.5639 H   0  0  0  0  0  0
  -30.3520  -19.8254   22.6537 H   0  0  0  0  0  0
  -29.0817  -18.0314   22.2956 H   0  0  0  0  0  0
  -28.0371  -17.3283   21.1351 H   0  0  0  0  0  0
  -30.6263  -22.6463   19.7158 H   0  0  0  0  0  0
  -30.0769  -23.2554   21.2334 H   0  0  0  0  0  0
  -31.0669  -17.3096   21.0337 H   0  0  0  0  0  0
  -30.1383  -17.0883   19.5686 H   0  0  0  0  0  0
  -27.5924  -19.4849   20.6979 H   0  0  0  0  0  0
  -28.6953  -19.1205   19.4144 H   0  0  0  0  0  0
  -28.4241  -21.5345   19.3007 H   0  0  0  0  0  0
  -27.8865  -22.0207   20.8864 H   0  0  0  0  0  0
  -28.7123  -25.2018   21.4698 H   0  0  0  0  0  0
  -27.3477  -24.8427   20.4702 H   0  0  0  0  0  0
  -28.9802  -15.2802   21.3049 H   0  0  0  0  0  0
  -30.3046  -20.4202   20.4071 H   0  0  0  0  0  0
  1 25  1  0  0  0
  1 30  2  0  0  0
  1 81  1  0  0  0
  2  3  1  0  0  0
  2 25  1  0  0  0
  2 83  1  0  0  0
  2 84  1  0  0  0
  3  4  1  0  0  0
  3 85  1  0  0  0
  3 86  1  0  0  0
  4  5  1  0  0  0
  4 87  1  0  0  0
  4 88  1  0  0  0
  5  6  1  0  0  0
  5 26  1  0  0  0
  5 89  1  0  0  0
  6 25  1  0  0  0
  6 90  1  0  0  0
  6 91  1  0  0  0
  7  8  2  0  0  0
  7 26  1  0  0  0
  7 29  1  0  0  0
  8  9  1  0  0  0
  8 22  1  0  0  0
  9 10  1  0  0  0
  9 27  2  0  0  0
 10 11  2  0  0  0
 10 15  1  0  0  0
 11 12  1  0  0  0
 11 92  1  0  0  0
 12 13  2  0  0  0
 12 93  1  0  0  0
 13 14  1  0  0  0
 13 31  1  0  0  0
 14 15  2  0  0  0
 14 94  1  0  0  0
 15 95  1  0  0  0
 16 17  2  0  0  0
 16 21  1  0  0  0
 16 31  1  0  0  0
 17 18  1  0  0  0
 17 96  1  0  0  0
 18 19  2  0  0  0
 18 97  1  0  0  0
 19 20  1  0  0  0
 19 24  1  0  0  0
 20 21  2  0  0  0
 20 98  1  0  0  0
 21 23  1  0  0  0
 22 28  1  0  0  0
 22 32  2  0  0  0
 26 27  1  0  0  0
 28 99  1  0  0  0
 28100  1  0  0  0
 29101  1  0  0  0
 29102  1  0  0  0
 33 34  1  0  0  0
 33 66  1  0  0  0
 33 70  2  0  0  0
 34 36  1  0  0  0
 34 59  1  0  0  0
 34103  1  0  0  0
 35 44  2  0  0  0
 35 45  1  0  0  0
 35 68  1  0  0  0
 36 56  1  0  0  0
 36104  1  0  0  0
 37 39  1  0  0  0
 37 47  1  0  0  0
 37 66  1  0  0  0
 37105  1  0  0  0
 38 43  2  0  0  0
 38 46  1  0  0  0
 38 47  1  0  0  0
 39 64  1  0  0  0
 39 67  2  0  0  0
 40 52  1  0  0  0
 40 53  2  0  0  0
 40 58  1  0  0  0
 41106  1  0  0  0
 41107  1  0  0  0
 41108  1  0  0  0
 41 48  1  0  0  0
 42 43  1  0  0  0
 42 66  1  0  0  0
 42109  1  0  0  0
 42110  1  0  0  0
 43 44  1  0  0  0
 44111  1  0  0  0
 45 46  2  0  0  0
 45112  1  0  0  0
 46113  1  0  0  0
 47114  1  0  0  0
 47115  1  0  0  0
 48 56  1  0  0  0
 48 65  1  0  0  0
 48116  1  0  0  0
 49 50  1  0  0  0
 49 53  1  0  0  0
 49 64  1  0  0  0
 49117  1  0  0  0
 50 51  1  0  0  0
 50118  1  0  0  0
 50119  1  0  0  0
 51 52  1  0  0  0
 51120  1  0  0  0
 51121  1  0  0  0
 52122  1  0  0  0
 52123  1  0  0  0
 53 54  1  0  0  0
 54 55  2  0  0  0
 54124  1  0  0  0
 55 57  1  0  0  0
 55125  1  0  0  0
 56 69  2  0  0  0
 57 58  2  0  0  0
 57126  1  0  0  0
 58127  1  0  0  0
 59 60  1  0  0  0
 59 61  1  0  0  0
 59 62  1  0  0  0
 60128  1  0  0  0
 60129  1  0  0  0
 60130  1  0  0  0
 61131  1  0  0  0
 61132  1  0  0  0
 61133  1  0  0  0
 62134  1  0  0  0
 62135  1  0  0  0
 62136  1  0  0  0
 63 65  1  0  0  0
 63137  1  0  0  0
 63138  1  0  0  0
 63139  1  0  0  0
 64140  1  0  0  0
 65141  1  0  0  0
 68 79  1  0  0  0
 71142  1  0  0  0
 71143  1  0  0  0
 71144  1  0  0  0
 71 80  1  0  0  0
 72 80  1  0  0  0
 72145  1  0  0  0
 72146  1  0  0  0
 72147  1  0  0  0
 73148  1  0  0  0
 73149  1  0  0  0
 73150  1  0  0  0
 73 82  1  0  0  0
 74 76  1  0  0  0
 74 77  1  0  0  0
 74151  1  0  0  0
 74152  1  0  0  0
 75 78  1  0  0  0
 75 80  1  0  0  0
 75153  1  0  0  0
 75154  1  0  0  0
 76 81  1  0  0  0
 76155  1  0  0  0
 76156  1  0  0  0
 77 82  1  0  0  0
 77157  1  0  0  0
 77158  1  0  0  0
 78 82  1  0  0  0
 78159  1  0  0  0
 78160  1  0  0  0
 79 80  1  0  0  0
 79161  1  0  0  0
 79162  1  0  0  0
 81163  1  0  0  0
 82164  1  0  0  0
M  CHG  1  82   1
M  ISO  4   1 100  68 101  79 101  81 100
M  END
> <chiral flag>
0

> <version>
0

> <s_m_source_file>
/data/baiqing/PycharmProjects/Reinvent-master-3.2/result/LINK_invent/BTK/process_docking_weight1_custom_sum_contain_oxygen_bond_distance_aromatic_linkinvent_7_9_3/rearranged_h_0099.sdf

> <i_m_source_file_index>
30

> <r_mmod_Potential_Energy-OPLS-2005>
-91.2860717773438

> <r_mmod_Stretch_Energy-OPLS-2005>
51.4876136779785

> <r_mmod_Bend_Energy-OPLS-2005>
125.639419555664

> <r_mmod_Torsional_Energy-OPLS-2005>
249.491058349609

> <r_mmod_Improper_Torsional_Energy-OPLS-2005>
5.7082462310791

> <r_mmod_Van_der_Waal_Energy-OPLS-2005>
133.461715698242

> <r_mmod_Electrostatic_Energy-OPLS-2005>
-223.298370361328

> <r_mmod_Solvation_Energy-OPLS-2005>
-452.037261962891

> <b_mmod_Minimization_Converged-OPLS-2005>
0

> <r_mmod_RMS_Derivative-OPLS-2005>
2.57955574989319

$$$$
30
                    3D
 Structure written by MMmdl.
165173  0  0  1  0            999 V2000
  -30.6418  -14.6833   20.3710 C   0  0  0  0  0  0
  -30.4362  -12.3815   19.4648 C   0  0  0  0  0  0
  -29.5044  -12.3548   18.2321 C   0  0  0  0  0  0
  -28.0186  -12.2821   18.6470 C   0  0  0  0  0  0
  -27.6377  -13.2023   19.8384 C   0  0  2  0  0  0
  -28.6972  -13.1695   20.9606 C   0  0  0  0  0  0
  -25.2541  -13.8152   20.5708 C   0  0  0  0  0  0
  -24.1794  -13.0432   20.9202 C   0  0  0  0  0  0
  -24.6348  -11.6904   20.8783 C   0  0  0  0  0  0
  -23.9029  -10.4291   21.0447 C   0  0  0  0  0  0
  -24.3592   -9.4205   21.9218 C   0  0  0  0  0  0
  -23.6271   -8.2239   22.0779 C   0  0  0  0  0  0
  -22.4259   -8.0280   21.3554 C   0  0  0  0  0  0
  -21.9886   -9.0260   20.4664 C   0  0  0  0  0  0
  -22.7210  -10.2146   20.3080 C   0  0  0  0  0  0
  -21.6850   -6.0721   22.5272 C   0  0  0  0  0  0
  -21.4019   -6.5632   23.8205 C   0  0  0  0  0  0
  -21.3658   -5.6792   24.9169 C   0  0  0  0  0  0
  -21.6043   -4.3054   24.7226 C   0  0  0  0  0  0
  -21.8815   -3.8140   23.4341 C   0  0  0  0  0  0
  -21.9190   -4.6951   22.3394 C   0  0  0  0  0  0
  -22.7823  -13.5243   21.1855 C   0  0  0  0  0  0
  -22.1658   -4.2137   21.0975 F   0  0  0  0  0  0
  -21.5633   -3.4540   25.7740 F   0  0  0  0  0  0
  -29.9945  -13.4744   20.3477 N   0  0  0  0  0  0
  -26.2924  -12.9287   20.3306 N   0  0  0  0  0  0
  -25.9272  -11.6473   20.5829 N   0  0  0  0  0  0
  -22.0465  -12.8250   22.0423 N   0  0  0  0  0  0
  -25.4295  -15.1870   20.4134 N   0  0  0  0  0  0
  -31.8677  -14.7505   20.2533 O   0  0  0  0  0  0
  -21.6637   -6.8864   21.4236 O   0  0  0  0  0  0
  -22.3527  -14.5539   20.6691 O   0  0  0  0  0  0
  -24.6204  -31.8630   23.2071 C   0  0  0  0  0  0
  -25.9071  -32.4802   23.8382 C   0  0  1  0  0  0
  -27.2271  -27.3604   20.1319 C   0  0  0  0  0  0
  -25.5906  -33.8602   24.2303 N   0  0  0  0  0  0
  -23.4138  -30.4857   21.5477 C   0  0  2  0  0  0
  -24.8647  -28.9436   20.1166 C   0  0  0  0  0  0
  -22.7448  -29.4633   22.4964 C   0  0  0  0  0  0
  -18.0285  -28.1373   22.8496 C   0  0  0  0  0  0
  -24.1488  -36.7303   23.2640 C   0  0  0  0  0  0
  -25.9491  -30.8050   21.3766 C   0  0  0  0  0  0
  -26.0260  -29.4318   20.7299 C   0  0  0  0  0  0
  -27.2125  -28.6478   20.7364 C   0  0  0  0  0  0
  -26.0611  -26.9280   19.4693 C   0  0  0  0  0  0
  -24.8801  -27.6926   19.4796 C   0  0  0  0  0  0
  -23.6292  -29.8171   20.1638 C   0  0  0  0  0  0
  -25.4113  -36.3098   24.0332 C   0  0  1  0  0  0
  -20.5876  -28.3671   23.1299 C   0  0  2  0  0  0
  -20.6770  -26.9399   22.5410 C   0  0  0  0  0  0
  -19.5745  -26.6381   21.5209 C   0  0  0  0  0  0
  -18.1930  -26.7920   22.1629 C   0  0  0  0  0  0
  -19.1534  -28.8840   23.2895 C   0  0  0  0  0  0
  -18.9458  -30.1444   23.8903 C   0  0  0  0  0  0
  -17.6455  -30.6579   24.0561 C   0  0  0  0  0  0
  -25.9039  -34.9464   23.5117 C   0  0  0  0  0  0
  -16.5346  -29.9073   23.6330 C   0  0  0  0  0  0
  -16.7272  -28.6490   23.0357 C   0  0  0  0  0  0
  -26.4485  -31.6589   25.0721 C   0  0  0  0  0  0
  -25.3740  -31.3701   26.1460 C   0  0  0  0  0  0
  -27.0323  -30.3020   24.6138 C   0  0  0  0  0  0
  -27.6055  -32.4315   25.7484 C   0  0  0  0  0  0
  -27.5577  -37.1809   24.8468 C   0  0  0  0  0  0
  -21.4167  -29.3032   22.3700 N   0  0  0  0  0  0
  -26.4295  -37.3783   23.9402 N   0  0  0  0  0  0
  -24.6789  -31.0671   22.1013 N   0  0  0  0  0  0
  -23.4192  -28.8175   23.3030 O   0  0  0  0  0  0
  -28.3546  -26.5461   20.0988 O   0  0  0  0  0  0
  -26.5609  -34.8924   22.4682 O   0  0  0  0  0  0
  -23.5378  -32.1422   23.7420 O   0  0  0  0  0  0
  -27.2980  -23.1749   19.9244 C   0  0  0  0  0  0
  -29.6033  -22.9781   20.9560 C   0  0  0  0  0  0
  -27.2070  -24.3463   20.9421 C   0  0  0  0  0  0
  -29.7062  -24.5217   20.6772 C   0  0  0  0  0  0
  -28.5988  -22.2883   19.9883 C   0  0  1  0  0  0
  -28.4027  -25.3443   20.9413 C   0  0  2  0  0  0
  -29.3909  -15.9943   18.7834 C   0  0  0  0  0  0
  -27.5092  -20.2911   19.0259 C   0  0  0  0  0  0
  -29.1009  -18.3070   20.6513 C   0  0  0  0  0  0
  -30.2546  -17.2010   20.6634 C   0  0  0  0  0  0
  -29.4782  -19.8514   20.4594 C   0  0  0  0  0  0
  -29.8749  -15.8218   20.1694 N   0  0  0  0  0  0
  -28.3154  -20.7973   20.1769 N   0  3  1  0  0  0
  -31.4763  -12.4983   19.1523 H   0  0  0  0  0  0
  -30.3875  -11.4331   20.0009 H   0  0  0  0  0  0
  -29.7456  -11.4816   17.6248 H   0  0  0  0  0  0
  -29.6831  -13.1962   17.5711 H   0  0  0  0  0  0
  -27.8244  -11.2434   18.9168 H   0  0  0  0  0  0
  -27.3773  -12.4936   17.7898 H   0  0  0  0  0  0
  -27.6084  -14.2069   19.4347 H   0  0  0  0  0  0
  -28.7267  -12.1942   21.4481 H   0  0  0  0  0  0
  -28.4604  -13.9028   21.7339 H   0  0  0  0  0  0
  -25.2744   -9.5688   22.4786 H   0  0  0  0  0  0
  -23.9993   -7.4628   22.7478 H   0  0  0  0  0  0
  -21.0825   -8.8771   19.8956 H   0  0  0  0  0  0
  -22.3672  -10.9689   19.6191 H   0  0  0  0  0  0
  -21.2023   -7.6148   23.9705 H   0  0  0  0  0  0
  -21.1488   -6.0526   25.9068 H   0  0  0  0  0  0
  -22.0596   -2.7599   23.2850 H   0  0  0  0  0  0
  -22.4077  -11.9906   22.4805 H   0  0  0  0  0  0
  -21.1093  -13.1312   22.2628 H   0  0  0  0  0  0
  -24.6725  -15.8482   20.5479 H   0  0  0  0  0  0
  -26.2963  -15.6288   20.1354 H   0  0  0  0  0  0
  -26.7137  -32.5507   23.1137 H   0  0  0  0  0  0
  -25.0054  -33.9752   25.0448 H   0  0  0  0  0  0
  -22.7051  -31.3045   21.4042 H   0  0  0  0  0  0
  -23.3742  -35.9642   23.3327 H   0  0  0  0  0  0
  -24.3576  -36.8897   22.2048 H   0  0  0  0  0  0
  -23.7248  -37.6516   23.6646 H   0  0  0  0  0  0
  -26.0728  -31.5643   20.6034 H   0  0  0  0  0  0
  -26.8318  -30.8595   22.0020 H   0  0  0  0  0  0
  -28.1063  -29.0169   21.2191 H   0  0  0  0  0  0
  -26.0631  -25.9818   18.9477 H   0  0  0  0  0  0
  -23.9957  -27.3152   18.9861 H   0  0  0  0  0  0
  -23.7466  -30.5911   19.4043 H   0  0  0  0  0  0
  -22.7517  -29.2403   19.8645 H   0  0  0  0  0  0
  -25.1296  -36.1963   25.0826 H   0  0  0  0  0  0
  -20.9980  -28.3236   24.1413 H   0  0  0  0  0  0
  -20.5665  -26.2276   23.3605 H   0  0  0  0  0  0
  -21.6643  -26.7425   22.1203 H   0  0  0  0  0  0
  -19.6898  -25.6295   21.1229 H   0  0  0  0  0  0
  -19.6674  -27.3203   20.6753 H   0  0  0  0  0  0
  -17.4195  -26.6679   21.4032 H   0  0  0  0  0  0
  -18.0325  -26.0048   22.9016 H   0  0  0  0  0  0
  -19.7931  -30.7270   24.2265 H   0  0  0  0  0  0
  -17.5006  -31.6263   24.5161 H   0  0  0  0  0  0
  -15.5346  -30.2976   23.7640 H   0  0  0  0  0  0
  -15.8677  -28.0807   22.7064 H   0  0  0  0  0  0
  -24.5928  -30.7032   25.7787 H   0  0  0  0  0  0
  -24.8918  -32.2855   26.4898 H   0  0  0  0  0  0
  -25.8089  -30.8874   27.0225 H   0  0  0  0  0  0
  -26.2873  -29.6771   24.1195 H   0  0  0  0  0  0
  -27.4068  -29.7272   25.4621 H   0  0  0  0  0  0
  -27.8729  -30.4312   23.9317 H   0  0  0  0  0  0
  -27.2673  -33.3619   26.2067 H   0  0  0  0  0  0
  -28.3863  -32.6874   25.0303 H   0  0  0  0  0  0
  -28.0731  -31.8439   26.5398 H   0  0  0  0  0  0
  -28.2617  -38.0085   24.7501 H   0  0  0  0  0  0
  -28.1056  -36.2621   24.6324 H   0  0  0  0  0  0
  -27.2297  -37.1494   25.8872 H   0  0  0  0  0  0
  -20.9336  -29.8751   21.6911 H   0  0  0  0  0  0
  -26.0190  -38.2865   24.1392 H   0  0  0  0  0  0
  -27.2040  -23.5891   18.9200 H   0  0  0  0  0  0
  -26.4049  -22.5689   20.0755 H   0  0  0  0  0  0
  -29.3108  -22.8108   21.9929 H   0  0  0  0  0  0
  -30.5914  -22.5300   20.8412 H   0  0  0  0  0  0
  -27.1784  -23.8902   21.9331 H   0  0  0  0  0  0
  -26.2412  -24.8416   20.8867 H   0  0  0  0  0  0
  -29.9988  -24.6554   19.6348 H   0  0  0  0  0  0
  -30.5196  -24.9461   21.2675 H   0  0  0  0  0  0
  -29.0627  -22.3597   19.0016 H   0  0  0  0  0  0
  -28.4645  -25.7302   21.9606 H   0  0  0  0  0  0
  -29.8463  -16.8536   18.2869 H   0  0  0  0  0  0
  -28.3128  -16.1445   18.7560 H   0  0  0  0  0  0
  -29.6104  -15.1583   18.1313 H   0  0  0  0  0  0
  -28.1538  -19.9624   18.2102 H   0  0  0  0  0  0
  -26.8351  -21.0280   18.5924 H   0  0  0  0  0  0
  -26.8753  -19.4568   19.3226 H   0  0  0  0  0  0
  -28.5200  -18.2025   21.5681 H   0  0  0  0  0  0
  -28.4006  -18.0394   19.8692 H   0  0  0  0  0  0
  -31.0886  -17.5554   20.0546 H   0  0  0  0  0  0
  -30.6632  -17.1208   21.6721 H   0  0  0  0  0  0
  -30.1848  -19.9436   19.6338 H   0  0  0  0  0  0
  -30.0091  -20.1965   21.3469 H   0  0  0  0  0  0
  -27.7180  -20.7425   20.9886 H   0  0  0  0  0  0
  1 25  1  0  0  0
  1 30  2  0  0  0
  1 82  1  0  0  0
  2  3  1  0  0  0
  2 25  1  0  0  0
  2 84  1  0  0  0
  2 85  1  0  0  0
  3  4  1  0  0  0
  3 86  1  0  0  0
  3 87  1  0  0  0
  4  5  1  0  0  0
  4 88  1  0  0  0
  4 89  1  0  0  0
  5  6  1  0  0  0
  5 26  1  0  0  0
  5 90  1  0  0  0
  6 25  1  0  0  0
  6 91  1  0  0  0
  6 92  1  0  0  0
  7  8  2  0  0  0
  7 26  1  0  0  0
  7 29  1  0  0  0
  8  9  1  0  0  0
  8 22  1  0  0  0
  9 10  1  0  0  0
  9 27  2  0  0  0
 10 11  2  0  0  0
 10 15  1  0  0  0
 11 12  1  0  0  0
 11 93  1  0  0  0
 12 13  2  0  0  0
 12 94  1  0  0  0
 13 14  1  0  0  0
 13 31  1  0  0  0
 14 15  2  0  0  0
 14 95  1  0  0  0
 15 96  1  0  0  0
 16 17  2  0  0  0
 16 21  1  0  0  0
 16 31  1  0  0  0
 17 18  1  0  0  0
 17 97  1  0  0  0
 18 19  2  0  0  0
 18 98  1  0  0  0
 19 20  1  0  0  0
 19 24  1  0  0  0
 20 21  2  0  0  0
 20 99  1  0  0  0
 21 23  1  0  0  0
 22 28  1  0  0  0
 22 32  2  0  0  0
 26 27  1  0  0  0
 28100  1  0  0  0
 28101  1  0  0  0
 29102  1  0  0  0
 29103  1  0  0  0
 33 34  1  0  0  0
 33 66  1  0  0  0
 33 70  2  0  0  0
 34 36  1  0  0  0
 34 59  1  0  0  0
 34104  1  0  0  0
 35 44  2  0  0  0
 35 45  1  0  0  0
 35 68  1  0  0  0
 36 56  1  0  0  0
 36105  1  0  0  0
 37 39  1  0  0  0
 37 47  1  0  0  0
 37 66  1  0  0  0
 37106  1  0  0  0
 38 43  2  0  0  0
 38 46  1  0  0  0
 38 47  1  0  0  0
 39 64  1  0  0  0
 39 67  2  0  0  0
 40 52  1  0  0  0
 40 53  2  0  0  0
 40 58  1  0  0  0
 41107  1  0  0  0
 41108  1  0  0  0
 41109  1  0  0  0
 41 48  1  0  0  0
 42 43  1  0  0  0
 42 66  1  0  0  0
 42110  1  0  0  0
 42111  1  0  0  0
 43 44  1  0  0  0
 44112  1  0  0  0
 45 46  2  0  0  0
 45113  1  0  0  0
 46114  1  0  0  0
 47115  1  0  0  0
 47116  1  0  0  0
 48 56  1  0  0  0
 48 65  1  0  0  0
 48117  1  0  0  0
 49 50  1  0  0  0
 49 53  1  0  0  0
 49 64  1  0  0  0
 49118  1  0  0  0
 50 51  1  0  0  0
 50119  1  0  0  0
 50120  1  0  0  0
 51 52  1  0  0  0
 51121  1  0  0  0
 51122  1  0  0  0
 52123  1  0  0  0
 52124  1  0  0  0
 53 54  1  0  0  0
 54 55  2  0  0  0
 54125  1  0  0  0
 55 57  1  0  0  0
 55126  1  0  0  0
 56 69  2  0  0  0
 57 58  2  0  0  0
 57127  1  0  0  0
 58128  1  0  0  0
 59 60  1  0  0  0
 59 61  1  0  0  0
 59 62  1  0  0  0
 60129  1  0  0  0
 60130  1  0  0  0
 60131  1  0  0  0
 61132  1  0  0  0
 61133  1  0  0  0
 61134  1  0  0  0
 62135  1  0  0  0
 62136  1  0  0  0
 62137  1  0  0  0
 63 65  1  0  0  0
 63138  1  0  0  0
 63139  1  0  0  0
 63140  1  0  0  0
 64141  1  0  0  0
 65142  1  0  0  0
 68 76  1  0  0  0
 71 73  1  0  0  0
 71143  1  0  0  0
 71144  1  0  0  0
 71 75  1  0  0  0
 72 74  1  0  0  0
 72 75  1  0  0  0
 72145  1  0  0  0
 72146  1  0  0  0
 73 76  1  0  0  0
 73147  1  0  0  0
 73148  1  0  0  0
 74 76  1  0  0  0
 74149  1  0  0  0
 74150  1  0  0  0
 75 83  1  0  0  0
 75151  1  0  0  0
 76152  1  0  0  0
 77 82  1  0  0  0
 77153  1  0  0  0
 77154  1  0  0  0
 77155  1  0  0  0
 78156  1  0  0  0
 78157  1  0  0  0
 78158  1  0  0  0
 78 83  1  0  0  0
 79 80  1  0  0  0
 79 81  1  0  0  0
 79159  1  0  0  0
 79160  1  0  0  0
 80 82  1  0  0  0
 80161  1  0  0  0
 80162  1  0  0  0
 81 83  1  0  0  0
 81163  1  0  0  0
 81164  1  0  0  0
 83165  1  0  0  0
M  CHG  1  83   1
M  ISO  4   1 100  68 101  76 101  82 100
M  END
> <chiral flag>
0

> <version>
0

> <s_m_source_file>
/data/baiqing/PycharmProjects/Reinvent-master-3.2/result/LINK_invent/BTK/process_docking_weight1_custom_sum_contain_oxygen_bond_distance_aromatic_linkinvent_7_9_3/rearranged_h_0099.sdf

> <i_m_source_file_index>
31

> <r_mmod_Potential_Energy-OPLS-2005>
262.093414306641

> <r_mmod_Stretch_Energy-OPLS-2005>
80.6007995605469

> <r_mmod_Bend_Energy-OPLS-2005>
157.599639892578

> <r_mmod_Torsional_Energy-OPLS-2005>
385.065368652344

> <r_mmod_Improper_Torsional_Energy-OPLS-2005>
13.2440299987793

> <r_mmod_Van_der_Waal_Energy-OPLS-2005>
154.424789428711

> <r_mmod_Electrostatic_Energy-OPLS-2005>
-158.762023925781

> <r_mmod_Solvation_Energy-OPLS-2005>
-432.871002197266

> <b_mmod_Minimization_Converged-OPLS-2005>
0

> <r_mmod_RMS_Derivative-OPLS-2005>
1.95348465442657

$$$$
31
                    3D
 Structure written by MMmdl.
148156  0  0  1  0            999 V2000
  -30.3743  -15.3871   20.3541 C   0  0  0  0  0  0
  -30.4379  -12.8915   19.5481 C   0  0  0  0  0  0
  -29.5446  -12.6064   18.3111 C   0  0  0  0  0  0
  -28.1014  -12.2970   18.7406 C   0  0  0  0  0  0
  -27.6079  -13.2844   19.8251 C   0  0  2  0  0  0
  -28.6311  -13.5028   20.9618 C   0  0  0  0  0  0
  -25.2362  -13.8251   20.5760 C   0  0  0  0  0  0
  -24.1721  -13.0430   20.9264 C   0  0  0  0  0  0
  -24.6388  -11.6933   20.8753 C   0  0  0  0  0  0
  -23.9082  -10.4290   21.0395 C   0  0  0  0  0  0
  -24.3627   -9.4207   21.9179 C   0  0  0  0  0  0
  -23.6295   -8.2245   22.0752 C   0  0  0  0  0  0
  -22.4274   -8.0279   21.3543 C   0  0  0  0  0  0
  -21.9913   -9.0248   20.4639 C   0  0  0  0  0  0
  -22.7247  -10.2130   20.3046 C   0  0  0  0  0  0
  -21.6860   -6.0728   22.5270 C   0  0  0  0  0  0
  -21.4014   -6.5633   23.8204 C   0  0  0  0  0  0
  -21.3659   -5.6790   24.9167 C   0  0  0  0  0  0
  -21.6048   -4.3052   24.7220 C   0  0  0  0  0  0
  -21.8818   -3.8139   23.4342 C   0  0  0  0  0  0
  -21.9193   -4.6956   22.3394 C   0  0  0  0  0  0
  -22.7737  -13.5181   21.1906 C   0  0  0  0  0  0
  -22.1663   -4.2143   21.0973 F   0  0  0  0  0  0
  -21.5630   -3.4535   25.7729 F   0  0  0  0  0  0
  -29.8537  -14.0469   20.3420 N   0  0  0  0  0  0
  -26.2792  -12.9544   20.3219 N   0  0  0  0  0  0
  -25.9331  -11.6642   20.5715 N   0  0  0  0  0  0
  -22.0398  -12.8164   22.0462 N   0  0  0  0  0  0
  -25.3987  -15.1986   20.4199 N   0  0  0  0  0  0
  -31.5889  -15.3934   20.0893 O   0  0  0  0  0  0
  -21.6640   -6.8872   21.4231 O   0  0  0  0  0  0
  -22.3420  -14.5482   20.6749 O   0  0  0  0  0  0
  -24.6695  -31.8129   23.1642 C   0  0  0  0  0  0
  -25.9337  -32.4530   23.8126 C   0  0  1  0  0  0
  -27.2213  -26.8480   20.1985 C   0  0  0  0  0  0
  -25.5974  -33.8356   24.2017 N   0  0  0  0  0  0
  -23.4887  -30.4213   21.5134 C   0  0  2  0  0  0
  -24.9434  -28.7929   20.1078 C   0  0  0  0  0  0
  -22.7701  -29.4381   22.4753 C   0  0  0  0  0  0
  -18.0321  -28.1415   22.8451 C   0  0  0  0  0  0
  -24.1487  -36.7189   23.2653 C   0  0  0  0  0  0
  -26.0604  -30.5955   21.4032 C   0  0  0  0  0  0
  -26.1263  -29.1766   20.7504 C   0  0  0  0  0  0
  -27.2524  -28.2259   20.7701 C   0  0  0  0  0  0
  -26.0122  -26.6377   19.4936 C   0  0  0  0  0  0
  -24.9173  -27.5467   19.4576 C   0  0  0  0  0  0
  -23.7322  -29.7304   20.1410 C   0  0  0  0  0  0
  -25.4130  -36.2937   24.0294 C   0  0  1  0  0  0
  -20.5960  -28.3757   23.1174 C   0  0  2  0  0  0
  -20.6803  -26.9428   22.5407 C   0  0  0  0  0  0
  -19.5776  -26.6370   21.5224 C   0  0  0  0  0  0
  -18.1955  -26.7949   22.1614 C   0  0  0  0  0  0
  -19.1591  -28.8906   23.2805 C   0  0  0  0  0  0
  -18.9499  -30.1497   23.8844 C   0  0  0  0  0  0
  -17.6495  -30.6602   24.0555 C   0  0  0  0  0  0
  -25.9105  -34.9320   23.4982 C   0  0  0  0  0  0
  -16.5384  -29.9086   23.6350 C   0  0  0  0  0  0
  -16.7305  -28.6512   23.0359 C   0  0  0  0  0  0
  -26.4572  -31.6512   25.0687 C   0  0  0  0  0  0
  -25.3673  -31.3792   26.1323 C   0  0  0  0  0  0
  -27.0485  -30.2869   24.6467 C   0  0  0  0  0  0
  -27.6049  -32.4355   25.7485 C   0  0  0  0  0  0
  -27.5565  -37.1739   24.8469 C   0  0  0  0  0  0
  -21.4367  -29.3037   22.3519 N   0  0  0  0  0  0
  -26.4265  -37.3682   23.9423 N   0  0  0  0  0  0
  -24.7621  -30.9718   22.0808 N   0  0  0  0  0  0
  -23.4214  -28.7964   23.3035 O   0  0  0  0  0  0
  -28.2148  -25.7141   20.3299 O   0  0  0  0  0  0
  -26.5740  -34.8878   22.4593 O   0  0  0  0  0  0
  -23.5745  -32.1134   23.6670 O   0  0  0  0  0  0
  -30.3781  -19.0565   19.3642 C   0  0  0  0  0  0
  -28.8450  -19.4528   20.8324 C   0  0  0  0  0  0
  -29.5938  -18.2986   20.3063 C   0  0  0  0  0  0
  -30.1115  -20.4467   19.3731 C   0  0  0  0  0  0
  -30.7883  -21.4931   18.5487 C   0  0  0  0  0  0
  -28.6969  -22.4710   20.7483 C   0  0  0  0  0  0
  -28.1657  -24.0611   19.9622 C   0  0  0  0  0  0
  -29.1197  -20.8535   20.2977 N   0  0  0  0  0  0
  -29.5750  -16.6569   20.5398 N   0  0  0  0  0  0
  -31.4519  -13.1123   19.2122 H   0  0  0  0  0  0
  -30.5304  -12.0003   20.1706 H   0  0  0  0  0  0
  -29.9513  -11.7796   17.7276 H   0  0  0  0  0  0
  -29.5487  -13.4779   17.6548 H   0  0  0  0  0  0
  -28.0879  -11.2824   19.1412 H   0  0  0  0  0  0
  -27.4318  -12.2961   17.8801 H   0  0  0  0  0  0
  -27.5093  -14.2381   19.3054 H   0  0  0  0  0  0
  -28.8230  -12.5793   21.5106 H   0  0  0  0  0  0
  -28.2427  -14.2190   21.6872 H   0  0  0  0  0  0
  -25.2763   -9.5695   22.4760 H   0  0  0  0  0  0
  -23.9995   -7.4642   22.7483 H   0  0  0  0  0  0
  -21.0838   -8.8763   19.8949 H   0  0  0  0  0  0
  -22.3687  -10.9668   19.6156 H   0  0  0  0  0  0
  -21.2006   -7.6144   23.9704 H   0  0  0  0  0  0
  -21.1484   -6.0518   25.9068 H   0  0  0  0  0  0
  -22.0600   -2.7600   23.2836 H   0  0  0  0  0  0
  -22.4031  -11.9835   22.4852 H   0  0  0  0  0  0
  -21.1011  -13.1179   22.2671 H   0  0  0  0  0  0
  -24.6241  -15.8461   20.5220 H   0  0  0  0  0  0
  -26.2356  -15.6387   20.0599 H   0  0  0  0  0  0
  -26.7386  -32.5044   23.0817 H   0  0  0  0  0  0
  -25.0065  -33.9420   25.0128 H   0  0  0  0  0  0
  -22.8082  -31.2570   21.3352 H   0  0  0  0  0  0
  -23.3767  -35.9501   23.3263 H   0  0  0  0  0  0
  -24.3572  -36.8889   22.2080 H   0  0  0  0  0  0
  -23.7212  -37.6343   23.6748 H   0  0  0  0  0  0
  -26.2473  -31.3306   20.6191 H   0  0  0  0  0  0
  -26.9185  -30.6571   22.0605 H   0  0  0  0  0  0
  -28.1405  -28.5166   21.3122 H   0  0  0  0  0  0
  -25.8751  -25.6890   18.9958 H   0  0  0  0  0  0
  -24.0219  -27.2487   18.9294 H   0  0  0  0  0  0
  -23.8905  -30.4972   19.3819 H   0  0  0  0  0  0
  -22.8406  -29.1877   19.8227 H   0  0  0  0  0  0
  -25.1318  -36.1719   25.0781 H   0  0  0  0  0  0
  -21.0034  -28.3362   24.1304 H   0  0  0  0  0  0
  -20.5692  -26.2376   23.3656 H   0  0  0  0  0  0
  -21.6660  -26.7402   22.1207 H   0  0  0  0  0  0
  -19.6956  -25.6272   21.1274 H   0  0  0  0  0  0
  -19.6725  -27.3169   20.6748 H   0  0  0  0  0  0
  -17.4231  -26.6694   21.4017 H   0  0  0  0  0  0
  -18.0319  -26.0119   22.9027 H   0  0  0  0  0  0
  -19.7984  -30.7315   24.2190 H   0  0  0  0  0  0
  -17.5052  -31.6278   24.5155 H   0  0  0  0  0  0
  -15.5385  -30.2972   23.7725 H   0  0  0  0  0  0
  -15.8702  -28.0819   22.7103 H   0  0  0  0  0  0
  -24.5882  -30.7120   25.7609 H   0  0  0  0  0  0
  -24.8852  -32.3010   26.4589 H   0  0  0  0  0  0
  -25.7877  -30.9048   27.0204 H   0  0  0  0  0  0
  -26.3166  -29.6521   24.1456 H   0  0  0  0  0  0
  -27.3986  -29.7242   25.5132 H   0  0  0  0  0  0
  -27.9113  -30.4038   23.9911 H   0  0  0  0  0  0
  -27.2597  -33.3722   26.1874 H   0  0  0  0  0  0
  -28.3941  -32.6805   25.0366 H   0  0  0  0  0  0
  -28.0619  -31.8614   26.5552 H   0  0  0  0  0  0
  -28.2531  -38.0082   24.7536 H   0  0  0  0  0  0
  -28.1101  -36.2603   24.6250 H   0  0  0  0  0  0
  -27.2303  -37.1322   25.8877 H   0  0  0  0  0  0
  -20.9641  -29.8702   21.6614 H   0  0  0  0  0  0
  -26.0103  -38.2732   24.1463 H   0  0  0  0  0  0
  -31.1105  -18.6153   18.7010 H   0  0  0  0  0  0
  -28.1022  -19.4093   21.6184 H   0  0  0  0  0  0
  -31.7175  -21.1126   18.1225 H   0  0  0  0  0  0
  -31.0379  -22.3732   19.1421 H   0  0  0  0  0  0
  -30.1485  -21.8143   17.7261 H   0  0  0  0  0  0
  -27.9729  -22.3310   21.5512 H   0  0  0  0  0  0
  -29.5885  -22.7895   21.2884 H   0  0  0  0  0  0
  -27.1244  -23.8833   19.6981 H   0  0  0  0  0  0
  -28.6760  -24.0434   18.9997 H   0  0  0  0  0  0
  -28.6762  -16.3736   20.9041 H   0  0  0  0  0  0
  1 25  1  0  0  0
  1 30  2  0  0  0
  1 79  1  0  0  0
  2  3  1  0  0  0
  2 25  1  0  0  0
  2 80  1  0  0  0
  2 81  1  0  0  0
  3  4  1  0  0  0
  3 82  1  0  0  0
  3 83  1  0  0  0
  4  5  1  0  0  0
  4 84  1  0  0  0
  4 85  1  0  0  0
  5  6  1  0  0  0
  5 26  1  0  0  0
  5 86  1  0  0  0
  6 25  1  0  0  0
  6 87  1  0  0  0
  6 88  1  0  0  0
  7  8  2  0  0  0
  7 26  1  0  0  0
  7 29  1  0  0  0
  8  9  1  0  0  0
  8 22  1  0  0  0
  9 10  1  0  0  0
  9 27  2  0  0  0
 10 11  2  0  0  0
 10 15  1  0  0  0
 11 12  1  0  0  0
 11 89  1  0  0  0
 12 13  2  0  0  0
 12 90  1  0  0  0
 13 14  1  0  0  0
 13 31  1  0  0  0
 14 15  2  0  0  0
 14 91  1  0  0  0
 15 92  1  0  0  0
 16 17  2  0  0  0
 16 21  1  0  0  0
 16 31  1  0  0  0
 17 18  1  0  0  0
 17 93  1  0  0  0
 18 19  2  0  0  0
 18 94  1  0  0  0
 19 20  1  0  0  0
 19 24  1  0  0  0
 20 21  2  0  0  0
 20 95  1  0  0  0
 21 23  1  0  0  0
 22 28  1  0  0  0
 22 32  2  0  0  0
 26 27  1  0  0  0
 28 96  1  0  0  0
 28 97  1  0  0  0
 29 98  1  0  0  0
 29 99  1  0  0  0
 33 34  1  0  0  0
 33 66  1  0  0  0
 33 70  2  0  0  0
 34 36  1  0  0  0
 34 59  1  0  0  0
 34100  1  0  0  0
 35 44  2  0  0  0
 35 45  1  0  0  0
 35 68  1  0  0  0
 36 56  1  0  0  0
 36101  1  0  0  0
 37 39  1  0  0  0
 37 47  1  0  0  0
 37 66  1  0  0  0
 37102  1  0  0  0
 38 43  2  0  0  0
 38 46  1  0  0  0
 38 47  1  0  0  0
 39 64  1  0  0  0
 39 67  2  0  0  0
 40 52  1  0  0  0
 40 53  2  0  0  0
 40 58  1  0  0  0
 41103  1  0  0  0
 41104  1  0  0  0
 41105  1  0  0  0
 41 48  1  0  0  0
 42 43  1  0  0  0
 42 66  1  0  0  0
 42106  1  0  0  0
 42107  1  0  0  0
 43 44  1  0  0  0
 44108  1  0  0  0
 45 46  2  0  0  0
 45109  1  0  0  0
 46110  1  0  0  0
 47111  1  0  0  0
 47112  1  0  0  0
 48 56  1  0  0  0
 48 65  1  0  0  0
 48113  1  0  0  0
 49 50  1  0  0  0
 49 53  1  0  0  0
 49 64  1  0  0  0
 49114  1  0  0  0
 50 51  1  0  0  0
 50115  1  0  0  0
 50116  1  0  0  0
 51 52  1  0  0  0
 51117  1  0  0  0
 51118  1  0  0  0
 52119  1  0  0  0
 52120  1  0  0  0
 53 54  1  0  0  0
 54 55  2  0  0  0
 54121  1  0  0  0
 55 57  1  0  0  0
 55122  1  0  0  0
 56 69  2  0  0  0
 57 58  2  0  0  0
 57123  1  0  0  0
 58124  1  0  0  0
 59 60  1  0  0  0
 59 61  1  0  0  0
 59 62  1  0  0  0
 60125  1  0  0  0
 60126  1  0  0  0
 60127  1  0  0  0
 61128  1  0  0  0
 61129  1  0  0  0
 61130  1  0  0  0
 62131  1  0  0  0
 62132  1  0  0  0
 62133  1  0  0  0
 63 65  1  0  0  0
 63134  1  0  0  0
 63135  1  0  0  0
 63136  1  0  0  0
 64137  1  0  0  0
 65138  1  0  0  0
 68 77  1  0  0  0
 71 73  1  0  0  0
 71 74  2  0  0  0
 71139  1  0  0  0
 72 73  2  0  0  0
 72 78  1  0  0  0
 72140  1  0  0  0
 73 79  1  0  0  0
 74 75  1  0  0  0
 74 78  1  0  0  0
 75141  1  0  0  0
 75142  1  0  0  0
 75143  1  0  0  0
 76 77  1  0  0  0
 76 78  1  0  0  0
 76144  1  0  0  0
 76145  1  0  0  0
 77146  1  0  0  0
 77147  1  0  0  0
 79148  1  0  0  0
M  ISO  4   1 100  68 101  77 101  79 100
M  END
> <chiral flag>
0

> <version>
0

> <s_m_source_file>
/data/baiqing/PycharmProjects/Reinvent-master-3.2/result/LINK_invent/BTK/process_docking_weight1_custom_sum_contain_oxygen_bond_distance_aromatic_linkinvent_7_9_3/rearranged_h_0099.sdf

> <i_m_source_file_index>
32

> <r_mmod_Potential_Energy-OPLS-2005>
1587.74096679688

> <r_mmod_Stretch_Energy-OPLS-2005>
705.894348144531

> <r_mmod_Bend_Energy-OPLS-2005>
513.537780761719

> <r_mmod_Torsional_Energy-OPLS-2005>
232.66194152832

> <r_mmod_Improper_Torsional_Energy-OPLS-2005>
4.71247911453247

> <r_mmod_Van_der_Waal_Energy-OPLS-2005>
104.83203125

> <r_mmod_Electrostatic_Energy-OPLS-2005>
-344.2353515625

> <r_mmod_Solvation_Energy-OPLS-2005>
-223.108413696289

> <b_mmod_Minimization_Converged-OPLS-2005>
0

> <r_mmod_RMS_Derivative-OPLS-2005>
1.77367281913757

$$$$
32
                    3D
 Structure written by MMmdl.
162170  0  0  1  0            999 V2000
  -30.6134  -14.7526   20.4882 C   0  0  0  0  0  0
  -30.4168  -12.4708   19.4821 C   0  0  0  0  0  0
  -29.4999  -12.5311   18.2416 C   0  0  0  0  0  0
  -28.0325  -12.3146   18.6589 C   0  0  0  0  0  0
  -27.6273  -13.2279   19.8454 C   0  0  2  0  0  0
  -28.6656  -13.1805   20.9839 C   0  0  0  0  0  0
  -25.2352  -13.8046   20.5600 C   0  0  0  0  0  0
  -24.1700  -13.0342   20.9184 C   0  0  0  0  0  0
  -24.6324  -11.6834   20.8719 C   0  0  0  0  0  0
  -23.9010  -10.4249   21.0379 C   0  0  0  0  0  0
  -24.3587   -9.4182   21.9148 C   0  0  0  0  0  0
  -23.6279   -8.2207   22.0723 C   0  0  0  0  0  0
  -22.4259   -8.0244   21.3516 C   0  0  0  0  0  0
  -21.9868   -9.0197   20.4604 C   0  0  0  0  0  0
  -22.7179  -10.2081   20.3022 C   0  0  0  0  0  0
  -21.6850   -6.0710   22.5297 C   0  0  0  0  0  0
  -21.4001   -6.5618   23.8227 C   0  0  0  0  0  0
  -21.3671   -5.6770   24.9186 C   0  0  0  0  0  0
  -21.6056   -4.3030   24.7227 C   0  0  0  0  0  0
  -21.8835   -3.8131   23.4349 C   0  0  0  0  0  0
  -21.9203   -4.6945   22.3408 C   0  0  0  0  0  0
  -22.7747  -13.5146   21.1886 C   0  0  0  0  0  0
  -22.1681   -4.2138   21.0973 F   0  0  0  0  0  0
  -21.5639   -3.4515   25.7735 F   0  0  0  0  0  0
  -29.9680  -13.5362   20.4043 N   0  0  0  0  0  0
  -26.2833  -12.9327   20.3235 N   0  0  0  0  0  0
  -25.9262  -11.6481   20.5748 N   0  0  0  0  0  0
  -22.0429  -12.8114   22.0445 N   0  0  0  0  0  0
  -25.3853  -15.1695   20.3876 N   0  0  0  0  0  0
  -31.8096  -14.8334   20.2026 O   0  0  0  0  0  0
  -21.6637   -6.8836   21.4245 O   0  0  0  0  0  0
  -22.3409  -14.5480   20.6779 O   0  0  0  0  0  0
  -24.6306  -31.8587   23.1942 C   0  0  0  0  0  0
  -25.9133  -32.4768   23.8316 C   0  0  1  0  0  0
  -27.2393  -27.2892   20.1383 C   0  0  0  0  0  0
  -25.5958  -33.8573   24.2257 N   0  0  0  0  0  0
  -23.4261  -30.4808   21.5348 C   0  0  2  0  0  0
  -24.8770  -28.9188   20.1126 C   0  0  0  0  0  0
  -22.7482  -29.4654   22.4858 C   0  0  0  0  0  0
  -18.0318  -28.1402   22.8476 C   0  0  0  0  0  0
  -24.1497  -36.7308   23.2625 C   0  0  0  0  0  0
  -25.9650  -30.7825   21.3625 C   0  0  0  0  0  0
  -26.0442  -29.4002   20.7200 C   0  0  0  0  0  0
  -27.2268  -28.6000   20.7175 C   0  0  0  0  0  0
  -26.0562  -26.8621   19.5014 C   0  0  0  0  0  0
  -24.8882  -27.6568   19.4921 C   0  0  0  0  0  0
  -23.6459  -29.8057   20.1544 C   0  0  0  0  0  0
  -25.4119  -36.3085   24.0308 C   0  0  1  0  0  0
  -20.5918  -28.3745   23.1227 C   0  0  2  0  0  0
  -20.6811  -26.9459   22.5381 C   0  0  0  0  0  0
  -19.5780  -26.6401   21.5195 C   0  0  0  0  0  0
  -18.1960  -26.7940   22.1618 C   0  0  0  0  0  0
  -19.1566  -28.8883   23.2853 C   0  0  0  0  0  0
  -18.9485  -30.1481   23.8866 C   0  0  0  0  0  0
  -17.6479  -30.6585   24.0584 C   0  0  0  0  0  0
  -25.9047  -34.9454   23.5075 C   0  0  0  0  0  0
  -16.5380  -29.9094   23.6324 C   0  0  0  0  0  0
  -16.7299  -28.6532   23.0308 C   0  0  0  0  0  0
  -26.4506  -31.6573   25.0685 C   0  0  0  0  0  0
  -25.3715  -31.3747   26.1398 C   0  0  0  0  0  0
  -27.0310  -30.2993   24.6103 C   0  0  0  0  0  0
  -27.6076  -32.4300   25.7457 C   0  0  0  0  0  0
  -27.5572  -37.1810   24.8447 C   0  0  0  0  0  0
  -21.4185  -29.3101   22.3597 N   0  0  0  0  0  0
  -26.4287  -37.3788   23.9381 N   0  0  0  0  0  0
  -24.6931  -31.0593   22.0891 N   0  0  0  0  0  0
  -23.4175  -28.8185   23.2948 O   0  0  0  0  0  0
  -28.3714  -26.4537   20.1203 O   0  0  0  0  0  0
  -26.5598  -34.8944   22.4633 O   0  0  0  0  0  0
  -23.5466  -32.1393   23.7252 O   0  0  0  0  0  0
  -26.6607  -20.1385   18.2640 C   0  0  0  0  0  0
  -27.6450  -21.0939   18.5528 C   0  0  0  0  0  0
  -26.4741  -19.0486   19.1282 C   0  0  0  0  0  0
  -28.5191  -20.9306   19.6531 C   0  0  0  0  0  0
  -27.4462  -18.7743   20.1186 C   0  0  0  0  0  0
  -28.6247  -19.5612   20.1949 C   0  0  0  0  0  0
  -25.2460  -18.1750   18.9272 C   0  0  0  0  0  0
  -27.2373  -17.6333   21.0925 C   0  0  0  0  0  0
  -28.9406  -22.2935   20.3729 C   0  0  0  0  0  0
  -29.9891  -18.7349   20.3080 C   0  0  0  0  0  0
  -28.6065  -23.7641   19.7298 C   0  0  0  0  0  0
  -30.2973  -17.3216   21.1005 C   0  0  0  0  0  0
  -28.3132  -25.0575   20.6544 C   0  0  0  0  0  0
  -29.8604  -15.8969   20.7163 N   0  0  0  0  0  0
  -31.4621  -12.5886   19.1968 H   0  0  0  0  0  0
  -30.3436  -11.4982   19.9717 H   0  0  0  0  0  0
  -29.8069  -11.7884   17.5027 H   0  0  0  0  0  0
  -29.5961  -13.5059   17.7593 H   0  0  0  0  0  0
  -27.9236  -11.2670   18.9435 H   0  0  0  0  0  0
  -27.3659  -12.4725   17.8100 H   0  0  0  0  0  0
  -27.6117  -14.2451   19.4530 H   0  0  0  0  0  0
  -28.6971  -12.1871   21.4320 H   0  0  0  0  0  0
  -28.3786  -13.8581   21.7901 H   0  0  0  0  0  0
  -25.2762   -9.5692   22.4656 H   0  0  0  0  0  0
  -24.0044   -7.4583   22.7409 H   0  0  0  0  0  0
  -21.0818   -8.8662   19.8863 H   0  0  0  0  0  0
  -22.3639  -10.9587   19.6086 H   0  0  0  0  0  0
  -21.1964   -7.6123   23.9725 H   0  0  0  0  0  0
  -21.1487   -6.0488   25.9083 H   0  0  0  0  0  0
  -22.0599   -2.7599   23.2850 H   0  0  0  0  0  0
  -22.4103  -11.9813   22.4888 H   0  0  0  0  0  0
  -21.1024  -13.1054   22.2656 H   0  0  0  0  0  0
  -24.6005  -15.8031   20.4643 H   0  0  0  0  0  0
  -26.2264  -15.6125   20.0512 H   0  0  0  0  0  0
  -26.7196  -32.5469   23.1058 H   0  0  0  0  0  0
  -25.0217  -33.9727   25.0481 H   0  0  0  0  0  0
  -22.7255  -31.3024   21.3816 H   0  0  0  0  0  0
  -23.3753  -35.9645   23.3274 H   0  0  0  0  0  0
  -24.3592  -36.8954   22.2042 H   0  0  0  0  0  0
  -23.7253  -37.6512   23.6652 H   0  0  0  0  0  0
  -26.0804  -31.5333   20.5804 H   0  0  0  0  0  0
  -26.8494  -30.8561   21.9803 H   0  0  0  0  0  0
  -28.1267  -28.9724   21.1853 H   0  0  0  0  0  0
  -26.0415  -25.9047   18.9972 H   0  0  0  0  0  0
  -23.9970  -27.2878   19.0026 H   0  0  0  0  0  0
  -23.7711  -30.5766   19.3942 H   0  0  0  0  0  0
  -22.7650  -29.2390   19.8512 H   0  0  0  0  0  0
  -25.1297  -36.1938   25.0797 H   0  0  0  0  0  0
  -21.0058  -28.3359   24.1319 H   0  0  0  0  0  0
  -20.5737  -26.2359   23.3595 H   0  0  0  0  0  0
  -21.6673  -26.7469   22.1156 H   0  0  0  0  0  0
  -19.6955  -25.6302   21.1235 H   0  0  0  0  0  0
  -19.6713  -27.3192   20.6707 H   0  0  0  0  0  0
  -17.4225  -26.6665   21.4021 H   0  0  0  0  0  0
  -18.0385  -26.0077   22.9018 H   0  0  0  0  0  0
  -19.7962  -30.7328   24.2176 H   0  0  0  0  0  0
  -17.5036  -31.6245   24.5227 H   0  0  0  0  0  0
  -15.5384  -30.3000   23.7643 H   0  0  0  0  0  0
  -15.8699  -28.0875   22.6966 H   0  0  0  0  0  0
  -24.5916  -30.7052   25.7739 H   0  0  0  0  0  0
  -24.8862  -32.2930   26.4728 H   0  0  0  0  0  0
  -25.8042  -30.9004   27.0211 H   0  0  0  0  0  0
  -26.2845  -29.6782   24.1132 H   0  0  0  0  0  0
  -27.4013  -29.7231   25.4591 H   0  0  0  0  0  0
  -27.8727  -30.4275   23.9291 H   0  0  0  0  0  0
  -27.2695  -33.3628   26.1986 H   0  0  0  0  0  0
  -28.3922  -32.6808   25.0300 H   0  0  0  0  0  0
  -28.0681  -31.8422   26.5408 H   0  0  0  0  0  0
  -28.2581  -38.0123   24.7514 H   0  0  0  0  0  0
  -28.1090  -36.2649   24.6254 H   0  0  0  0  0  0
  -27.2282  -37.1439   25.8854 H   0  0  0  0  0  0
  -20.9356  -29.8887   21.6859 H   0  0  0  0  0  0
  -26.0175  -38.2856   24.1419 H   0  0  0  0  0  0
  -25.9674  -20.3164   17.4529 H   0  0  0  0  0  0
  -27.6151  -22.0040   17.9719 H   0  0  0  0  0  0
  -24.5076  -18.6968   18.3179 H   0  0  0  0  0  0
  -24.7588  -17.9319   19.8718 H   0  0  0  0  0  0
  -25.5130  -17.2502   18.4111 H   0  0  0  0  0  0
  -27.4751  -16.6888   20.6156 H   0  0  0  0  0  0
  -26.2140  -17.6014   21.4575 H   0  0  0  0  0  0
  -27.8471  -17.7641   21.9848 H   0  0  0  0  0  0
  -29.9972  -22.2462   20.6383 H   0  0  0  0  0  0
  -28.4069  -22.2624   21.3235 H   0  0  0  0  0  0
  -30.7014  -19.4625   20.6998 H   0  0  0  0  0  0
  -30.3079  -18.5798   19.2751 H   0  0  0  0  0  0
  -27.7215  -23.7103   19.1013 H   0  0  0  0  0  0
  -29.4244  -24.0038   19.0497 H   0  0  0  0  0  0
  -30.0458  -17.4529   22.1518 H   0  0  0  0  0  0
  -31.3864  -17.2644   21.1189 H   0  0  0  0  0  0
  -29.0531  -25.0415   21.4548 H   0  0  0  0  0  0
  -27.3593  -24.9146   21.1665 H   0  0  0  0  0  0
  -28.8820  -15.7010   20.8565 H   0  0  0  0  0  0
  1 25  1  0  0  0
  1 30  2  0  0  0
  1 84  1  0  0  0
  2  3  1  0  0  0
  2 25  1  0  0  0
  2 85  1  0  0  0
  2 86  1  0  0  0
  3  4  1  0  0  0
  3 87  1  0  0  0
  3 88  1  0  0  0
  4  5  1  0  0  0
  4 89  1  0  0  0
  4 90  1  0  0  0
  5  6  1  0  0  0
  5 26  1  0  0  0
  5 91  1  0  0  0
  6 25  1  0  0  0
  6 92  1  0  0  0
  6 93  1  0  0  0
  7  8  2  0  0  0
  7 26  1  0  0  0
  7 29  1  0  0  0
  8  9  1  0  0  0
  8 22  1  0  0  0
  9 10  1  0  0  0
  9 27  2  0  0  0
 10 11  2  0  0  0
 10 15  1  0  0  0
 11 12  1  0  0  0
 11 94  1  0  0  0
 12 13  2  0  0  0
 12 95  1  0  0  0
 13 14  1  0  0  0
 13 31  1  0  0  0
 14 15  2  0  0  0
 14 96  1  0  0  0
 15 97  1  0  0  0
 16 17  2  0  0  0
 16 21  1  0  0  0
 16 31  1  0  0  0
 17 18  1  0  0  0
 17 98  1  0  0  0
 18 19  2  0  0  0
 18 99  1  0  0  0
 19 20  1  0  0  0
 19 24  1  0  0  0
 20 21  2  0  0  0
 20100  1  0  0  0
 21 23  1  0  0  0
 22 28  1  0  0  0
 22 32  2  0  0  0
 26 27  1  0  0  0
 28101  1  0  0  0
 28102  1  0  0  0
 29103  1  0  0  0
 29104  1  0  0  0
 33 34  1  0  0  0
 33 66  1  0  0  0
 33 70  2  0  0  0
 34 36  1  0  0  0
 34 59  1  0  0  0
 34105  1  0  0  0
 35 44  2  0  0  0
 35 45  1  0  0  0
 35 68  1  0  0  0
 36 56  1  0  0  0
 36106  1  0  0  0
 37 39  1  0  0  0
 37 47  1  0  0  0
 37 66  1  0  0  0
 37107  1  0  0  0
 38 43  2  0  0  0
 38 46  1  0  0  0
 38 47  1  0  0  0
 39 64  1  0  0  0
 39 67  2  0  0  0
 40 52  1  0  0  0
 40 53  2  0  0  0
 40 58  1  0  0  0
 41108  1  0  0  0
 41109  1  0  0  0
 41110  1  0  0  0
 41 48  1  0  0  0
 42 43  1  0  0  0
 42 66  1  0  0  0
 42111  1  0  0  0
 42112  1  0  0  0
 43 44  1  0  0  0
 44113  1  0  0  0
 45 46  2  0  0  0
 45114  1  0  0  0
 46115  1  0  0  0
 47116  1  0  0  0
 47117  1  0  0  0
 48 56  1  0  0  0
 48 65  1  0  0  0
 48118  1  0  0  0
 49 50  1  0  0  0
 49 53  1  0  0  0
 49 64  1  0  0  0
 49119  1  0  0  0
 50 51  1  0  0  0
 50120  1  0  0  0
 50121  1  0  0  0
 51 52  1  0  0  0
 51122  1  0  0  0
 51123  1  0  0  0
 52124  1  0  0  0
 52125  1  0  0  0
 53 54  1  0  0  0
 54 55  2  0  0  0
 54126  1  0  0  0
 55 57  1  0  0  0
 55127  1  0  0  0
 56 69  2  0  0  0
 57 58  2  0  0  0
 57128  1  0  0  0
 58129  1  0  0  0
 59 60  1  0  0  0
 59 61  1  0  0  0
 59 62  1  0  0  0
 60130  1  0  0  0
 60131  1  0  0  0
 60132  1  0  0  0
 61133  1  0  0  0
 61134  1  0  0  0
 61135  1  0  0  0
 62136  1  0  0  0
 62137  1  0  0  0
 62138  1  0  0  0
 63 65  1  0  0  0
 63139  1  0  0  0
 63140  1  0  0  0
 63141  1  0  0  0
 64142  1  0  0  0
 65143  1  0  0  0
 68 83  1  0  0  0
 71 72  2  0  0  0
 71 73  1  0  0  0
 71144  1  0  0  0
 72 74  1  0  0  0
 72145  1  0  0  0
 73 75  2  0  0  0
 73 77  1  0  0  0
 74 76  2  0  0  0
 74 79  1  0  0  0
 75 76  1  0  0  0
 75 78  1  0  0  0
 76 80  1  0  0  0
 77146  1  0  0  0
 77147  1  0  0  0
 77148  1  0  0  0
 78149  1  0  0  0
 78150  1  0  0  0
 78151  1  0  0  0
 79 81  1  0  0  0
 79152  1  0  0  0
 79153  1  0  0  0
 80 82  1  0  0  0
 80154  1  0  0  0
 80155  1  0  0  0
 81 83  1  0  0  0
 81156  1  0  0  0
 81157  1  0  0  0
 82 84  1  0  0  0
 82158  1  0  0  0
 82159  1  0  0  0
 83160  1  0  0  0
 83161  1  0  0  0
 84162  1  0  0  0
M  ISO  4   1 100  68 101  83 101  84 100
M  END
> <chiral flag>
0

> <version>
0

> <s_m_source_file>
/data/baiqing/PycharmProjects/Reinvent-master-3.2/result/LINK_invent/BTK/process_docking_weight1_custom_sum_contain_oxygen_bond_distance_aromatic_linkinvent_7_9_3/rearranged_h_0099.sdf

> <i_m_source_file_index>
33

> <r_mmod_Potential_Energy-OPLS-2005>
367.883422851562

> <r_mmod_Stretch_Energy-OPLS-2005>
139.742477416992

> <r_mmod_Bend_Energy-OPLS-2005>
222.534271240234

> <r_mmod_Torsional_Energy-OPLS-2005>
379.284362792969

> <r_mmod_Improper_Torsional_Energy-OPLS-2005>
13.912034034729

> <r_mmod_Van_der_Waal_Energy-OPLS-2005>
144.774810791016

> <r_mmod_Electrostatic_Energy-OPLS-2005>
-409.210052490234

> <r_mmod_Solvation_Energy-OPLS-2005>
-201.584564208984

> <b_mmod_Minimization_Converged-OPLS-2005>
0

> <r_mmod_RMS_Derivative-OPLS-2005>
4.80192470550537

$$$$
33
                    3D
 Structure written by MMmdl.
160168  0  0  1  0            999 V2000
  -30.4660  -15.2296   20.3589 C   0  0  0  0  0  0
  -30.4345  -12.7838   19.5152 C   0  0  0  0  0  0
  -29.5295  -12.5647   18.2778 C   0  0  0  0  0  0
  -28.0772  -12.2966   18.7085 C   0  0  0  0  0  0
  -27.6101  -13.2743   19.8165 C   0  0  2  0  0  0
  -28.6468  -13.4492   20.9477 C   0  0  0  0  0  0
  -25.2388  -13.8257   20.5742 C   0  0  0  0  0  0
  -24.1750  -13.0438   20.9259 C   0  0  0  0  0  0
  -24.6420  -11.6940   20.8770 C   0  0  0  0  0  0
  -23.9125  -10.4298   21.0426 C   0  0  0  0  0  0
  -24.3674   -9.4209   21.9204 C   0  0  0  0  0  0
  -23.6329   -8.2247   22.0767 C   0  0  0  0  0  0
  -22.4305   -8.0300   21.3557 C   0  0  0  0  0  0
  -21.9954   -9.0281   20.4656 C   0  0  0  0  0  0
  -22.7302  -10.2151   20.3064 C   0  0  0  0  0  0
  -21.6854   -6.0774   22.5297 C   0  0  0  0  0  0
  -21.4012   -6.5670   23.8232 C   0  0  0  0  0  0
  -21.3643   -5.6810   24.9189 C   0  0  0  0  0  0
  -21.6038   -4.3071   24.7227 C   0  0  0  0  0  0
  -21.8815   -3.8180   23.4339 C   0  0  0  0  0  0
  -21.9189   -4.7005   22.3409 C   0  0  0  0  0  0
  -22.7764  -13.5185   21.1910 C   0  0  0  0  0  0
  -22.1662   -4.2193   21.0982 F   0  0  0  0  0  0
  -21.5615   -3.4549   25.7734 F   0  0  0  0  0  0
  -29.8827  -13.9357   20.3145 N   0  0  0  0  0  0
  -26.2820  -12.9533   20.3203 N   0  0  0  0  0  0
  -25.9352  -11.6640   20.5739 N   0  0  0  0  0  0
  -22.0426  -12.8157   22.0457 N   0  0  0  0  0  0
  -25.3993  -15.1993   20.4181 N   0  0  0  0  0  0
  -31.6902  -15.2184   20.1680 O   0  0  0  0  0  0
  -21.6642   -6.8920   21.4259 O   0  0  0  0  0  0
  -22.3439  -14.5493   20.6763 O   0  0  0  0  0  0
  -24.6612  -31.8252   23.1745 C   0  0  0  0  0  0
  -25.9307  -32.4596   23.8184 C   0  0  1  0  0  0
  -27.2281  -26.9662   20.1660 C   0  0  0  0  0  0
  -25.5977  -33.8413   24.2075 N   0  0  0  0  0  0
  -23.4748  -30.4416   21.5209 C   0  0  2  0  0  0
  -24.9301  -28.8399   20.1060 C   0  0  0  0  0  0
  -22.7641  -29.4472   22.4766 C   0  0  0  0  0  0
  -18.0313  -28.1428   22.8472 C   0  0  0  0  0  0
  -24.1468  -36.7188   23.2654 C   0  0  0  0  0  0
  -26.0418  -30.6437   21.4007 C   0  0  0  0  0  0
  -26.1112  -29.2389   20.7428 C   0  0  0  0  0  0
  -27.2536  -28.3217   20.7545 C   0  0  0  0  0  0
  -26.0215  -26.7219   19.4689 C   0  0  0  0  0  0
  -24.9089  -27.6012   19.4496 C   0  0  0  0  0  0
  -23.7130  -29.7624   20.1447 C   0  0  0  0  0  0
  -25.4102  -36.2956   24.0311 C   0  0  1  0  0  0
  -20.5949  -28.3766   23.1187 C   0  0  2  0  0  0
  -20.6783  -26.9447   22.5401 C   0  0  0  0  0  0
  -19.5751  -26.6384   21.5221 C   0  0  0  0  0  0
  -18.1934  -26.7964   22.1627 C   0  0  0  0  0  0
  -19.1587  -28.8912   23.2830 C   0  0  0  0  0  0
  -18.9509  -30.1516   23.8843 C   0  0  0  0  0  0
  -17.6507  -30.6618   24.0579 C   0  0  0  0  0  0
  -25.9081  -34.9352   23.5002 C   0  0  0  0  0  0
  -16.5388  -29.9109   23.6372 C   0  0  0  0  0  0
  -16.7304  -28.6544   23.0354 C   0  0  0  0  0  0
  -26.4562  -31.6546   25.0710 C   0  0  0  0  0  0
  -25.3707  -31.3818   26.1390 C   0  0  0  0  0  0
  -27.0474  -30.2909   24.6459 C   0  0  0  0  0  0
  -27.6045  -32.4366   25.7505 C   0  0  0  0  0  0
  -27.5541  -37.1733   24.8470 C   0  0  0  0  0  0
  -21.4316  -29.3069   22.3529 N   0  0  0  0  0  0
  -26.4221  -37.3711   23.9457 N   0  0  0  0  0  0
  -24.7464  -30.9948   22.0867 N   0  0  0  0  0  0
  -23.4199  -28.8014   23.2978 O   0  0  0  0  0  0
  -28.2223  -25.8608   20.2656 O   0  0  0  0  0  0
  -26.5688  -34.8911   22.4596 O   0  0  0  0  0  0
  -23.5678  -32.1200   23.6846 O   0  0  0  0  0  0
  -28.2470  -20.3058   20.7706 C   0  0  0  0  0  0
  -29.4691  -19.7060   20.2522 C   0  0  0  0  0  0
  -29.8715  -22.1369   19.6780 C   0  0  0  0  0  0
  -28.6391  -22.7334   20.1858 C   0  0  0  0  0  0
  -31.8438  -21.2557   16.5478 C   0  0  0  0  0  0
  -31.7266  -23.3887   15.1995 C   0  0  0  0  0  0
  -30.9109  -23.0444   19.0334 C   0  0  0  0  0  0
  -30.1723  -18.1081   20.3790 C   0  0  0  0  0  0
  -27.9392  -24.3044   19.8610 C   0  0  0  0  0  0
  -30.6923  -23.3105   17.5275 C   0  0  0  0  0  0
  -31.8231  -22.7899   16.6138 C   0  0  0  0  0  0
  -27.8665  -21.6856   20.7176 N   0  0  0  0  0  0
  -30.2375  -20.7553   19.7230 N   0  0  0  0  0  0
  -29.7299  -16.5103   20.4131 N   0  0  0  0  0  0
  -31.4564  -12.9741   19.1846 H   0  0  0  0  0  0
  -30.4861  -11.8799   20.1240 H   0  0  0  0  0  0
  -29.9032  -11.7342   17.6764 H   0  0  0  0  0  0
  -29.5638  -13.4485   17.6383 H   0  0  0  0  0  0
  -28.0270  -11.2717   19.0800 H   0  0  0  0  0  0
  -27.4078  -12.3433   17.8484 H   0  0  0  0  0  0
  -27.5240  -14.2417   19.3176 H   0  0  0  0  0  0
  -28.8086  -12.5192   21.4945 H   0  0  0  0  0  0
  -28.2932  -14.1848   21.6729 H   0  0  0  0  0  0
  -25.2829   -9.5667   22.4776 H   0  0  0  0  0  0
  -24.0034   -7.4635   22.7479 H   0  0  0  0  0  0
  -21.0886   -8.8824   19.8956 H   0  0  0  0  0  0
  -22.3792  -10.9702   19.6167 H   0  0  0  0  0  0
  -21.2013   -7.6177   23.9756 H   0  0  0  0  0  0
  -21.1453   -6.0534   25.9091 H   0  0  0  0  0  0
  -22.0602   -2.7641   23.2831 H   0  0  0  0  0  0
  -22.4064  -11.9815   22.4810 H   0  0  0  0  0  0
  -21.1057  -13.1171   22.2704 H   0  0  0  0  0  0
  -24.6212  -15.8416   20.5280 H   0  0  0  0  0  0
  -26.2385  -15.6492   20.0781 H   0  0  0  0  0  0
  -26.7360  -32.5134   23.0885 H   0  0  0  0  0  0
  -25.0120  -33.9489   25.0223 H   0  0  0  0  0  0
  -22.7900  -31.2755   21.3528 H   0  0  0  0  0  0
  -23.3762  -35.9486   23.3254 H   0  0  0  0  0  0
  -24.3554  -36.8879   22.2084 H   0  0  0  0  0  0
  -23.7169  -37.6329   23.6753 H   0  0  0  0  0  0
  -26.2141  -31.3885   20.6221 H   0  0  0  0  0  0
  -26.9036  -30.6971   22.0544 H   0  0  0  0  0  0
  -28.1420  -28.6268   21.2899 H   0  0  0  0  0  0
  -25.8932  -25.7850   18.9476 H   0  0  0  0  0  0
  -24.0142  -27.2928   18.9252 H   0  0  0  0  0  0
  -23.8614  -30.5350   19.3897 H   0  0  0  0  0  0
  -22.8241  -29.2151   19.8254 H   0  0  0  0  0  0
  -25.1281  -36.1723   25.0795 H   0  0  0  0  0  0
  -21.0061  -28.3370   24.1301 H   0  0  0  0  0  0
  -20.5651  -26.2386   23.3644 H   0  0  0  0  0  0
  -21.6645  -26.7395   22.1215 H   0  0  0  0  0  0
  -19.6909  -25.6278   21.1273 H   0  0  0  0  0  0
  -19.6688  -27.3186   20.6755 H   0  0  0  0  0  0
  -17.4202  -26.6734   21.4033 H   0  0  0  0  0  0
  -18.0320  -26.0100   22.9019 H   0  0  0  0  0  0
  -19.7993  -30.7358   24.2148 H   0  0  0  0  0  0
  -17.5069  -31.6293   24.5191 H   0  0  0  0  0  0
  -15.5391  -30.3000   23.7753 H   0  0  0  0  0  0
  -15.8702  -28.0883   22.7053 H   0  0  0  0  0  0
  -24.5902  -30.7131   25.7741 H   0  0  0  0  0  0
  -24.8895  -32.3035   26.4677 H   0  0  0  0  0  0
  -25.7958  -30.9089   27.0258 H   0  0  0  0  0  0
  -26.3166  -29.6574   24.1420 H   0  0  0  0  0  0
  -27.3952  -29.7279   25.5134 H   0  0  0  0  0  0
  -27.9112  -30.4082   23.9912 H   0  0  0  0  0  0
  -27.2625  -33.3767   26.1860 H   0  0  0  0  0  0
  -28.3979  -32.6753   25.0411 H   0  0  0  0  0  0
  -28.0579  -31.8623   26.5600 H   0  0  0  0  0  0
  -28.2509  -38.0082   24.7554 H   0  0  0  0  0  0
  -28.1052  -36.2592   24.6191 H   0  0  0  0  0  0
  -27.2274  -37.1260   25.8876 H   0  0  0  0  0  0
  -20.9549  -29.8762   21.6669 H   0  0  0  0  0  0
  -26.0042  -38.2731   24.1556 H   0  0  0  0  0  0
  -27.5383  -19.6630   21.2718 H   0  0  0  0  0  0
  -32.6623  -20.8978   15.9225 H   0  0  0  0  0  0
  -30.9125  -20.8652   16.1361 H   0  0  0  0  0  0
  -31.9783  -20.8176   17.5367 H   0  0  0  0  0  0
  -32.5485  -23.0499   14.5666 H   0  0  0  0  0  0
  -31.7711  -24.4783   15.2271 H   0  0  0  0  0  0
  -30.7959  -23.1085   14.7062 H   0  0  0  0  0  0
  -31.9050  -22.6328   19.2098 H   0  0  0  0  0  0
  -30.9028  -23.9930   19.5707 H   0  0  0  0  0  0
  -30.7705  -18.2007   21.2856 H   0  0  0  0  0  0
  -30.9143  -18.1185   19.5806 H   0  0  0  0  0  0
  -26.8896  -24.1525   20.1057 H   0  0  0  0  0  0
  -27.9581  -24.3408   18.7719 H   0  0  0  0  0  0
  -30.6207  -24.3920   17.3967 H   0  0  0  0  0  0
  -29.7255  -22.9239   17.2039 H   0  0  0  0  0  0
  -32.7760  -23.1176   17.0327 H   0  0  0  0  0  0
  -28.7317  -16.3824   20.4898 H   0  0  0  0  0  0
  1 25  1  0  0  0
  1 30  2  0  0  0
  1 84  1  0  0  0
  2  3  1  0  0  0
  2 25  1  0  0  0
  2 85  1  0  0  0
  2 86  1  0  0  0
  3  4  1  0  0  0
  3 87  1  0  0  0
  3 88  1  0  0  0
  4  5  1  0  0  0
  4 89  1  0  0  0
  4 90  1  0  0  0
  5  6  1  0  0  0
  5 26  1  0  0  0
  5 91  1  0  0  0
  6 25  1  0  0  0
  6 92  1  0  0  0
  6 93  1  0  0  0
  7  8  2  0  0  0
  7 26  1  0  0  0
  7 29  1  0  0  0
  8  9  1  0  0  0
  8 22  1  0  0  0
  9 10  1  0  0  0
  9 27  2  0  0  0
 10 11  2  0  0  0
 10 15  1  0  0  0
 11 12  1  0  0  0
 11 94  1  0  0  0
 12 13  2  0  0  0
 12 95  1  0  0  0
 13 14  1  0  0  0
 13 31  1  0  0  0
 14 15  2  0  0  0
 14 96  1  0  0  0
 15 97  1  0  0  0
 16 17  2  0  0  0
 16 21  1  0  0  0
 16 31  1  0  0  0
 17 18  1  0  0  0
 17 98  1  0  0  0
 18 19  2  0  0  0
 18 99  1  0  0  0
 19 20  1  0  0  0
 19 24  1  0  0  0
 20 21  2  0  0  0
 20100  1  0  0  0
 21 23  1  0  0  0
 22 28  1  0  0  0
 22 32  2  0  0  0
 26 27  1  0  0  0
 28101  1  0  0  0
 28102  1  0  0  0
 29103  1  0  0  0
 29104  1  0  0  0
 33 34  1  0  0  0
 33 66  1  0  0  0
 33 70  2  0  0  0
 34 36  1  0  0  0
 34 59  1  0  0  0
 34105  1  0  0  0
 35 44  2  0  0  0
 35 45  1  0  0  0
 35 68  1  0  0  0
 36 56  1  0  0  0
 36106  1  0  0  0
 37 39  1  0  0  0
 37 47  1  0  0  0
 37 66  1  0  0  0
 37107  1  0  0  0
 38 43  2  0  0  0
 38 46  1  0  0  0
 38 47  1  0  0  0
 39 64  1  0  0  0
 39 67  2  0  0  0
 40 52  1  0  0  0
 40 53  2  0  0  0
 40 58  1  0  0  0
 41108  1  0  0  0
 41109  1  0  0  0
 41110  1  0  0  0
 41 48  1  0  0  0
 42 43  1  0  0  0
 42 66  1  0  0  0
 42111  1  0  0  0
 42112  1  0  0  0
 43 44  1  0  0  0
 44113  1  0  0  0
 45 46  2  0  0  0
 45114  1  0  0  0
 46115  1  0  0  0
 47116  1  0  0  0
 47117  1  0  0  0
 48 56  1  0  0  0
 48 65  1  0  0  0
 48118  1  0  0  0
 49 50  1  0  0  0
 49 53  1  0  0  0
 49 64  1  0  0  0
 49119  1  0  0  0
 50 51  1  0  0  0
 50120  1  0  0  0
 50121  1  0  0  0
 51 52  1  0  0  0
 51122  1  0  0  0
 51123  1  0  0  0
 52124  1  0  0  0
 52125  1  0  0  0
 53 54  1  0  0  0
 54 55  2  0  0  0
 54126  1  0  0  0
 55 57  1  0  0  0
 55127  1  0  0  0
 56 69  2  0  0  0
 57 58  2  0  0  0
 57128  1  0  0  0
 58129  1  0  0  0
 59 60  1  0  0  0
 59 61  1  0  0  0
 59 62  1  0  0  0
 60130  1  0  0  0
 60131  1  0  0  0
 60132  1  0  0  0
 61133  1  0  0  0
 61134  1  0  0  0
 61135  1  0  0  0
 62136  1  0  0  0
 62137  1  0  0  0
 62138  1  0  0  0
 63 65  1  0  0  0
 63139  1  0  0  0
 63140  1  0  0  0
 63141  1  0  0  0
 64142  1  0  0  0
 65143  1  0  0  0
 68 79  1  0  0  0
 71 72  2  0  0  0
 71 82  1  0  0  0
 71144  1  0  0  0
 72 78  1  0  0  0
 72 83  1  0  0  0
 73 74  1  0  0  0
 73 77  1  0  0  0
 73 83  2  0  0  0
 74 79  1  0  0  0
 74 82  2  0  0  0
 75145  1  0  0  0
 75146  1  0  0  0
 75147  1  0  0  0
 75 81  1  0  0  0
 76 81  1  0  0  0
 76148  1  0  0  0
 76149  1  0  0  0
 76150  1  0  0  0
 77 80  1  0  0  0
 77151  1  0  0  0
 77152  1  0  0  0
 78 84  1  0  0  0
 78153  1  0  0  0
 78154  1  0  0  0
 79155  1  0  0  0
 79156  1  0  0  0
 80 81  1  0  0  0
 80157  1  0  0  0
 80158  1  0  0  0
 81159  1  0  0  0
 84160  1  0  0  0
M  ISO  4   1 100  68 101  79 101  84 100
M  END
> <chiral flag>
0

> <version>
0

> <s_m_source_file>
/data/baiqing/PycharmProjects/Reinvent-master-3.2/result/LINK_invent/BTK/process_docking_weight1_custom_sum_contain_oxygen_bond_distance_aromatic_linkinvent_7_9_3/rearranged_h_0099.sdf

> <i_m_source_file_index>
34

> <r_mmod_Potential_Energy-OPLS-2005>
1179.31665039062

> <r_mmod_Stretch_Energy-OPLS-2005>
494.667175292969

> <r_mmod_Bend_Energy-OPLS-2005>
449.791320800781

> <r_mmod_Torsional_Energy-OPLS-2005>
224.568893432617

> <r_mmod_Improper_Torsional_Energy-OPLS-2005>
6.89483833312988

> <r_mmod_Van_der_Waal_Energy-OPLS-2005>
128.20654296875

> <r_mmod_Electrostatic_Energy-OPLS-2005>
-315.154571533203

> <r_mmod_Solvation_Energy-OPLS-2005>
-228.976333618164

> <b_mmod_Minimization_Converged-OPLS-2005>
0

> <r_mmod_RMS_Derivative-OPLS-2005>
2.59133672714233

$$$$
34
                    3D
 Structure written by MMmdl.
171179  0  0  1  0            999 V2000
  -30.8288  -14.2742   20.7688 C   0  0  0  0  0  0
  -30.4097  -12.2841   19.3718 C   0  0  0  0  0  0
  -29.4740  -12.5538   18.1824 C   0  0  0  0  0  0
  -28.0053  -12.3859   18.6069 C   0  0  0  0  0  0
  -27.6698  -13.2022   19.8797 C   0  0  2  0  0  0
  -28.7085  -12.9413   20.9954 C   0  0  0  0  0  0
  -25.2628  -13.8157   20.5658 C   0  0  0  0  0  0
  -24.1881  -13.0437   20.9173 C   0  0  0  0  0  0
  -24.6429  -11.6906   20.8732 C   0  0  0  0  0  0
  -23.9077  -10.4299   21.0408 C   0  0  0  0  0  0
  -24.3621   -9.4221   21.9196 C   0  0  0  0  0  0
  -23.6292   -8.2261   22.0769 C   0  0  0  0  0  0
  -22.4279   -8.0299   21.3558 C   0  0  0  0  0  0
  -21.9921   -9.0271   20.4658 C   0  0  0  0  0  0
  -22.7247  -10.2148   20.3062 C   0  0  0  0  0  0
  -21.6857   -6.0750   22.5291 C   0  0  0  0  0  0
  -21.4014   -6.5649   23.8220 C   0  0  0  0  0  0
  -21.3651   -5.6803   24.9181 C   0  0  0  0  0  0
  -21.6029   -4.3060   24.7230 C   0  0  0  0  0  0
  -21.8806   -3.8158   23.4346 C   0  0  0  0  0  0
  -21.9187   -4.6980   22.3410 C   0  0  0  0  0  0
  -22.7910  -13.5261   21.1798 C   0  0  0  0  0  0
  -22.1664   -4.2170   21.0985 F   0  0  0  0  0  0
  -21.5623   -3.4543   25.7736 F   0  0  0  0  0  0
  -30.0630  -13.1971   20.4672 N   0  0  0  0  0  0
  -26.3075  -12.9324   20.3380 N   0  0  0  0  0  0
  -25.9347  -11.6483   20.5757 N   0  0  0  0  0  0
  -22.0523  -12.8280   22.0352 N   0  0  0  0  0  0
  -25.4328  -15.1863   20.4004 N   0  0  0  0  0  0
  -31.7397  -14.6980   20.0489 O   0  0  0  0  0  0
  -21.6641   -6.8900   21.4257 O   0  0  0  0  0  0
  -22.3613  -14.5570   20.6645 O   0  0  0  0  0  0
  -24.6089  -31.8740   23.2143 C   0  0  0  0  0  0
  -25.8993  -32.4856   23.8432 C   0  0  1  0  0  0
  -27.2269  -27.4613   20.0950 C   0  0  0  0  0  0
  -25.5862  -33.8652   24.2341 N   0  0  0  0  0  0
  -23.3958  -30.4959   21.5588 C   0  0  2  0  0  0
  -24.8391  -28.9667   20.1195 C   0  0  0  0  0  0
  -22.7397  -29.4670   22.5067 C   0  0  0  0  0  0
  -18.0256  -28.1366   22.8514 C   0  0  0  0  0  0
  -24.1479  -36.7330   23.2649 C   0  0  0  0  0  0
  -25.9187  -30.8457   21.3640 C   0  0  0  0  0  0
  -25.9980  -29.4803   20.7143 C   0  0  0  0  0  0
  -27.1969  -28.7341   20.7033 C   0  0  0  0  0  0
  -26.0535  -26.9575   19.4915 C   0  0  0  0  0  0
  -24.8591  -27.7034   19.5051 C   0  0  0  0  0  0
  -23.5987  -29.8293   20.1727 C   0  0  0  0  0  0
  -25.4105  -36.3135   24.0331 C   0  0  1  0  0  0
  -20.5852  -28.3656   23.1363 C   0  0  2  0  0  0
  -20.6762  -26.9409   22.5433 C   0  0  0  0  0  0
  -19.5724  -26.6391   21.5239 C   0  0  0  0  0  0
  -18.1902  -26.7922   22.1635 C   0  0  0  0  0  0
  -19.1512  -28.8828   23.2927 C   0  0  0  0  0  0
  -18.9441  -30.1443   23.8919 C   0  0  0  0  0  0
  -17.6453  -30.6598   24.0556 C   0  0  0  0  0  0
  -25.9018  -34.9493   23.5129 C   0  0  0  0  0  0
  -16.5344  -29.9096   23.6327 C   0  0  0  0  0  0
  -16.7246  -28.6506   23.0362 C   0  0  0  0  0  0
  -26.4441  -31.6650   25.0754 C   0  0  0  0  0  0
  -25.3692  -31.3739   26.1490 C   0  0  0  0  0  0
  -27.0320  -30.3130   24.6091 C   0  0  0  0  0  0
  -27.6023  -32.4401   25.7489 C   0  0  0  0  0  0
  -27.5582  -37.1812   24.8463 C   0  0  0  0  0  0
  -21.4126  -29.3034   22.3793 N   0  0  0  0  0  0
  -26.4302  -37.3816   23.9399 N   0  0  0  0  0  0
  -24.6594  -31.0848   22.1058 N   0  0  0  0  0  0
  -23.4188  -28.8210   23.3092 O   0  0  0  0  0  0
  -28.4035  -26.7544   20.0747 O   0  0  0  0  0  0
  -26.5606  -34.8947   22.4707 O   0  0  0  0  0  0
  -23.5289  -32.1498   23.7553 O   0  0  0  0  0  0
  -28.0705  -22.5230   21.4572 C   0  0  0  0  0  0
  -29.1782  -22.0141   19.3535 C   0  0  0  0  0  0
  -28.5166  -22.9363   20.1850 C   0  0  0  0  0  0
  -28.2825  -21.2001   21.8981 C   0  0  0  0  0  0
  -29.3826  -20.6837   19.7666 C   0  0  0  0  0  0
  -28.9406  -20.2668   21.0517 C   0  0  0  0  0  0
  -27.7783  -20.8097   23.2797 C   0  0  0  0  0  0
  -30.0597  -19.7283   18.7917 C   0  0  0  0  0  0
  -31.4934  -14.1773   23.0980 C   0  0  0  0  0  0
  -31.4112  -19.6367   22.3002 C   0  0  0  0  0  0
  -28.2417  -24.3373   19.6579 C   0  0  0  0  0  0
  -29.1548  -18.8172   21.5053 C   0  0  0  0  0  0
  -30.0653  -16.0419   22.2995 C   0  0  0  0  0  0
  -31.0058  -17.2291   21.9685 C   0  0  0  0  0  0
  -28.3727  -25.4679   20.6975 C   0  0  0  0  0  0
  -30.6626  -14.7318   22.0261 N   0  0  0  0  0  0
  -30.3989  -18.5480   22.2905 N   0  3  1  0  0  0
  -31.4535  -12.3830   19.0673 H   0  0  0  0  0  0
  -30.2952  -11.2542   19.7136 H   0  0  0  0  0  0
  -29.7051  -11.8833   17.3553 H   0  0  0  0  0  0
  -29.6357  -13.5678   17.8100 H   0  0  0  0  0  0
  -27.8205  -11.3259   18.7821 H   0  0  0  0  0  0
  -27.3448  -12.6749   17.7894 H   0  0  0  0  0  0
  -27.7270  -14.2565   19.6079 H   0  0  0  0  0  0
  -28.6526  -11.9062   21.3347 H   0  0  0  0  0  0
  -28.4608  -13.5497   21.8660 H   0  0  0  0  0  0
  -25.2768   -9.5700   22.4771 H   0  0  0  0  0  0
  -23.9997   -7.4653   22.7497 H   0  0  0  0  0  0
  -21.0849   -8.8783   19.8967 H   0  0  0  0  0  0
  -22.3704  -10.9686   19.6165 H   0  0  0  0  0  0
  -21.2014   -7.6159   23.9734 H   0  0  0  0  0  0
  -21.1484   -6.0536   25.9081 H   0  0  0  0  0  0
  -22.0587   -2.7623   23.2841 H   0  0  0  0  0  0
  -22.4106  -11.9925   22.4735 H   0  0  0  0  0  0
  -21.1155  -13.1340   22.2556 H   0  0  0  0  0  0
  -24.6534  -15.8322   20.4720 H   0  0  0  0  0  0
  -26.2717  -15.6172   20.0332 H   0  0  0  0  0  0
  -26.7064  -32.5572   23.1210 H   0  0  0  0  0  0
  -24.9993  -33.9839   25.0468 H   0  0  0  0  0  0
  -22.6803  -31.3096   21.4244 H   0  0  0  0  0  0
  -23.3741  -35.9661   23.3331 H   0  0  0  0  0  0
  -24.3572  -36.8936   22.2065 H   0  0  0  0  0  0
  -23.7226  -37.6525   23.6677 H   0  0  0  0  0  0
  -26.0192  -31.6086   20.5914 H   0  0  0  0  0  0
  -26.8120  -30.9103   21.9725 H   0  0  0  0  0  0
  -28.0922  -29.1253   21.1699 H   0  0  0  0  0  0
  -26.0465  -26.0067   18.9856 H   0  0  0  0  0  0
  -23.9714  -27.3042   19.0323 H   0  0  0  0  0  0
  -23.6941  -30.6044   19.4111 H   0  0  0  0  0  0
  -22.7233  -29.2446   19.8843 H   0  0  0  0  0  0
  -25.1283  -36.2026   25.0827 H   0  0  0  0  0  0
  -20.9916  -28.3211   24.1485 H   0  0  0  0  0  0
  -20.5715  -26.2264   23.3603 H   0  0  0  0  0  0
  -21.6637  -26.7491   22.1195 H   0  0  0  0  0  0
  -19.6905  -25.6311   21.1253 H   0  0  0  0  0  0
  -19.6675  -27.3210   20.6769 H   0  0  0  0  0  0
  -17.4196  -26.6703   21.4010 H   0  0  0  0  0  0
  -18.0253  -26.0054   22.9009 H   0  0  0  0  0  0
  -19.7929  -30.7230   24.2334 H   0  0  0  0  0  0
  -17.5014  -31.6275   24.5148 H   0  0  0  0  0  0
  -15.5343  -30.2986   23.7673 H   0  0  0  0  0  0
  -15.8641  -28.0819   22.7087 H   0  0  0  0  0  0
  -24.5869  -30.7103   25.7797 H   0  0  0  0  0  0
  -24.8859  -32.2884   26.4955 H   0  0  0  0  0  0
  -25.8000  -30.8894   27.0262 H   0  0  0  0  0  0
  -26.2897  -29.6836   24.1162 H   0  0  0  0  0  0
  -27.4189  -29.7419   25.4536 H   0  0  0  0  0  0
  -27.8652  -30.4527   23.9190 H   0  0  0  0  0  0
  -27.2685  -33.3733   26.2054 H   0  0  0  0  0  0
  -28.3806  -32.6932   25.0273 H   0  0  0  0  0  0
  -28.0709  -31.8540   26.5408 H   0  0  0  0  0  0
  -28.2616  -38.0106   24.7526 H   0  0  0  0  0  0
  -28.1083  -36.2639   24.6292 H   0  0  0  0  0  0
  -27.2292  -37.1432   25.8868 H   0  0  0  0  0  0
  -20.9309  -29.8784   21.7025 H   0  0  0  0  0  0
  -26.0197  -38.2905   24.1396 H   0  0  0  0  0  0
  -27.5489  -23.2184   22.1015 H   0  0  0  0  0  0
  -29.5125  -22.3267   18.3742 H   0  0  0  0  0  0
  -27.3516  -21.6652   23.8039 H   0  0  0  0  0  0
  -28.5851  -20.4221   23.9012 H   0  0  0  0  0  0
  -27.0007  -20.0496   23.2095 H   0  0  0  0  0  0
  -30.3945  -20.2421   17.8897 H   0  0  0  0  0  0
  -29.3702  -18.9439   18.4753 H   0  0  0  0  0  0
  -30.9346  -19.2553   19.2334 H   0  0  0  0  0  0
  -31.0630  -14.3643   24.0825 H   0  0  0  0  0  0
  -32.4956  -14.6097   23.0720 H   0  0  0  0  0  0
  -31.5995  -13.0949   22.9957 H   0  0  0  0  0  0
  -30.9933  -20.5696   22.6799 H   0  0  0  0  0  0
  -31.8139  -19.8222   21.3053 H   0  0  0  0  0  0
  -32.2487  -19.3893   22.9539 H   0  0  0  0  0  0
  -27.2404  -24.3101   19.2313 H   0  0  0  0  0  0
  -28.9169  -24.5431   18.8282 H   0  0  0  0  0  0
  -29.1184  -18.1759   20.6275 H   0  0  0  0  0  0
  -28.3024  -18.4817   22.0952 H   0  0  0  0  0  0
  -29.1403  -16.1053   21.7241 H   0  0  0  0  0  0
  -29.7607  -16.0916   23.3450 H   0  0  0  0  0  0
  -31.2988  -17.2198   20.9180 H   0  0  0  0  0  0
  -31.9275  -17.1139   22.5425 H   0  0  0  0  0  0
  -29.3179  -25.3574   21.2289 H   0  0  0  0  0  0
  -27.5899  -25.4102   21.4545 H   0  0  0  0  0  0
  -30.0993  -18.4879   23.2513 H   0  0  0  0  0  0
  1 25  1  0  0  0
  1 30  2  0  0  0
  1 86  1  0  0  0
  2  3  1  0  0  0
  2 25  1  0  0  0
  2 88  1  0  0  0
  2 89  1  0  0  0
  3  4  1  0  0  0
  3 90  1  0  0  0
  3 91  1  0  0  0
  4  5  1  0  0  0
  4 92  1  0  0  0
  4 93  1  0  0  0
  5  6  1  0  0  0
  5 26  1  0  0  0
  5 94  1  0  0  0
  6 25  1  0  0  0
  6 95  1  0  0  0
  6 96  1  0  0  0
  7  8  2  0  0  0
  7 26  1  0  0  0
  7 29  1  0  0  0
  8  9  1  0  0  0
  8 22  1  0  0  0
  9 10  1  0  0  0
  9 27  2  0  0  0
 10 11  2  0  0  0
 10 15  1  0  0  0
 11 12  1  0  0  0
 11 97  1  0  0  0
 12 13  2  0  0  0
 12 98  1  0  0  0
 13 14  1  0  0  0
 13 31  1  0  0  0
 14 15  2  0  0  0
 14 99  1  0  0  0
 15100  1  0  0  0
 16 17  2  0  0  0
 16 21  1  0  0  0
 16 31  1  0  0  0
 17 18  1  0  0  0
 17101  1  0  0  0
 18 19  2  0  0  0
 18102  1  0  0  0
 19 20  1  0  0  0
 19 24  1  0  0  0
 20 21  2  0  0  0
 20103  1  0  0  0
 21 23  1  0  0  0
 22 28  1  0  0  0
 22 32  2  0  0  0
 26 27  1  0  0  0
 28104  1  0  0  0
 28105  1  0  0  0
 29106  1  0  0  0
 29107  1  0  0  0
 33 34  1  0  0  0
 33 66  1  0  0  0
 33 70  2  0  0  0
 34 36  1  0  0  0
 34 59  1  0  0  0
 34108  1  0  0  0
 35 44  2  0  0  0
 35 45  1  0  0  0
 35 68  1  0  0  0
 36 56  1  0  0  0
 36109  1  0  0  0
 37 39  1  0  0  0
 37 47  1  0  0  0
 37 66  1  0  0  0
 37110  1  0  0  0
 38 43  2  0  0  0
 38 46  1  0  0  0
 38 47  1  0  0  0
 39 64  1  0  0  0
 39 67  2  0  0  0
 40 52  1  0  0  0
 40 53  2  0  0  0
 40 58  1  0  0  0
 41111  1  0  0  0
 41112  1  0  0  0
 41113  1  0  0  0
 41 48  1  0  0  0
 42 43  1  0  0  0
 42 66  1  0  0  0
 42114  1  0  0  0
 42115  1  0  0  0
 43 44  1  0  0  0
 44116  1  0  0  0
 45 46  2  0  0  0
 45117  1  0  0  0
 46118  1  0  0  0
 47119  1  0  0  0
 47120  1  0  0  0
 48 56  1  0  0  0
 48 65  1  0  0  0
 48121  1  0  0  0
 49 50  1  0  0  0
 49 53  1  0  0  0
 49 64  1  0  0  0
 49122  1  0  0  0
 50 51  1  0  0  0
 50123  1  0  0  0
 50124  1  0  0  0
 51 52  1  0  0  0
 51125  1  0  0  0
 51126  1  0  0  0
 52127  1  0  0  0
 52128  1  0  0  0
 53 54  1  0  0  0
 54 55  2  0  0  0
 54129  1  0  0  0
 55 57  1  0  0  0
 55130  1  0  0  0
 56 69  2  0  0  0
 57 58  2  0  0  0
 57131  1  0  0  0
 58132  1  0  0  0
 59 60  1  0  0  0
 59 61  1  0  0  0
 59 62  1  0  0  0
 60133  1  0  0  0
 60134  1  0  0  0
 60135  1  0  0  0
 61136  1  0  0  0
 61137  1  0  0  0
 61138  1  0  0  0
 62139  1  0  0  0
 62140  1  0  0  0
 62141  1  0  0  0
 63 65  1  0  0  0
 63142  1  0  0  0
 63143  1  0  0  0
 63144  1  0  0  0
 64145  1  0  0  0
 65146  1  0  0  0
 68 85  1  0  0  0
 71 73  2  0  0  0
 71 74  1  0  0  0
 71147  1  0  0  0
 72 73  1  0  0  0
 72 75  2  0  0  0
 72148  1  0  0  0
 73 81  1  0  0  0
 74 76  2  0  0  0
 74 77  1  0  0  0
 75 76  1  0  0  0
 75 78  1  0  0  0
 76 82  1  0  0  0
 77149  1  0  0  0
 77150  1  0  0  0
 77151  1  0  0  0
 78152  1  0  0  0
 78153  1  0  0  0
 78154  1  0  0  0
 79 86  1  0  0  0
 79155  1  0  0  0
 79156  1  0  0  0
 79157  1  0  0  0
 80158  1  0  0  0
 80159  1  0  0  0
 80160  1  0  0  0
 80 87  1  0  0  0
 81 85  1  0  0  0
 81161  1  0  0  0
 81162  1  0  0  0
 82 87  1  0  0  0
 82163  1  0  0  0
 82164  1  0  0  0
 83 84  1  0  0  0
 83 86  1  0  0  0
 83165  1  0  0  0
 83166  1  0  0  0
 84 87  1  0  0  0
 84167  1  0  0  0
 84168  1  0  0  0
 85169  1  0  0  0
 85170  1  0  0  0
 87171  1  0  0  0
M  CHG  1  87   1
M  ISO  4   1 100  68 101  85 101  86 100
M  END
> <chiral flag>
0

> <version>
0

> <s_m_source_file>
/data/baiqing/PycharmProjects/Reinvent-master-3.2/result/LINK_invent/BTK/process_docking_weight1_custom_sum_contain_oxygen_bond_distance_aromatic_linkinvent_7_9_3/rearranged_h_0099.sdf

> <i_m_source_file_index>
35

> <r_mmod_Potential_Energy-OPLS-2005>
-22.4106960296631

> <r_mmod_Stretch_Energy-OPLS-2005>
35.4772796630859

> <r_mmod_Bend_Energy-OPLS-2005>
92.5278854370117

> <r_mmod_Torsional_Energy-OPLS-2005>
307.324829101562

> <r_mmod_Improper_Torsional_Energy-OPLS-2005>
5.69971084594727

> <r_mmod_Van_der_Waal_Energy-OPLS-2005>
157.297485351562

> <r_mmod_Electrostatic_Energy-OPLS-2005>
-220.243942260742

> <r_mmod_Solvation_Energy-OPLS-2005>
-409.859771728516

> <b_mmod_Minimization_Converged-OPLS-2005>
0

> <r_mmod_RMS_Derivative-OPLS-2005>
3.02745485305786

$$$$
35
                    3D
 Structure written by MMmdl.
180188  0  0  1  0            999 V2000
  -28.5478  -16.6774   20.4118 C   0  0  0  0  0  0
  -29.8482  -14.3240   19.5712 C   0  0  0  0  0  0
  -29.4574  -13.2140   18.5632 C   0  0  0  0  0  0
  -28.2430  -12.3923   19.0168 C   0  0  0  0  0  0
  -27.3997  -13.3664   19.8655 C   0  0  2  0  0  0
  -28.1277  -14.0751   21.0075 C   0  0  0  0  0  0
  -25.0978  -13.8143   20.5524 C   0  0  0  0  0  0
  -24.0752  -13.0194   20.9437 C   0  0  0  0  0  0
  -24.5697  -11.6736   20.8956 C   0  0  0  0  0  0
  -23.8667  -10.4111   21.0577 C   0  0  0  0  0  0
  -24.3462   -9.4087   21.9237 C   0  0  0  0  0  0
  -23.6222   -8.2105   22.0780 C   0  0  0  0  0  0
  -22.4200   -8.0142   21.3541 C   0  0  0  0  0  0
  -21.9762   -9.0076   20.4641 C   0  0  0  0  0  0
  -22.7007  -10.1943   20.3080 C   0  0  0  0  0  0
  -21.6789   -6.0669   22.5308 C   0  0  0  0  0  0
  -21.3947   -6.5611   23.8239 C   0  0  0  0  0  0
  -21.3644   -5.6771   24.9202 C   0  0  0  0  0  0
  -21.6061   -4.3046   24.7245 C   0  0  0  0  0  0
  -21.8827   -3.8120   23.4378 C   0  0  0  0  0  0
  -21.9193   -4.6917   22.3433 C   0  0  0  0  0  0
  -22.6807  -13.4897   21.2095 C   0  0  0  0  0  0
  -22.1675   -4.2147   21.0994 F   0  0  0  0  0  0
  -21.5647   -3.4536   25.7746 F   0  0  0  0  0  0
  -28.6949  -15.1640   20.2055 N   0  0  0  0  0  0
  -26.1338  -12.9431   20.3133 N   0  0  0  0  0  0
  -25.8583  -11.6488   20.5801 N   0  0  0  0  0  0
  -21.9623  -12.7895   22.0775 N   0  0  0  0  0  0
  -25.2272  -15.1934   20.3624 N   0  0  0  0  0  0
  -29.8691  -16.8197   20.4561 O   0  0  0  0  0  0
  -21.6564   -6.8752   21.4237 O   0  0  0  0  0  0
  -22.2511  -14.5240   20.6951 O   0  0  0  0  0  0
  -24.6101  -31.8300   23.2815 C   0  0  0  0  0  0
  -25.8893  -32.4659   23.8666 C   0  0  1  0  0  0
  -27.0600  -27.3490   20.0291 C   0  0  0  0  0  0
  -25.5956  -33.8579   24.2320 N   0  0  0  0  0  0
  -23.4247  -30.4334   21.6657 C   0  0  2  0  0  0
  -24.8397  -29.1077   20.0486 C   0  0  0  0  0  0
  -22.7917  -29.3539   22.6086 C   0  0  0  0  0  0
  -17.8456  -28.3161   23.0993 C   0  0  0  0  0  0
  -24.1502  -36.7341   23.2575 C   0  0  0  0  0  0
  -25.9420  -30.7779   21.4952 C   0  0  0  0  0  0
  -25.9777  -29.4724   20.7379 C   0  0  0  0  0  0
  -27.0771  -28.5739   20.7583 C   0  0  0  0  0  0
  -26.0136  -27.2232   19.1247 C   0  0  0  0  0  0
  -24.8724  -28.0243   19.1811 C   0  0  0  0  0  0
  -23.6919  -30.0109   20.1850 C   0  0  0  0  0  0
  -25.4118  -36.3064   24.0248 C   0  0  1  0  0  0
  -20.4754  -28.5226   23.5911 C   0  0  2  0  0  0
  -20.3553  -27.0356   23.3183 C   0  0  0  0  0  0
  -19.4934  -26.5673   22.3013 C   0  0  0  0  0  0
  -18.0998  -27.1406   22.1126 C   0  0  0  0  0  0
  -19.0284  -29.0582   23.5610 C   0  0  0  0  0  0
  -18.8912  -30.4118   24.0695 C   0  0  0  0  0  0
  -17.5251  -30.9596   24.1879 C   0  0  0  0  0  0
  -25.9060  -34.9405   23.5007 C   0  0  0  0  0  0
  -16.4709  -30.2511   23.6052 C   0  0  0  0  0  0
  -16.5826  -28.9164   23.1254 C   0  0  0  0  0  0
  -26.4639  -31.6682   25.1071 C   0  0  0  0  0  0
  -25.3862  -31.3805   26.1755 C   0  0  0  0  0  0
  -27.0497  -30.3043   24.6721 C   0  0  0  0  0  0
  -27.6220  -32.4481   25.7815 C   0  0  0  0  0  0
  -27.5619  -37.1889   24.8438 C   0  0  0  0  0  0
  -21.4576  -29.4447   22.8890 N   0  0  0  0  0  0
  -26.4311  -37.3813   23.9382 N   0  0  0  0  0  0
  -24.6738  -31.0225   22.2053 N   0  0  0  0  0  0
  -23.4055  -28.4609   23.0826 O   0  0  0  0  0  0
  -27.8843  -26.2311   20.2145 O   0  0  0  0  0  0
  -26.5695  -34.8762   22.4603 O   0  0  0  0  0  0
  -23.5453  -32.0963   23.8503 O   0  0  0  0  0  0
  -21.3977  -21.1142   19.9915 C   0  0  0  0  0  0
  -21.5246  -22.3778   20.5706 C   0  0  0  0  0  0
  -23.0244  -22.5610   20.5756 C   0  0  0  0  0  0
  -24.2122  -21.0874   20.4233 C   0  0  0  0  0  0
  -22.3949  -20.8225   18.9821 C   0  0  0  0  0  0
  -20.3457  -26.4480   18.6590 C   0  0  0  0  0  0
  -21.3941  -27.7040   19.9751 C   0  0  0  0  0  0
  -18.9193  -21.8851   19.8520 C   0  0  0  0  0  0
  -18.6829  -24.2650   20.4587 C   0  0  0  0  0  0
  -19.0558  -22.6079   22.1050 C   0  0  0  0  0  0
  -22.6810  -24.4836   20.5098 C   0  0  0  0  0  0
  -25.9809  -19.7331   20.6450 C   0  0  0  0  0  0
  -25.7028  -24.2635   19.7418 C   0  0  0  0  0  0
  -25.2641  -23.1401   18.6236 C   0  0  0  0  0  0
  -27.2981  -24.7935   19.9276 C   0  0  0  0  0  0
  -23.8394  -22.7796   17.7985 C   0  0  0  0  0  0
  -21.6771  -26.0517   19.6443 C   0  0  0  0  0  0
  -19.7753  -22.9734   20.8193 C   0  0  0  0  0  0
  -23.4610  -20.2560   19.5620 N   0  0  0  0  0  0
  -27.1915  -17.9536   20.4858 N   0  0  0  0  0  0
  -22.6628  -21.8133   17.9683 O   0  0  0  0  0  0
  -30.2812  -15.1002   18.9298 H   0  0  0  0  0  0
  -30.5766  -14.1089   20.3423 H   0  0  0  0  0  0
  -30.3364  -12.5907   18.3736 H   0  0  0  0  0  0
  -29.1794  -13.7247   17.6333 H   0  0  0  0  0  0
  -28.5631  -11.5601   19.6704 H   0  0  0  0  0  0
  -27.6659  -11.9864   18.1642 H   0  0  0  0  0  0
  -27.0966  -14.0837   19.0863 H   0  0  0  0  0  0
  -28.8182  -13.4989   21.6034 H   0  0  0  0  0  0
  -27.4129  -14.5025   21.7102 H   0  0  0  0  0  0
  -25.2588   -9.5662   22.4829 H   0  0  0  0  0  0
  -23.9999   -7.4475   22.7458 H   0  0  0  0  0  0
  -21.0732   -8.8509   19.8923 H   0  0  0  0  0  0
  -22.3456  -10.9489   19.6250 H   0  0  0  0  0  0
  -21.1863   -7.6118   23.9726 H   0  0  0  0  0  0
  -21.1476   -6.0498   25.9099 H   0  0  0  0  0  0
  -22.0616   -2.7604   23.2855 H   0  0  0  0  0  0
  -22.3308  -11.9567   22.5151 H   0  0  0  0  0  0
  -21.0284  -13.0891   22.3192 H   0  0  0  0  0  0
  -24.4200  -15.8063   20.4163 H   0  0  0  0  0  0
  -25.9805  -15.6046   19.8358 H   0  0  0  0  0  0
  -26.6520  -32.4957   23.1089 H   0  0  0  0  0  0
  -25.0526  -33.9519   25.0766 H   0  0  0  0  0  0
  -22.6398  -31.1014   21.7158 H   0  0  0  0  0  0
  -23.3818  -35.9689   23.3245 H   0  0  0  0  0  0
  -24.3562  -36.9014   22.2020 H   0  0  0  0  0  0
  -23.7231  -37.6517   23.6605 H   0  0  0  0  0  0
  -26.1309  -31.5433   20.7224 H   0  0  0  0  0  0
  -26.8074  -30.6898   22.1474 H   0  0  0  0  0  0
  -27.8950  -28.7356   21.4243 H   0  0  0  0  0  0
  -26.0666  -26.5672   18.2614 H   0  0  0  0  0  0
  -24.0704  -27.8546   18.4752 H   0  0  0  0  0  0
  -23.7292  -30.9127   19.6932 H   0  0  0  0  0  0
  -23.0707  -29.6162   19.3937 H   0  0  0  0  0  0
  -25.1290  -36.2083   25.0807 H   0  0  0  0  0  0
  -20.7279  -28.5146   24.7101 H   0  0  0  0  0  0
  -20.0246  -26.7992   24.4128 H   0  0  0  0  0  0
  -21.2801  -26.4232   23.0730 H   0  0  0  0  0  0
  -19.3176  -25.5894   22.9784 H   0  0  0  0  0  0
  -19.9576  -26.2057   21.3501 H   0  0  0  0  0  0
  -18.1605  -27.6074   21.2517 H   0  0  0  0  0  0
  -17.1184  -26.5856   21.7206 H   0  0  0  0  0  0
  -19.6494  -30.8951   24.6112 H   0  0  0  0  0  0
  -17.3207  -31.7309   24.9296 H   0  0  0  0  0  0
  -15.4903  -30.7710   23.7703 H   0  0  0  0  0  0
  -15.6276  -28.5659   22.8986 H   0  0  0  0  0  0
  -24.6099  -30.7023   25.8135 H   0  0  0  0  0  0
  -24.8989  -32.2983   26.5080 H   0  0  0  0  0  0
  -25.8139  -30.9073   27.0596 H   0  0  0  0  0  0
  -26.3081  -29.6770   24.1704 H   0  0  0  0  0  0
  -27.3950  -29.7366   25.5402 H   0  0  0  0  0  0
  -27.9140  -30.4222   24.0135 H   0  0  0  0  0  0
  -27.2800  -33.3765   26.2467 H   0  0  0  0  0  0
  -28.4179  -32.7059   25.0750 H   0  0  0  0  0  0
  -28.0801  -31.8561   26.5785 H   0  0  0  0  0  0
  -28.2649  -38.0197   24.7638 H   0  0  0  0  0  0
  -28.1093  -36.2763   24.6153 H   0  0  0  0  0  0
  -27.2281  -37.1442   25.8804 H   0  0  0  0  0  0
  -21.1895  -30.4100   22.7324 H   0  0  0  0  0  0
  -26.0220  -38.2910   24.1485 H   0  0  0  0  0  0
  -20.8295  -20.2818   20.6307 H   0  0  0  0  0  0
  -20.4098  -27.1899   17.7886 H   0  0  0  0  0  0
  -19.4805  -26.8562   19.1876 H   0  0  0  0  0  0
  -19.7751  -25.9786   17.8747 H   0  0  0  0  0  0
  -21.0519  -28.4040   19.1185 H   0  0  0  0  0  0
  -21.9337  -28.4605   20.4864 H   0  0  0  0  0  0
  -20.4117  -28.0517   20.3700 H   0  0  0  0  0  0
  -19.1822  -21.7759   18.8156 H   0  0  0  0  0  0
  -17.6639  -21.9997   19.7636 H   0  0  0  0  0  0
  -18.7902  -20.9052   20.4280 H   0  0  0  0  0  0
  -18.5185  -24.8601   19.6182 H   0  0  0  0  0  0
  -18.3544  -24.8412   21.2831 H   0  0  0  0  0  0
  -17.5892  -23.9040   20.4232 H   0  0  0  0  0  0
  -19.4793  -22.0268   22.8492 H   0  0  0  0  0  0
  -18.0264  -22.3049   21.9898 H   0  0  0  0  0  0
  -18.6784  -23.3131   22.7425 H   0  0  0  0  0  0
  -23.3740  -24.7922   21.0271 H   0  0  0  0  0  0
  -22.8276  -24.6001   19.4169 H   0  0  0  0  0  0
  -26.7030  -20.5517   20.5007 H   0  0  0  0  0  0
  -25.8014  -19.6866   21.7322 H   0  0  0  0  0  0
  -25.0254  -25.0932   19.3321 H   0  0  0  0  0  0
  -25.2602  -24.1753   20.7268 H   0  0  0  0  0  0
  -25.7225  -22.2010   18.7808 H   0  0  0  0  0  0
  -25.6804  -23.7099   17.8079 H   0  0  0  0  0  0
  -27.8239  -24.5009   19.0158 H   0  0  0  0  0  0
  -27.7511  -24.2105   20.7681 H   0  0  0  0  0  0
  -22.9364  -23.3882   17.9878 H   0  0  0  0  0  0
  -24.0356  -21.8026   18.0327 H   0  0  0  0  0  0
  -22.4725  -26.3722   18.9882 H   0  0  0  0  0  0
  -27.9410  -18.6034   20.7899 H   0  0  0  0  0  0
  1 25  1  0  0  0
  1 30  2  0  0  0
  1 90  1  0  0  0
  2  3  1  0  0  0
  2 25  1  0  0  0
  2 92  1  0  0  0
  2 93  1  0  0  0
  3  4  1  0  0  0
  3 94  1  0  0  0
  3 95  1  0  0  0
  4  5  1  0  0  0
  4 96  1  0  0  0
  4 97  1  0  0  0
  5  6  1  0  0  0
  5 26  1  0  0  0
  5 98  1  0  0  0
  6 25  1  0  0  0
  6 99  1  0  0  0
  6100  1  0  0  0
  7  8  2  0  0  0
  7 26  1  0  0  0
  7 29  1  0  0  0
  8  9  1  0  0  0
  8 22  1  0  0  0
  9 10  1  0  0  0
  9 27  2  0  0  0
 10 11  2  0  0  0
 10 15  1  0  0  0
 11 12  1  0  0  0
 11101  1  0  0  0
 12 13  2  0  0  0
 12102  1  0  0  0
 13 14  1  0  0  0
 13 31  1  0  0  0
 14 15  2  0  0  0
 14103  1  0  0  0
 15104  1  0  0  0
 16 17  2  0  0  0
 16 21  1  0  0  0
 16 31  1  0  0  0
 17 18  1  0  0  0
 17105  1  0  0  0
 18 19  2  0  0  0
 18106  1  0  0  0
 19 20  1  0  0  0
 19 24  1  0  0  0
 20 21  2  0  0  0
 20107  1  0  0  0
 21 23  1  0  0  0
 22 28  1  0  0  0
 22 32  2  0  0  0
 26 27  1  0  0  0
 28108  1  0  0  0
 28109  1  0  0  0
 29110  1  0  0  0
 29111  1  0  0  0
 33 34  1  0  0  0
 33 66  1  0  0  0
 33 70  2  0  0  0
 34 36  1  0  0  0
 34 59  1  0  0  0
 34112  1  0  0  0
 35 44  2  0  0  0
 35 45  1  0  0  0
 35 68  1  0  0  0
 36 56  1  0  0  0
 36113  1  0  0  0
 37 39  1  0  0  0
 37 47  1  0  0  0
 37 66  1  0  0  0
 37114  1  0  0  0
 38 43  2  0  0  0
 38 46  1  0  0  0
 38 47  1  0  0  0
 39 64  1  0  0  0
 39 67  2  0  0  0
 40 52  1  0  0  0
 40 53  2  0  0  0
 40 58  1  0  0  0
 41115  1  0  0  0
 41116  1  0  0  0
 41117  1  0  0  0
 41 48  1  0  0  0
 42 43  1  0  0  0
 42 66  1  0  0  0
 42118  1  0  0  0
 42119  1  0  0  0
 43 44  1  0  0  0
 44120  1  0  0  0
 45 46  2  0  0  0
 45121  1  0  0  0
 46122  1  0  0  0
 47123  1  0  0  0
 47124  1  0  0  0
 48 56  1  0  0  0
 48 65  1  0  0  0
 48125  1  0  0  0
 49 50  1  0  0  0
 49 53  1  0  0  0
 49 64  1  0  0  0
 49126  1  0  0  0
 50 51  1  0  0  0
 50127  1  0  0  0
 50128  1  0  0  0
 51 52  1  0  0  0
 51129  1  0  0  0
 51130  1  0  0  0
 52131  1  0  0  0
 52132  1  0  0  0
 53 54  1  0  0  0
 54 55  2  0  0  0
 54133  1  0  0  0
 55 57  1  0  0  0
 55134  1  0  0  0
 56 69  2  0  0  0
 57 58  2  0  0  0
 57135  1  0  0  0
 58136  1  0  0  0
 59 60  1  0  0  0
 59 61  1  0  0  0
 59 62  1  0  0  0
 60137  1  0  0  0
 60138  1  0  0  0
 60139  1  0  0  0
 61140  1  0  0  0
 61141  1  0  0  0
 61142  1  0  0  0
 62143  1  0  0  0
 62144  1  0  0  0
 62145  1  0  0  0
 63 65  1  0  0  0
 63146  1  0  0  0
 63147  1  0  0  0
 63148  1  0  0  0
 64149  1  0  0  0
 65150  1  0  0  0
 68 85  1  0  0  0
 71 72  2  0  0  0
 71 75  1  0  0  0
 71151  1  0  0  0
 72 73  1  0  0  0
 72 88  1  0  0  0
 73 74  2  0  0  0
 73 81  1  0  0  0
 74 82  1  0  0  0
 74 89  1  0  0  0
 75 89  2  0  0  0
 75 91  1  0  0  0
 76152  1  0  0  0
 76153  1  0  0  0
 76154  1  0  0  0
 76 87  1  0  0  0
 77 87  1  0  0  0
 77155  1  0  0  0
 77156  1  0  0  0
 77157  1  0  0  0
 78158  1  0  0  0
 78159  1  0  0  0
 78160  1  0  0  0
 78 88  1  0  0  0
 79 88  1  0  0  0
 79161  1  0  0  0
 79162  1  0  0  0
 79163  1  0  0  0
 80 88  1  0  0  0
 80164  1  0  0  0
 80165  1  0  0  0
 80166  1  0  0  0
 81 87  1  0  0  0
 81167  1  0  0  0
 81168  1  0  0  0
 82 90  1  0  0  0
 82169  1  0  0  0
 82170  1  0  0  0
 83 84  1  0  0  0
 83 85  1  0  0  0
 83171  1  0  0  0
 83172  1  0  0  0
 84 86  1  0  0  0
 84173  1  0  0  0
 84174  1  0  0  0
 85175  1  0  0  0
 85176  1  0  0  0
 86 91  1  0  0  0
 86177  1  0  0  0
 86178  1  0  0  0
 87179  1  0  0  0
 90180  1  0  0  0
M  ISO  4   1 100  68 101  85 101  90 100
M  END
> <chiral flag>
0

> <version>
0

> <s_m_source_file>
/data/baiqing/PycharmProjects/Reinvent-master-3.2/result/LINK_invent/BTK/process_docking_weight1_custom_sum_contain_oxygen_bond_distance_aromatic_linkinvent_7_9_3/rearranged_h_0099.sdf

> <i_m_source_file_index>
36

> <r_mmod_Potential_Energy-OPLS-2005>
11012.5263671875

> <r_mmod_Stretch_Energy-OPLS-2005>
3998.56665039062

> <r_mmod_Bend_Energy-OPLS-2005>
3131.44873046875

> <r_mmod_Torsional_Energy-OPLS-2005>
652.954956054688

> <r_mmod_Improper_Torsional_Energy-OPLS-2005>
36.5523643493652

> <r_mmod_Van_der_Waal_Energy-OPLS-2005>
483.52294921875

> <r_mmod_Electrostatic_Energy-OPLS-2005>
-675.960632324219

> <r_mmod_Solvation_Energy-OPLS-2005>
-224.368606567383

> <b_mmod_Minimization_Converged-OPLS-2005>
0

> <r_mmod_RMS_Derivative-OPLS-2005>
99.9990005493164

$$$$
36
                    3D
 Structure written by MMmdl.
160168  0  0  1  0            999 V2000
  -30.6325  -14.7429   20.4530 C   0  0  0  0  0  0
  -30.4268  -12.4537   19.4849 C   0  0  0  0  0  0
  -29.5063  -12.4955   18.2452 C   0  0  0  0  0  0
  -28.0361  -12.3179   18.6635 C   0  0  0  0  0  0
  -27.6422  -13.2332   19.8536 C   0  0  2  0  0  0
  -28.6843  -13.1905   20.9927 C   0  0  0  0  0  0
  -25.2541  -13.8195   20.5721 C   0  0  0  0  0  0
  -24.1823  -13.0457   20.9233 C   0  0  0  0  0  0
  -24.6405  -11.6929   20.8792 C   0  0  0  0  0  0
  -23.9093  -10.4301   21.0417 C   0  0  0  0  0  0
  -24.3641   -9.4217   21.9193 C   0  0  0  0  0  0
  -23.6305   -8.2254   22.0762 C   0  0  0  0  0  0
  -22.4294   -8.0284   21.3544 C   0  0  0  0  0  0
  -21.9932   -9.0268   20.4664 C   0  0  0  0  0  0
  -22.7266  -10.2140   20.3065 C   0  0  0  0  0  0
  -21.6864   -6.0763   22.5285 C   0  0  0  0  0  0
  -21.4019   -6.5664   23.8221 C   0  0  0  0  0  0
  -21.3649   -5.6804   24.9178 C   0  0  0  0  0  0
  -21.6037   -4.3067   24.7228 C   0  0  0  0  0  0
  -21.8817   -3.8169   23.4349 C   0  0  0  0  0  0
  -21.9197   -4.6991   22.3407 C   0  0  0  0  0  0
  -22.7847  -13.5239   21.1856 C   0  0  0  0  0  0
  -22.1667   -4.2177   21.0986 F   0  0  0  0  0  0
  -21.5616   -3.4546   25.7740 F   0  0  0  0  0  0
  -29.9839  -13.5305   20.4026 N   0  0  0  0  0  0
  -26.2957  -12.9399   20.3308 N   0  0  0  0  0  0
  -25.9331  -11.6556   20.5799 N   0  0  0  0  0  0
  -22.0498  -12.8213   22.0397 N   0  0  0  0  0  0
  -25.4252  -15.1915   20.4146 N   0  0  0  0  0  0
  -31.8248  -14.7987   20.1380 O   0  0  0  0  0  0
  -21.6635   -6.8896   21.4244 O   0  0  0  0  0  0
  -22.3525  -14.5551   20.6708 O   0  0  0  0  0  0
  -24.6280  -31.8466   23.1973 C   0  0  0  0  0  0
  -25.9104  -32.4710   23.8291 C   0  0  1  0  0  0
  -27.2372  -27.2897   20.0960 C   0  0  0  0  0  0
  -25.5887  -33.8517   24.2195 N   0  0  0  0  0  0
  -23.4275  -30.4698   21.5359 C   0  0  2  0  0  0
  -24.8763  -28.9171   20.1088 C   0  0  0  0  0  0
  -22.7501  -29.4535   22.4866 C   0  0  0  0  0  0
  -18.0278  -28.1412   22.8432 C   0  0  0  0  0  0
  -24.1495  -36.7281   23.2636 C   0  0  0  0  0  0
  -25.9684  -30.7710   21.3684 C   0  0  0  0  0  0
  -26.0433  -29.3930   20.7156 C   0  0  0  0  0  0
  -27.2222  -28.5886   20.7019 C   0  0  0  0  0  0
  -26.0358  -26.8621   19.4863 C   0  0  0  0  0  0
  -24.8739  -27.6580   19.4901 C   0  0  0  0  0  0
  -23.6462  -29.7981   20.1537 C   0  0  0  0  0  0
  -25.4118  -36.3015   24.0295 C   0  0  1  0  0  0
  -20.5878  -28.3670   23.1242 C   0  0  2  0  0  0
  -20.6756  -26.9376   22.5392 C   0  0  0  0  0  0
  -19.5759  -26.6381   21.5164 C   0  0  0  0  0  0
  -18.1933  -26.7943   22.1585 C   0  0  0  0  0  0
  -19.1530  -28.8861   23.2839 C   0  0  0  0  0  0
  -18.9464  -30.1470   23.8861 C   0  0  0  0  0  0
  -17.6464  -30.6601   24.0548 C   0  0  0  0  0  0
  -25.9044  -34.9391   23.5045 C   0  0  0  0  0  0
  -16.5353  -29.9096   23.6351 C   0  0  0  0  0  0
  -16.7259  -28.6537   23.0309 C   0  0  0  0  0  0
  -26.4499  -31.6566   25.0681 C   0  0  0  0  0  0
  -25.3753  -31.3698   26.1425 C   0  0  0  0  0  0
  -27.0319  -30.2990   24.6119 C   0  0  0  0  0  0
  -27.6051  -32.4305   25.7467 C   0  0  0  0  0  0
  -27.5559  -37.1776   24.8443 C   0  0  0  0  0  0
  -21.4196  -29.3012   22.3641 N   0  0  0  0  0  0
  -26.4266  -37.3729   23.9396 N   0  0  0  0  0  0
  -24.6945  -31.0459   22.0923 N   0  0  0  0  0  0
  -23.4192  -28.8018   23.2913 O   0  0  0  0  0  0
  -28.3808  -26.4681   20.1424 O   0  0  0  0  0  0
  -26.5629  -34.8873   22.4622 O   0  0  0  0  0  0
  -23.5431  -32.1238   23.7295 O   0  0  0  0  0  0
  -29.4291  -19.7089   19.4794 C   0  0  0  0  0  0
  -29.1883  -20.6712   21.4423 C   0  0  0  0  0  0
  -29.1094  -20.9856   20.1099 C   0  0  0  0  0  0
  -29.7563  -18.7003   20.3865 C   0  0  0  0  0  0
  -31.3354  -18.9084   23.3429 C   0  0  0  0  0  0
  -27.5922  -22.1988   18.4505 C   0  0  0  0  0  0
  -30.4463  -17.2861   20.1715 C   0  0  0  0  0  0
  -28.5724  -23.7495   20.2497 C   0  0  0  0  0  0
  -29.8675  -18.7480   22.9187 C   0  0  0  0  0  0
  -28.4986  -25.1538   19.4483 C   0  0  0  0  0  0
  -28.7840  -22.3833   19.4058 C   0  0  2  0  0  0
  -29.5984  -19.3374   21.6191 N   0  0  0  0  0  0
  -29.9143  -15.9219   20.6031 N   0  0  0  0  0  0
  -31.4681  -12.5692   19.1793 H   0  0  0  0  0  0
  -30.3674  -11.4838   19.9809 H   0  0  0  0  0  0
  -29.7907  -11.7159   17.5385 H   0  0  0  0  0  0
  -29.6261  -13.4456   17.7245 H   0  0  0  0  0  0
  -27.9014  -11.2712   18.9419 H   0  0  0  0  0  0
  -27.3736  -12.4903   17.8148 H   0  0  0  0  0  0
  -27.6321  -14.2494   19.4591 H   0  0  0  0  0  0
  -28.7169  -12.2070   21.4622 H   0  0  0  0  0  0
  -28.4225  -13.8999   21.7806 H   0  0  0  0  0  0
  -25.2781   -9.5694   22.4782 H   0  0  0  0  0  0
  -24.0034   -7.4638   22.7465 H   0  0  0  0  0  0
  -21.0885   -8.8795   19.8949 H   0  0  0  0  0  0
  -22.3738  -10.9695   19.6189 H   0  0  0  0  0  0
  -21.2005   -7.6167   23.9737 H   0  0  0  0  0  0
  -21.1467   -6.0532   25.9081 H   0  0  0  0  0  0
  -22.0602   -2.7636   23.2839 H   0  0  0  0  0  0
  -22.4119  -11.9876   22.4784 H   0  0  0  0  0  0
  -21.1116  -13.1227   22.2595 H   0  0  0  0  0  0
  -24.6644  -15.8511   20.5380 H   0  0  0  0  0  0
  -26.2698  -15.6289   20.0684 H   0  0  0  0  0  0
  -26.7145  -32.5326   23.1005 H   0  0  0  0  0  0
  -24.9981  -33.9682   25.0296 H   0  0  0  0  0  0
  -22.7241  -31.2913   21.3849 H   0  0  0  0  0  0
  -23.3726  -35.9644   23.3290 H   0  0  0  0  0  0
  -24.3564  -36.8939   22.2055 H   0  0  0  0  0  0
  -23.7338  -37.6500   23.6697 H   0  0  0  0  0  0
  -26.0876  -31.5241   20.5880 H   0  0  0  0  0  0
  -26.8542  -30.8280   21.9896 H   0  0  0  0  0  0
  -28.1251  -28.9492   21.1733 H   0  0  0  0  0  0
  -25.9503  -25.8958   19.0159 H   0  0  0  0  0  0
  -23.9749  -27.2903   19.0156 H   0  0  0  0  0  0
  -23.7644  -30.5653   19.3880 H   0  0  0  0  0  0
  -22.7715  -29.2176   19.8571 H   0  0  0  0  0  0
  -25.1331  -36.1820   25.0789 H   0  0  0  0  0  0
  -20.9961  -28.3241   24.1358 H   0  0  0  0  0  0
  -20.5582  -26.2251   23.3570 H   0  0  0  0  0  0
  -21.6625  -26.7335   22.1217 H   0  0  0  0  0  0
  -19.6909  -25.6288   21.1206 H   0  0  0  0  0  0
  -19.6775  -27.3183   20.6693 H   0  0  0  0  0  0
  -17.4178  -26.6602   21.4036 H   0  0  0  0  0  0
  -18.0396  -26.0138   22.9038 H   0  0  0  0  0  0
  -19.7943  -30.7286   24.2209 H   0  0  0  0  0  0
  -17.5028  -31.6282   24.5147 H   0  0  0  0  0  0
  -15.5360  -30.2973   23.7756 H   0  0  0  0  0  0
  -15.8646  -28.0900   22.6978 H   0  0  0  0  0  0
  -24.5931  -30.7039   25.7779 H   0  0  0  0  0  0
  -24.8943  -32.2849   26.4885 H   0  0  0  0  0  0
  -25.8097  -30.8868   27.0188 H   0  0  0  0  0  0
  -26.2842  -29.6781   24.1158 H   0  0  0  0  0  0
  -27.4051  -29.7230   25.4603 H   0  0  0  0  0  0
  -27.8712  -30.4309   23.9284 H   0  0  0  0  0  0
  -27.2649  -33.3600   26.2059 H   0  0  0  0  0  0
  -28.3863  -32.6888   25.0303 H   0  0  0  0  0  0
  -28.0700  -31.8410   26.5388 H   0  0  0  0  0  0
  -28.2531  -38.0110   24.7456 H   0  0  0  0  0  0
  -28.1086  -36.2617   24.6285 H   0  0  0  0  0  0
  -27.2223  -37.1431   25.8829 H   0  0  0  0  0  0
  -20.9354  -29.8799   21.6927 H   0  0  0  0  0  0
  -26.0111  -38.2756   24.1507 H   0  0  0  0  0  0
  -29.4954  -19.5648   18.4106 H   0  0  0  0  0  0
  -29.0386  -21.3036   22.3106 H   0  0  0  0  0  0
  -31.6230  -19.9578   23.3979 H   0  0  0  0  0  0
  -32.0203  -18.4145   22.6546 H   0  0  0  0  0  0
  -31.4922  -18.4757   24.3302 H   0  0  0  0  0  0
  -26.6699  -22.0250   19.0023 H   0  0  0  0  0  0
  -27.7401  -21.3539   17.7777 H   0  0  0  0  0  0
  -27.4370  -23.0711   17.8198 H   0  0  0  0  0  0
  -31.4519  -17.3631   20.5870 H   0  0  0  0  0  0
  -30.6181  -17.1818   19.0998 H   0  0  0  0  0  0
  -27.6763  -23.6522   20.8602 H   0  0  0  0  0  0
  -29.3970  -23.8349   20.9575 H   0  0  0  0  0  0
  -29.2205  -19.2291   23.6527 H   0  0  0  0  0  0
  -29.5833  -17.6955   22.8945 H   0  0  0  0  0  0
  -29.4584  -25.2337   18.9384 H   0  0  0  0  0  0
  -27.7992  -25.0902   18.6192 H   0  0  0  0  0  0
  -29.6576  -22.5664   18.7773 H   0  0  0  0  0  0
  -28.9369  -15.8556   20.8393 H   0  0  0  0  0  0
  1 25  1  0  0  0
  1 30  2  0  0  0
  1 83  1  0  0  0
  2  3  1  0  0  0
  2 25  1  0  0  0
  2 84  1  0  0  0
  2 85  1  0  0  0
  3  4  1  0  0  0
  3 86  1  0  0  0
  3 87  1  0  0  0
  4  5  1  0  0  0
  4 88  1  0  0  0
  4 89  1  0  0  0
  5  6  1  0  0  0
  5 26  1  0  0  0
  5 90  1  0  0  0
  6 25  1  0  0  0
  6 91  1  0  0  0
  6 92  1  0  0  0
  7  8  2  0  0  0
  7 26  1  0  0  0
  7 29  1  0  0  0
  8  9  1  0  0  0
  8 22  1  0  0  0
  9 10  1  0  0  0
  9 27  2  0  0  0
 10 11  2  0  0  0
 10 15  1  0  0  0
 11 12  1  0  0  0
 11 93  1  0  0  0
 12 13  2  0  0  0
 12 94  1  0  0  0
 13 14  1  0  0  0
 13 31  1  0  0  0
 14 15  2  0  0  0
 14 95  1  0  0  0
 15 96  1  0  0  0
 16 17  2  0  0  0
 16 21  1  0  0  0
 16 31  1  0  0  0
 17 18  1  0  0  0
 17 97  1  0  0  0
 18 19  2  0  0  0
 18 98  1  0  0  0
 19 20  1  0  0  0
 19 24  1  0  0  0
 20 21  2  0  0  0
 20 99  1  0  0  0
 21 23  1  0  0  0
 22 28  1  0  0  0
 22 32  2  0  0  0
 26 27  1  0  0  0
 28100  1  0  0  0
 28101  1  0  0  0
 29102  1  0  0  0
 29103  1  0  0  0
 33 34  1  0  0  0
 33 66  1  0  0  0
 33 70  2  0  0  0
 34 36  1  0  0  0
 34 59  1  0  0  0
 34104  1  0  0  0
 35 44  2  0  0  0
 35 45  1  0  0  0
 35 68  1  0  0  0
 36 56  1  0  0  0
 36105  1  0  0  0
 37 39  1  0  0  0
 37 47  1  0  0  0
 37 66  1  0  0  0
 37106  1  0  0  0
 38 43  2  0  0  0
 38 46  1  0  0  0
 38 47  1  0  0  0
 39 64  1  0  0  0
 39 67  2  0  0  0
 40 52  1  0  0  0
 40 53  2  0  0  0
 40 58  1  0  0  0
 41107  1  0  0  0
 41108  1  0  0  0
 41109  1  0  0  0
 41 48  1  0  0  0
 42 43  1  0  0  0
 42 66  1  0  0  0
 42110  1  0  0  0
 42111  1  0  0  0
 43 44  1  0  0  0
 44112  1  0  0  0
 45 46  2  0  0  0
 45113  1  0  0  0
 46114  1  0  0  0
 47115  1  0  0  0
 47116  1  0  0  0
 48 56  1  0  0  0
 48 65  1  0  0  0
 48117  1  0  0  0
 49 50  1  0  0  0
 49 53  1  0  0  0
 49 64  1  0  0  0
 49118  1  0  0  0
 50 51  1  0  0  0
 50119  1  0  0  0
 50120  1  0  0  0
 51 52  1  0  0  0
 51121  1  0  0  0
 51122  1  0  0  0
 52123  1  0  0  0
 52124  1  0  0  0
 53 54  1  0  0  0
 54 55  2  0  0  0
 54125  1  0  0  0
 55 57  1  0  0  0
 55126  1  0  0  0
 56 69  2  0  0  0
 57 58  2  0  0  0
 57127  1  0  0  0
 58128  1  0  0  0
 59 60  1  0  0  0
 59 61  1  0  0  0
 59 62  1  0  0  0
 60129  1  0  0  0
 60130  1  0  0  0
 60131  1  0  0  0
 61132  1  0  0  0
 61133  1  0  0  0
 61134  1  0  0  0
 62135  1  0  0  0
 62136  1  0  0  0
 62137  1  0  0  0
 63 65  1  0  0  0
 63138  1  0  0  0
 63139  1  0  0  0
 63140  1  0  0  0
 64141  1  0  0  0
 65142  1  0  0  0
 68 80  1  0  0  0
 71 73  1  0  0  0
 71 74  2  0  0  0
 71143  1  0  0  0
 72 73  2  0  0  0
 72 82  1  0  0  0
 72144  1  0  0  0
 73 81  1  0  0  0
 74 77  1  0  0  0
 74 82  1  0  0  0
 75 79  1  0  0  0
 75145  1  0  0  0
 75146  1  0  0  0
 75147  1  0  0  0
 76148  1  0  0  0
 76149  1  0  0  0
 76150  1  0  0  0
 76 81  1  0  0  0
 77 83  1  0  0  0
 77151  1  0  0  0
 77152  1  0  0  0
 78 80  1  0  0  0
 78 81  1  0  0  0
 78153  1  0  0  0
 78154  1  0  0  0
 79 82  1  0  0  0
 79155  1  0  0  0
 79156  1  0  0  0
 80157  1  0  0  0
 80158  1  0  0  0
 81159  1  0  0  0
 83160  1  0  0  0
M  ISO  4   1 100  68 101  80 101  83 100
M  END
> <chiral flag>
0

> <version>
0

> <s_m_source_file>
/data/baiqing/PycharmProjects/Reinvent-master-3.2/result/LINK_invent/BTK/process_docking_weight1_custom_sum_contain_oxygen_bond_distance_aromatic_linkinvent_7_9_3/rearranged_h_0099.sdf

> <i_m_source_file_index>
37

> <r_mmod_Potential_Energy-OPLS-2005>
74.3867263793945

> <r_mmod_Stretch_Energy-OPLS-2005>
110.96573638916

> <r_mmod_Bend_Energy-OPLS-2005>
186.066467285156

> <r_mmod_Torsional_Energy-OPLS-2005>
221.357818603516

> <r_mmod_Improper_Torsional_Energy-OPLS-2005>
7.61605405807495

> <r_mmod_Van_der_Waal_Energy-OPLS-2005>
115.957344055176

> <r_mmod_Electrostatic_Energy-OPLS-2005>
-438.902923583984

> <r_mmod_Solvation_Energy-OPLS-2005>
-204.350128173828

> <b_mmod_Minimization_Converged-OPLS-2005>
0

> <r_mmod_RMS_Derivative-OPLS-2005>
3.95783591270447

$$$$
37
                    3D
 Structure written by MMmdl.
188196  0  0  1  0            999 V2000
  -30.7679  -14.3567   20.6533 C   0  0  0  0  0  0
  -30.4053  -12.2636   19.4129 C   0  0  0  0  0  0
  -29.4952  -12.5458   18.2026 C   0  0  0  0  0  0
  -28.0105  -12.4176   18.5945 C   0  0  0  0  0  0
  -27.6670  -13.2123   19.8817 C   0  0  2  0  0  0
  -28.7039  -12.9453   21.0020 C   0  0  0  0  0  0
  -25.2594  -13.8191   20.5677 C   0  0  0  0  0  0
  -24.1849  -13.0461   20.9173 C   0  0  0  0  0  0
  -24.6399  -11.6921   20.8694 C   0  0  0  0  0  0
  -23.9050  -10.4313   21.0379 C   0  0  0  0  0  0
  -24.3599   -9.4240   21.9162 C   0  0  0  0  0  0
  -23.6303   -8.2261   22.0730 C   0  0  0  0  0  0
  -22.4278   -8.0283   21.3543 C   0  0  0  0  0  0
  -21.9902   -9.0249   20.4642 C   0  0  0  0  0  0
  -22.7214  -10.2141   20.3040 C   0  0  0  0  0  0
  -21.6879   -6.0742   22.5277 C   0  0  0  0  0  0
  -21.4027   -6.5637   23.8209 C   0  0  0  0  0  0
  -21.3674   -5.6778   24.9163 C   0  0  0  0  0  0
  -21.6049   -4.3042   24.7221 C   0  0  0  0  0  0
  -21.8816   -3.8145   23.4335 C   0  0  0  0  0  0
  -21.9209   -4.6972   22.3395 C   0  0  0  0  0  0
  -22.7861  -13.5255   21.1827 C   0  0  0  0  0  0
  -22.1676   -4.2147   21.0977 F   0  0  0  0  0  0
  -21.5626   -3.4525   25.7747 F   0  0  0  0  0  0
  -30.0532  -13.2189   20.4722 N   0  0  0  0  0  0
  -26.3045  -12.9374   20.3349 N   0  0  0  0  0  0
  -25.9324  -11.6519   20.5694 N   0  0  0  0  0  0
  -22.0494  -12.8256   22.0382 N   0  0  0  0  0  0
  -25.4269  -15.1919   20.4124 N   0  0  0  0  0  0
  -31.8007  -14.6176   20.0272 O   0  0  0  0  0  0
  -21.6650   -6.8878   21.4236 O   0  0  0  0  0  0
  -22.3544  -14.5553   20.6667 O   0  0  0  0  0  0
  -24.6074  -31.8704   23.2132 C   0  0  0  0  0  0
  -25.9001  -32.4826   23.8404 C   0  0  1  0  0  0
  -27.2451  -27.4844   20.0881 C   0  0  0  0  0  0
  -25.5883  -33.8622   24.2330 N   0  0  0  0  0  0
  -23.3971  -30.4912   21.5502 C   0  0  2  0  0  0
  -24.8491  -28.9644   20.1173 C   0  0  0  0  0  0
  -22.7409  -29.4629   22.4980 C   0  0  0  0  0  0
  -18.0301  -28.1358   22.8510 C   0  0  0  0  0  0
  -24.1497  -36.7308   23.2637 C   0  0  0  0  0  0
  -25.9186  -30.8531   21.3624 C   0  0  0  0  0  0
  -26.0022  -29.4869   20.7173 C   0  0  0  0  0  0
  -27.2042  -28.7488   20.7112 C   0  0  0  0  0  0
  -26.0839  -26.9723   19.4775 C   0  0  0  0  0  0
  -24.8802  -27.7015   19.4991 C   0  0  0  0  0  0
  -23.6057  -29.8224   20.1645 C   0  0  0  0  0  0
  -25.4123  -36.3109   24.0342 C   0  0  1  0  0  0
  -20.5889  -28.3635   23.1331 C   0  0  2  0  0  0
  -20.6778  -26.9376   22.5425 C   0  0  0  0  0  0
  -19.5750  -26.6376   21.5220 C   0  0  0  0  0  0
  -18.1939  -26.7920   22.1635 C   0  0  0  0  0  0
  -19.1545  -28.8831   23.2926 C   0  0  0  0  0  0
  -18.9469  -30.1444   23.8911 C   0  0  0  0  0  0
  -17.6462  -30.6573   24.0581 C   0  0  0  0  0  0
  -25.9034  -34.9472   23.5136 C   0  0  0  0  0  0
  -16.5360  -29.9071   23.6332 C   0  0  0  0  0  0
  -16.7289  -28.6502   23.0348 C   0  0  0  0  0  0
  -26.4476  -31.6574   25.0696 C   0  0  0  0  0  0
  -25.3763  -31.3652   26.1448 C   0  0  0  0  0  0
  -27.0278  -30.3014   24.6021 C   0  0  0  0  0  0
  -27.6055  -32.4268   25.7465 C   0  0  0  0  0  0
  -27.5592  -37.1807   24.8466 C   0  0  0  0  0  0
  -21.4141  -29.3011   22.3739 N   0  0  0  0  0  0
  -26.4301  -37.3793   23.9411 N   0  0  0  0  0  0
  -24.6583  -31.0862   22.1001 N   0  0  0  0  0  0
  -23.4219  -28.8185   23.3001 O   0  0  0  0  0  0
  -28.4160  -26.7780   19.9985 O   0  0  0  0  0  0
  -26.5582  -34.8899   22.4681 O   0  0  0  0  0  0
  -23.5290  -32.1421   23.7543 O   0  0  0  0  0  0
  -25.5471  -24.0476   24.3054 C   0  0  0  0  0  0
  -27.7656  -23.2023   23.8262 C   0  0  0  0  0  0
  -26.6746  -24.0212   23.4653 C   0  0  0  0  0  0
  -25.5063  -23.3084   25.5059 C   0  0  0  0  0  0
  -27.7225  -22.3880   24.9783 C   0  0  0  0  0  0
  -26.6166  -22.4924   25.8657 C   0  0  0  0  0  0
  -23.9356  -24.7970   26.8725 C   0  0  0  0  0  0
  -27.6917  -23.8121   28.1919 C   0  0  0  0  0  0
  -27.2642  -21.6563   29.4446 C   0  0  0  0  0  0
  -31.4004  -19.8215   24.9786 C   0  0  0  0  0  0
  -26.6243  -24.8495   22.1817 C   0  0  0  0  0  0
  -24.2162  -23.3870   26.3212 C   0  0  0  0  0  0
  -28.8820  -21.4103   25.2180 C   0  0  0  0  0  0
  -27.7914  -24.7056   21.1731 C   0  0  0  0  0  0
  -30.2637  -17.3029   22.9201 C   0  0  0  0  0  0
  -30.7063  -16.6196   21.6191 C   0  0  0  0  0  0
  -29.2400  -20.5822   23.9553 C   0  0  0  0  0  0
  -30.5763  -18.8071   22.8928 C   0  0  0  0  0  0
  -28.7248  -25.9339   21.1034 C   0  0  0  0  0  0
  -26.7738  -22.5782   28.3181 C   0  0  0  0  0  0
  -26.6686  -21.7983   27.0843 N   0  0  0  0  0  0
  -30.2657  -15.2285   21.5342 N   0  0  0  0  0  0
  -30.2048  -19.4690   24.1716 N   0  3  1  0  0  0
  -31.4553  -12.3272   19.1247 H   0  0  0  0  0  0
  -30.2580  -11.2432   19.7706 H   0  0  0  0  0  0
  -29.7319  -11.8754   17.3759 H   0  0  0  0  0  0
  -29.6880  -13.5556   17.8375 H   0  0  0  0  0  0
  -27.7814  -11.3598   18.7271 H   0  0  0  0  0  0
  -27.3810  -12.7567   17.7691 H   0  0  0  0  0  0
  -27.7221  -14.2704   19.6215 H   0  0  0  0  0  0
  -28.6552  -11.9042   21.3272 H   0  0  0  0  0  0
  -28.4560  -13.5366   21.8829 H   0  0  0  0  0  0
  -25.2768   -9.5751   22.4688 H   0  0  0  0  0  0
  -24.0056   -7.4671   22.7443 H   0  0  0  0  0  0
  -21.0836   -8.8755   19.8959 H   0  0  0  0  0  0
  -22.3677  -10.9647   19.6109 H   0  0  0  0  0  0
  -21.2005   -7.6140   23.9727 H   0  0  0  0  0  0
  -21.1499   -6.0493   25.9066 H   0  0  0  0  0  0
  -22.0581   -2.7604   23.2827 H   0  0  0  0  0  0
  -22.4113  -11.9963   22.4855 H   0  0  0  0  0  0
  -21.1080  -13.1239   22.2512 H   0  0  0  0  0  0
  -24.6474  -15.8351   20.5020 H   0  0  0  0  0  0
  -26.2845  -15.6429   20.1151 H   0  0  0  0  0  0
  -26.7094  -32.5598   23.1203 H   0  0  0  0  0  0
  -25.0061  -33.9800   25.0494 H   0  0  0  0  0  0
  -22.6825  -31.3048   21.4141 H   0  0  0  0  0  0
  -23.3740  -35.9654   23.3306 H   0  0  0  0  0  0
  -24.3596  -36.8891   22.2043 H   0  0  0  0  0  0
  -23.7248  -37.6523   23.6635 H   0  0  0  0  0  0
  -26.0223  -31.6258   20.5981 H   0  0  0  0  0  0
  -26.8088  -30.9050   21.9772 H   0  0  0  0  0  0
  -28.0973  -29.1521   21.1649 H   0  0  0  0  0  0
  -26.1131  -26.0181   18.9712 H   0  0  0  0  0  0
  -23.9995  -27.2952   19.0242 H   0  0  0  0  0  0
  -23.7039  -30.5943   19.3992 H   0  0  0  0  0  0
  -22.7360  -29.2285   19.8754 H   0  0  0  0  0  0
  -25.1301  -36.1989   25.0837 H   0  0  0  0  0  0
  -21.0001  -28.3188   24.1439 H   0  0  0  0  0  0
  -20.5686  -26.2229   23.3608 H   0  0  0  0  0  0
  -21.6653  -26.7418   22.1224 H   0  0  0  0  0  0
  -19.6894  -25.6302   21.1227 H   0  0  0  0  0  0
  -19.6679  -27.3204   20.6772 H   0  0  0  0  0  0
  -17.4217  -26.6701   21.4026 H   0  0  0  0  0  0
  -18.0321  -26.0048   22.9012 H   0  0  0  0  0  0
  -19.7947  -30.7279   24.2236 H   0  0  0  0  0  0
  -17.5023  -31.6243   24.5187 H   0  0  0  0  0  0
  -15.5362  -30.2970   23.7646 H   0  0  0  0  0  0
  -15.8702  -28.0830   22.7001 H   0  0  0  0  0  0
  -24.5949  -30.6990   25.7784 H   0  0  0  0  0  0
  -24.8953  -32.2791   26.4931 H   0  0  0  0  0  0
  -25.8138  -30.8805   27.0181 H   0  0  0  0  0  0
  -26.2787  -29.6781   24.1112 H   0  0  0  0  0  0
  -27.4089  -29.7242   25.4459 H   0  0  0  0  0  0
  -27.8619  -30.4329   23.9115 H   0  0  0  0  0  0
  -27.2695  -33.3550   26.2101 H   0  0  0  0  0  0
  -28.3855  -32.6832   25.0283 H   0  0  0  0  0  0
  -28.0737  -31.8340   26.5335 H   0  0  0  0  0  0
  -28.2614  -38.0104   24.7523 H   0  0  0  0  0  0
  -28.1078  -36.2623   24.6297 H   0  0  0  0  0  0
  -27.2300  -37.1474   25.8867 H   0  0  0  0  0  0
  -20.9269  -29.8752   21.7009 H   0  0  0  0  0  0
  -26.0181  -38.2870   24.1402 H   0  0  0  0  0  0
  -24.6940  -24.6508   24.0221 H   0  0  0  0  0  0
  -28.6476  -23.1601   23.2130 H   0  0  0  0  0  0
  -23.0018  -24.8205   27.4365 H   0  0  0  0  0  0
  -23.8432  -25.5312   26.0713 H   0  0  0  0  0  0
  -24.7380  -25.1277   27.5324 H   0  0  0  0  0  0
  -27.7785  -24.3320   29.1469 H   0  0  0  0  0  0
  -27.2984  -24.5383   27.4793 H   0  0  0  0  0  0
  -28.6991  -23.5423   27.8747 H   0  0  0  0  0  0
  -27.2813  -22.1812   30.3998 H   0  0  0  0  0  0
  -28.2752  -21.2914   29.2604 H   0  0  0  0  0  0
  -26.6132  -20.7888   29.5664 H   0  0  0  0  0  0
  -31.1296  -20.1171   25.9909 H   0  0  0  0  0  0
  -31.9678  -20.6346   24.5241 H   0  0  0  0  0  0
  -32.0627  -18.9598   25.0758 H   0  0  0  0  0  0
  -26.4816  -25.8968   22.4513 H   0  0  0  0  0  0
  -25.7082  -24.5615   21.6651 H   0  0  0  0  0  0
  -24.2059  -22.6534   27.1250 H   0  0  0  0  0  0
  -23.3960  -23.0890   25.6651 H   0  0  0  0  0  0
  -28.6526  -20.7155   26.0230 H   0  0  0  0  0  0
  -29.7445  -21.9880   25.5522 H   0  0  0  0  0  0
  -27.3629  -24.5490   20.1845 H   0  0  0  0  0  0
  -28.3680  -23.7969   21.3146 H   0  0  0  0  0  0
  -30.7599  -16.8273   23.7674 H   0  0  0  0  0  0
  -29.1901  -17.1698   23.0648 H   0  0  0  0  0  0
  -31.7930  -16.6844   21.5288 H   0  0  0  0  0  0
  -30.2954  -17.1559   20.7618 H   0  0  0  0  0  0
  -29.6435  -21.2340   23.1796 H   0  0  0  0  0  0
  -28.3256  -20.1489   23.5435 H   0  0  0  0  0  0
  -30.0376  -19.2506   22.0533 H   0  0  0  0  0  0
  -31.6322  -18.9707   22.6687 H   0  0  0  0  0  0
  -29.7450  -25.5866   20.9348 H   0  0  0  0  0  0
  -28.7463  -26.4918   22.0412 H   0  0  0  0  0  0
  -25.7803  -22.9282   28.5971 H   0  0  0  0  0  0
  -27.3428  -21.0441   27.0752 H   0  0  0  0  0  0
  -29.4497  -14.9448   22.0576 H   0  0  0  0  0  0
  -29.7117  -18.7714   24.7076 H   0  0  0  0  0  0
  1 25  1  0  0  0
  1 30  2  0  0  0
  1 92  1  0  0  0
  2  3  1  0  0  0
  2 25  1  0  0  0
  2 94  1  0  0  0
  2 95  1  0  0  0
  3  4  1  0  0  0
  3 96  1  0  0  0
  3 97  1  0  0  0
  4  5  1  0  0  0
  4 98  1  0  0  0
  4 99  1  0  0  0
  5  6  1  0  0  0
  5 26  1  0  0  0
  5100  1  0  0  0
  6 25  1  0  0  0
  6101  1  0  0  0
  6102  1  0  0  0
  7  8  2  0  0  0
  7 26  1  0  0  0
  7 29  1  0  0  0
  8  9  1  0  0  0
  8 22  1  0  0  0
  9 10  1  0  0  0
  9 27  2  0  0  0
 10 11  2  0  0  0
 10 15  1  0  0  0
 11 12  1  0  0  0
 11103  1  0  0  0
 12 13  2  0  0  0
 12104  1  0  0  0
 13 14  1  0  0  0
 13 31  1  0  0  0
 14 15  2  0  0  0
 14105  1  0  0  0
 15106  1  0  0  0
 16 17  2  0  0  0
 16 21  1  0  0  0
 16 31  1  0  0  0
 17 18  1  0  0  0
 17107  1  0  0  0
 18 19  2  0  0  0
 18108  1  0  0  0
 19 20  1  0  0  0
 19 24  1  0  0  0
 20 21  2  0  0  0
 20109  1  0  0  0
 21 23  1  0  0  0
 22 28  1  0  0  0
 22 32  2  0  0  0
 26 27  1  0  0  0
 28110  1  0  0  0
 28111  1  0  0  0
 29112  1  0  0  0
 29113  1  0  0  0
 33 34  1  0  0  0
 33 66  1  0  0  0
 33 70  2  0  0  0
 34 36  1  0  0  0
 34 59  1  0  0  0
 34114  1  0  0  0
 35 44  2  0  0  0
 35 45  1  0  0  0
 35 68  1  0  0  0
 36 56  1  0  0  0
 36115  1  0  0  0
 37 39  1  0  0  0
 37 47  1  0  0  0
 37 66  1  0  0  0
 37116  1  0  0  0
 38 43  2  0  0  0
 38 46  1  0  0  0
 38 47  1  0  0  0
 39 64  1  0  0  0
 39 67  2  0  0  0
 40 52  1  0  0  0
 40 53  2  0  0  0
 40 58  1  0  0  0
 41117  1  0  0  0
 41118  1  0  0  0
 41119  1  0  0  0
 41 48  1  0  0  0
 42 43  1  0  0  0
 42 66  1  0  0  0
 42120  1  0  0  0
 42121  1  0  0  0
 43 44  1  0  0  0
 44122  1  0  0  0
 45 46  2  0  0  0
 45123  1  0  0  0
 46124  1  0  0  0
 47125  1  0  0  0
 47126  1  0  0  0
 48 56  1  0  0  0
 48 65  1  0  0  0
 48127  1  0  0  0
 49 50  1  0  0  0
 49 53  1  0  0  0
 49 64  1  0  0  0
 49128  1  0  0  0
 50 51  1  0  0  0
 50129  1  0  0  0
 50130  1  0  0  0
 51 52  1  0  0  0
 51131  1  0  0  0
 51132  1  0  0  0
 52133  1  0  0  0
 52134  1  0  0  0
 53 54  1  0  0  0
 54 55  2  0  0  0
 54135  1  0  0  0
 55 57  1  0  0  0
 55136  1  0  0  0
 56 69  2  0  0  0
 57 58  2  0  0  0
 57137  1  0  0  0
 58138  1  0  0  0
 59 60  1  0  0  0
 59 61  1  0  0  0
 59 62  1  0  0  0
 60139  1  0  0  0
 60140  1  0  0  0
 60141  1  0  0  0
 61142  1  0  0  0
 61143  1  0  0  0
 61144  1  0  0  0
 62145  1  0  0  0
 62146  1  0  0  0
 62147  1  0  0  0
 63 65  1  0  0  0
 63148  1  0  0  0
 63149  1  0  0  0
 63150  1  0  0  0
 64151  1  0  0  0
 65152  1  0  0  0
 68 89  1  0  0  0
 71 73  2  0  0  0
 71 74  1  0  0  0
 71153  1  0  0  0
 72 73  1  0  0  0
 72 75  2  0  0  0
 72154  1  0  0  0
 73 81  1  0  0  0
 74 76  2  0  0  0
 74 82  1  0  0  0
 75 76  1  0  0  0
 75 83  1  0  0  0
 76 91  1  0  0  0
 77 82  1  0  0  0
 77155  1  0  0  0
 77156  1  0  0  0
 77157  1  0  0  0
 78158  1  0  0  0
 78159  1  0  0  0
 78160  1  0  0  0
 78 90  1  0  0  0
 79 90  1  0  0  0
 79161  1  0  0  0
 79162  1  0  0  0
 79163  1  0  0  0
 80164  1  0  0  0
 80165  1  0  0  0
 80166  1  0  0  0
 80 93  1  0  0  0
 81 84  1  0  0  0
 81167  1  0  0  0
 81168  1  0  0  0
 82169  1  0  0  0
 82170  1  0  0  0
 83 87  1  0  0  0
 83171  1  0  0  0
 83172  1  0  0  0
 84 89  1  0  0  0
 84173  1  0  0  0
 84174  1  0  0  0
 85 86  1  0  0  0
 85 88  1  0  0  0
 85175  1  0  0  0
 85176  1  0  0  0
 86 92  1  0  0  0
 86177  1  0  0  0
 86178  1  0  0  0
 87 93  1  0  0  0
 87179  1  0  0  0
 87180  1  0  0  0
 88 93  1  0  0  0
 88181  1  0  0  0
 88182  1  0  0  0
 89183  1  0  0  0
 89184  1  0  0  0
 90 91  1  0  0  0
 90185  1  0  0  0
 91186  1  0  0  0
 92187  1  0  0  0
 93188  1  0  0  0
M  CHG  1  93   1
M  ISO  4   1 100  68 101  89 101  92 100
M  END
> <chiral flag>
0

> <version>
0

> <s_m_source_file>
/data/baiqing/PycharmProjects/Reinvent-master-3.2/result/LINK_invent/BTK/process_docking_weight1_custom_sum_contain_oxygen_bond_distance_aromatic_linkinvent_7_9_3/rearranged_h_0099.sdf

> <i_m_source_file_index>
38

> <r_mmod_Potential_Energy-OPLS-2005>
-195.729049682617

> <r_mmod_Stretch_Energy-OPLS-2005>
36.8246154785156

> <r_mmod_Bend_Energy-OPLS-2005>
111.221740722656

> <r_mmod_Torsional_Energy-OPLS-2005>
267.413665771484

> <r_mmod_Improper_Torsional_Energy-OPLS-2005>
7.29872226715088

> <r_mmod_Van_der_Waal_Energy-OPLS-2005>
162.822998046875

> <r_mmod_Electrostatic_Energy-OPLS-2005>
-321.455322265625

> <r_mmod_Solvation_Energy-OPLS-2005>
-466.242889404297

> <b_mmod_Minimization_Converged-OPLS-2005>
0

> <r_mmod_RMS_Derivative-OPLS-2005>
4.57457828521729

$$$$
38
                    3D
 Structure written by MMmdl.
172180  0  0  1  0            999 V2000
  -30.6360  -14.8278   20.4182 C   0  0  0  0  0  0
  -30.4190  -12.5093   19.4958 C   0  0  0  0  0  0
  -29.5262  -12.4745   18.2279 C   0  0  0  0  0  0
  -28.0330  -12.7692   18.5109 C   0  0  0  0  0  0
  -27.7124  -12.7623   20.0089 C   0  0  2  0  0  0
  -28.6875  -13.3662   21.0171 C   0  0  0  0  0  0
  -25.3082  -13.7485   20.5653 C   0  0  0  0  0  0
  -24.1823  -13.0352   20.9083 C   0  0  0  0  0  0
  -24.5714  -11.6654   20.8816 C   0  0  0  0  0  0
  -23.8393  -10.4215   21.0561 C   0  0  0  0  0  0
  -24.3147   -9.4173   21.9273 C   0  0  0  0  0  0
  -23.6016   -8.2127   22.0751 C   0  0  0  0  0  0
  -22.4035   -8.0123   21.3525 C   0  0  0  0  0  0
  -21.9539   -9.0057   20.4644 C   0  0  0  0  0  0
  -22.6684  -10.2023   20.3127 C   0  0  0  0  0  0
  -21.6784   -6.0596   22.5257 C   0  0  0  0  0  0
  -21.3973   -6.5551   23.8179 C   0  0  0  0  0  0
  -21.3643   -5.6734   24.9164 C   0  0  0  0  0  0
  -21.6046   -4.3002   24.7238 C   0  0  0  0  0  0
  -21.8838   -3.8059   23.4371 C   0  0  0  0  0  0
  -21.9172   -4.6839   22.3405 C   0  0  0  0  0  0
  -22.7976  -13.5535   21.1737 C   0  0  0  0  0  0
  -22.1670   -4.2031   21.0989 F   0  0  0  0  0  0
  -21.5618   -3.4505   25.7762 F   0  0  0  0  0  0
  -29.9769  -13.6252   20.3686 N   0  0  0  0  0  0
  -26.3047  -12.7848   20.3753 N   0  0  0  0  0  0
  -25.8372  -11.5483   20.5900 N   0  0  0  0  0  0
  -22.0461  -12.8678   22.0284 N   0  0  0  0  0  0
  -25.5440  -15.1103   20.4131 N   0  0  0  0  0  0
  -31.8314  -14.8867   20.1287 O   0  0  0  0  0  0
  -21.6535   -6.8673   21.4193 O   0  0  0  0  0  0
  -22.3856  -14.5892   20.6536 O   0  0  0  0  0  0
  -24.6306  -31.8550   23.1960 C   0  0  0  0  0  0
  -25.9152  -32.4746   23.8280 C   0  0  1  0  0  0
  -27.2285  -27.2719   20.1328 C   0  0  0  0  0  0
  -25.5960  -33.8541   24.2219 N   0  0  0  0  0  0
  -23.4254  -30.4770   21.5390 C   0  0  2  0  0  0
  -24.8755  -28.9258   20.1120 C   0  0  0  0  0  0
  -22.7486  -29.4596   22.4902 C   0  0  0  0  0  0
  -18.0288  -28.1386   22.8477 C   0  0  0  0  0  0
  -24.1498  -36.7286   23.2625 C   0  0  0  0  0  0
  -25.9708  -30.7706   21.3767 C   0  0  0  0  0  0
  -26.0471  -29.3943   20.7206 C   0  0  0  0  0  0
  -27.2258  -28.5815   20.7192 C   0  0  0  0  0  0
  -26.0321  -26.8742   19.4892 C   0  0  0  0  0  0
  -24.8742  -27.6726   19.4840 C   0  0  0  0  0  0
  -23.6457  -29.8103   20.1555 C   0  0  0  0  0  0
  -25.4121  -36.3063   24.0311 C   0  0  1  0  0  0
  -20.5887  -28.3684   23.1275 C   0  0  2  0  0  0
  -20.6784  -26.9414   22.5395 C   0  0  0  0  0  0
  -19.5768  -26.6378   21.5197 C   0  0  0  0  0  0
  -18.1946  -26.7926   22.1614 C   0  0  0  0  0  0
  -19.1543  -28.8856   23.2866 C   0  0  0  0  0  0
  -18.9464  -30.1457   23.8881 C   0  0  0  0  0  0
  -17.6464  -30.6585   24.0568 C   0  0  0  0  0  0
  -25.9058  -34.9435   23.5061 C   0  0  0  0  0  0
  -16.5351  -29.9078   23.6350 C   0  0  0  0  0  0
  -16.7274  -28.6506   23.0353 C   0  0  0  0  0  0
  -26.4517  -31.6566   25.0663 C   0  0  0  0  0  0
  -25.3735  -31.3724   26.1372 C   0  0  0  0  0  0
  -27.0353  -30.2974   24.6159 C   0  0  0  0  0  0
  -27.6077  -32.4286   25.7454 C   0  0  0  0  0  0
  -27.5576  -37.1801   24.8454 C   0  0  0  0  0  0
  -21.4196  -29.3028   22.3661 N   0  0  0  0  0  0
  -26.4290  -37.3760   23.9402 N   0  0  0  0  0  0
  -24.6939  -31.0519   22.0932 N   0  0  0  0  0  0
  -23.4200  -28.8148   23.3008 O   0  0  0  0  0  0
  -28.3294  -26.3847   20.1887 O   0  0  0  0  0  0
  -26.5607  -34.8926   22.4615 O   0  0  0  0  0  0
  -23.5462  -32.1362   23.7277 O   0  0  0  0  0  0
  -28.8703  -20.3494   18.4367 C   0  0  0  0  0  0
  -28.4732  -19.3219   17.6538 C   0  0  0  0  0  0
  -28.7669  -18.1100   18.3687 C   0  0  0  0  0  0
  -29.4369  -18.4413   19.5475 C   0  0  0  0  0  0
  -28.7833  -20.2727   15.3434 C   0  0  0  0  0  0
  -26.4989  -20.3107   16.4540 C   0  0  0  0  0  0
  -29.1630  -16.3009   16.6065 C   0  0  0  0  0  0
  -26.8492  -16.5983   17.6919 C   0  0  0  0  0  0
  -30.1809  -17.4669   20.5498 C   0  0  0  0  0  0
  -28.7253  -22.2637   20.7090 C   0  0  0  0  0  0
  -29.1999  -23.7794   20.3985 C   0  0  0  0  0  0
  -29.6977  -20.9545   20.6545 C   0  0  0  0  0  0
  -28.0557  -24.9087   20.2371 C   0  0  0  0  0  0
  -27.8236  -19.5453   16.2986 C   0  0  0  0  0  0
  -28.3747  -16.7268   17.8553 C   0  0  0  0  0  0
  -29.3440  -19.8910   19.6421 N   0  0  0  0  0  0
  -29.8685  -15.9695   20.5965 N   0  0  0  0  0  0
  -31.4673  -12.5938   19.2083 H   0  0  0  0  0  0
  -30.3435  -11.5717   20.0488 H   0  0  0  0  0  0
  -29.6227  -11.4936   17.7616 H   0  0  0  0  0  0
  -29.8997  -13.1905   17.4946 H   0  0  0  0  0  0
  -27.4052  -12.0536   17.9802 H   0  0  0  0  0  0
  -27.7727  -13.7477   18.1124 H   0  0  0  0  0  0
  -28.0064  -11.7221   20.1747 H   0  0  0  0  0  0
  -28.8428  -12.6969   21.8645 H   0  0  0  0  0  0
  -28.2436  -14.2688   21.4380 H   0  0  0  0  0  0
  -25.2271   -9.5741   22.4847 H   0  0  0  0  0  0
  -23.9798   -7.4499   22.7399 H   0  0  0  0  0  0
  -21.0502   -8.8460   19.8919 H   0  0  0  0  0  0
  -22.3096  -10.9556   19.6246 H   0  0  0  0  0  0
  -21.2007   -7.6069   23.9671 H   0  0  0  0  0  0
  -21.1450   -6.0463   25.9061 H   0  0  0  0  0  0
  -22.0665   -2.7526   23.2902 H   0  0  0  0  0  0
  -22.3894  -12.0263   22.4677 H   0  0  0  0  0  0
  -21.1135  -13.1876   22.2499 H   0  0  0  0  0  0
  -24.8100  -15.8042   20.5172 H   0  0  0  0  0  0
  -26.4194  -15.4965   20.0856 H   0  0  0  0  0  0
  -26.7206  -32.5418   23.1008 H   0  0  0  0  0  0
  -25.0198  -33.9667   25.0426 H   0  0  0  0  0  0
  -22.7207  -31.2974   21.3925 H   0  0  0  0  0  0
  -23.3754  -35.9621   23.3274 H   0  0  0  0  0  0
  -24.3586  -36.8923   22.2041 H   0  0  0  0  0  0
  -23.7259  -37.6491   23.6650 H   0  0  0  0  0  0
  -26.1047  -31.5338   20.6081 H   0  0  0  0  0  0
  -26.8477  -30.8178   22.0093 H   0  0  0  0  0  0
  -28.1173  -28.9371   21.2181 H   0  0  0  0  0  0
  -25.9579  -25.9253   18.9833 H   0  0  0  0  0  0
  -23.9821  -27.3068   18.9921 H   0  0  0  0  0  0
  -23.7718  -30.5846   19.3980 H   0  0  0  0  0  0
  -22.7658  -29.2410   19.8509 H   0  0  0  0  0  0
  -25.1315  -36.1883   25.0798 H   0  0  0  0  0  0
  -20.9968  -28.3257   24.1399 H   0  0  0  0  0  0
  -20.5695  -26.2289   23.3585 H   0  0  0  0  0  0
  -21.6659  -26.7450   22.1203 H   0  0  0  0  0  0
  -19.6933  -25.6280   21.1245 H   0  0  0  0  0  0
  -19.6729  -27.3181   20.6726 H   0  0  0  0  0  0
  -17.4218  -26.6661   21.4015 H   0  0  0  0  0  0
  -18.0375  -26.0060   22.9016 H   0  0  0  0  0  0
  -19.7937  -30.7286   24.2234 H   0  0  0  0  0  0
  -17.5015  -31.6271   24.5154 H   0  0  0  0  0  0
  -15.5352  -30.2976   23.7671 H   0  0  0  0  0  0
  -15.8682  -28.0821   22.7059 H   0  0  0  0  0  0
  -24.5928  -30.7051   25.7678 H   0  0  0  0  0  0
  -24.8912  -32.2907   26.4739 H   0  0  0  0  0  0
  -25.8053  -30.8932   27.0171 H   0  0  0  0  0  0
  -26.2925  -29.6703   24.1210 H   0  0  0  0  0  0
  -27.4040  -29.7247   25.4680 H   0  0  0  0  0  0
  -27.8805  -30.4212   23.9383 H   0  0  0  0  0  0
  -27.2688  -33.3584   26.2029 H   0  0  0  0  0  0
  -28.3920  -32.6832   25.0307 H   0  0  0  0  0  0
  -28.0707  -31.8399   26.5385 H   0  0  0  0  0  0
  -28.2594  -38.0101   24.7519 H   0  0  0  0  0  0
  -28.1088  -36.2639   24.6277 H   0  0  0  0  0  0
  -27.2299  -37.1442   25.8858 H   0  0  0  0  0  0
  -20.9353  -29.8754   21.6888 H   0  0  0  0  0  0
  -26.0171  -38.2829   24.1402 H   0  0  0  0  0  0
  -28.8053  -21.4095   18.2331 H   0  0  0  0  0  0
  -29.7105  -19.7123   15.2235 H   0  0  0  0  0  0
  -29.0414  -21.2690   15.7033 H   0  0  0  0  0  0
  -28.3374  -20.3845   14.3553 H   0  0  0  0  0  0
  -25.8118  -19.7789   17.1128 H   0  0  0  0  0  0
  -25.9960  -20.4360   15.4945 H   0  0  0  0  0  0
  -26.6553  -21.3032   16.8788 H   0  0  0  0  0  0
  -30.2341  -16.2949   16.8077 H   0  0  0  0  0  0
  -29.0003  -16.9545   15.7530 H   0  0  0  0  0  0
  -28.8831  -15.2918   16.3007 H   0  0  0  0  0  0
  -26.3425  -16.9251   18.5993 H   0  0  0  0  0  0
  -26.5534  -15.5686   17.4986 H   0  0  0  0  0  0
  -26.4363  -17.1955   16.8862 H   0  0  0  0  0  0
  -30.0251  -17.8387   21.5632 H   0  0  0  0  0  0
  -31.2548  -17.5700   20.3797 H   0  0  0  0  0  0
  -27.8257  -22.0650   20.1268 H   0  0  0  0  0  0
  -28.3415  -22.2956   21.7293 H   0  0  0  0  0  0
  -29.7976  -23.7755   19.4882 H   0  0  0  0  0  0
  -29.8882  -24.0831   21.1900 H   0  0  0  0  0  0
  -29.6984  -20.4765   21.6352 H   0  0  0  0  0  0
  -30.7254  -21.2718   20.4779 H   0  0  0  0  0  0
  -27.3353  -24.7516   21.0406 H   0  0  0  0  0  0
  -27.5390  -24.6309   19.3186 H   0  0  0  0  0  0
  -27.5960  -18.5908   15.8348 H   0  0  0  0  0  0
  -28.6085  -15.9813   18.5988 H   0  0  0  0  0  0
  -28.9013  -15.7720   20.7971 H   0  0  0  0  0  0
  1 25  1  0  0  0
  1 30  2  0  0  0
  1 87  1  0  0  0
  2  3  1  0  0  0
  2 25  1  0  0  0
  2 88  1  0  0  0
  2 89  1  0  0  0
  3  4  1  0  0  0
  3 90  1  0  0  0
  3 91  1  0  0  0
  4  5  1  0  0  0
  4 92  1  0  0  0
  4 93  1  0  0  0
  5  6  1  0  0  0
  5 26  1  0  0  0
  5 94  1  0  0  0
  6 25  1  0  0  0
  6 95  1  0  0  0
  6 96  1  0  0  0
  7  8  2  0  0  0
  7 26  1  0  0  0
  7 29  1  0  0  0
  8  9  1  0  0  0
  8 22  1  0  0  0
  9 10  1  0  0  0
  9 27  2  0  0  0
 10 11  2  0  0  0
 10 15  1  0  0  0
 11 12  1  0  0  0
 11 97  1  0  0  0
 12 13  2  0  0  0
 12 98  1  0  0  0
 13 14  1  0  0  0
 13 31  1  0  0  0
 14 15  2  0  0  0
 14 99  1  0  0  0
 15100  1  0  0  0
 16 17  2  0  0  0
 16 21  1  0  0  0
 16 31  1  0  0  0
 17 18  1  0  0  0
 17101  1  0  0  0
 18 19  2  0  0  0
 18102  1  0  0  0
 19 20  1  0  0  0
 19 24  1  0  0  0
 20 21  2  0  0  0
 20103  1  0  0  0
 21 23  1  0  0  0
 22 28  1  0  0  0
 22 32  2  0  0  0
 26 27  1  0  0  0
 28104  1  0  0  0
 28105  1  0  0  0
 29106  1  0  0  0
 29107  1  0  0  0
 33 34  1  0  0  0
 33 66  1  0  0  0
 33 70  2  0  0  0
 34 36  1  0  0  0
 34 59  1  0  0  0
 34108  1  0  0  0
 35 44  2  0  0  0
 35 45  1  0  0  0
 35 68  1  0  0  0
 36 56  1  0  0  0
 36109  1  0  0  0
 37 39  1  0  0  0
 37 47  1  0  0  0
 37 66  1  0  0  0
 37110  1  0  0  0
 38 43  2  0  0  0
 38 46  1  0  0  0
 38 47  1  0  0  0
 39 64  1  0  0  0
 39 67  2  0  0  0
 40 52  1  0  0  0
 40 53  2  0  0  0
 40 58  1  0  0  0
 41111  1  0  0  0
 41112  1  0  0  0
 41113  1  0  0  0
 41 48  1  0  0  0
 42 43  1  0  0  0
 42 66  1  0  0  0
 42114  1  0  0  0
 42115  1  0  0  0
 43 44  1  0  0  0
 44116  1  0  0  0
 45 46  2  0  0  0
 45117  1  0  0  0
 46118  1  0  0  0
 47119  1  0  0  0
 47120  1  0  0  0
 48 56  1  0  0  0
 48 65  1  0  0  0
 48121  1  0  0  0
 49 50  1  0  0  0
 49 53  1  0  0  0
 49 64  1  0  0  0
 49122  1  0  0  0
 50 51  1  0  0  0
 50123  1  0  0  0
 50124  1  0  0  0
 51 52  1  0  0  0
 51125  1  0  0  0
 51126  1  0  0  0
 52127  1  0  0  0
 52128  1  0  0  0
 53 54  1  0  0  0
 54 55  2  0  0  0
 54129  1  0  0  0
 55 57  1  0  0  0
 55130  1  0  0  0
 56 69  2  0  0  0
 57 58  2  0  0  0
 57131  1  0  0  0
 58132  1  0  0  0
 59 60  1  0  0  0
 59 61  1  0  0  0
 59 62  1  0  0  0
 60133  1  0  0  0
 60134  1  0  0  0
 60135  1  0  0  0
 61136  1  0  0  0
 61137  1  0  0  0
 61138  1  0  0  0
 62139  1  0  0  0
 62140  1  0  0  0
 62141  1  0  0  0
 63 65  1  0  0  0
 63142  1  0  0  0
 63143  1  0  0  0
 63144  1  0  0  0
 64145  1  0  0  0
 65146  1  0  0  0
 68 83  1  0  0  0
 71 72  2  0  0  0
 71 86  1  0  0  0
 71147  1  0  0  0
 72 73  1  0  0  0
 72 84  1  0  0  0
 73 74  2  0  0  0
 73 85  1  0  0  0
 74 79  1  0  0  0
 74 86  1  0  0  0
 75148  1  0  0  0
 75149  1  0  0  0
 75150  1  0  0  0
 75 84  1  0  0  0
 76 84  1  0  0  0
 76151  1  0  0  0
 76152  1  0  0  0
 76153  1  0  0  0
 77154  1  0  0  0
 77155  1  0  0  0
 77156  1  0  0  0
 77 85  1  0  0  0
 78 85  1  0  0  0
 78157  1  0  0  0
 78158  1  0  0  0
 78159  1  0  0  0
 79 87  1  0  0  0
 79160  1  0  0  0
 79161  1  0  0  0
 80 81  1  0  0  0
 80 82  1  0  0  0
 80162  1  0  0  0
 80163  1  0  0  0
 81 83  1  0  0  0
 81164  1  0  0  0
 81165  1  0  0  0
 82 86  1  0  0  0
 82166  1  0  0  0
 82167  1  0  0  0
 83168  1  0  0  0
 83169  1  0  0  0
 84170  1  0  0  0
 85171  1  0  0  0
 87172  1  0  0  0
M  ISO  4   1 100  68 101  83 101  87 100
M  END
> <chiral flag>
0

> <version>
0

> <s_m_source_file>
/data/baiqing/PycharmProjects/Reinvent-master-3.2/result/LINK_invent/BTK/process_docking_weight1_custom_sum_contain_oxygen_bond_distance_aromatic_linkinvent_7_9_3/rearranged_h_0099.sdf

> <i_m_source_file_index>
39

> <r_mmod_Potential_Energy-OPLS-2005>
251.735641479492

> <r_mmod_Stretch_Energy-OPLS-2005>
128.337539672852

> <r_mmod_Bend_Energy-OPLS-2005>
237.858856201172

> <r_mmod_Torsional_Energy-OPLS-2005>
260.726501464844

> <r_mmod_Improper_Torsional_Energy-OPLS-2005>
4.12284469604492

> <r_mmod_Van_der_Waal_Energy-OPLS-2005>
126.027778625488

> <r_mmod_Electrostatic_Energy-OPLS-2005>
-467.034973144531

> <r_mmod_Solvation_Energy-OPLS-2005>
-201.694061279297

> <b_mmod_Minimization_Converged-OPLS-2005>
0

> <r_mmod_RMS_Derivative-OPLS-2005>
3.48281931877136

$$$$
39
                    3D
 Structure written by MMmdl.
165173  0  0  1  0            999 V2000
  -30.4954  -15.0169   20.4041 C   0  0  0  0  0  0
  -30.4513  -12.6393   19.4764 C   0  0  0  0  0  0
  -29.5208  -12.5294   18.2453 C   0  0  0  0  0  0
  -28.0573  -12.3026   18.6752 C   0  0  0  0  0  0
  -27.6246  -13.2469   19.8270 C   0  0  2  0  0  0
  -28.6744  -13.3005   20.9543 C   0  0  0  0  0  0
  -25.2461  -13.8209   20.5727 C   0  0  0  0  0  0
  -24.1777  -13.0434   20.9243 C   0  0  0  0  0  0
  -24.6395  -11.6921   20.8761 C   0  0  0  0  0  0
  -23.9081  -10.4290   21.0415 C   0  0  0  0  0  0
  -24.3629   -9.4203   21.9190 C   0  0  0  0  0  0
  -23.6300   -8.2241   22.0755 C   0  0  0  0  0  0
  -22.4282   -8.0281   21.3544 C   0  0  0  0  0  0
  -21.9924   -9.0257   20.4645 C   0  0  0  0  0  0
  -22.7256  -10.2135   20.3059 C   0  0  0  0  0  0
  -21.6854   -6.0737   22.5279 C   0  0  0  0  0  0
  -21.4012   -6.5638   23.8211 C   0  0  0  0  0  0
  -21.3658   -5.6792   24.9171 C   0  0  0  0  0  0
  -21.6048   -4.3058   24.7223 C   0  0  0  0  0  0
  -21.8818   -3.8148   23.4344 C   0  0  0  0  0  0
  -21.9192   -4.6965   22.3402 C   0  0  0  0  0  0
  -22.7795  -13.5205   21.1897 C   0  0  0  0  0  0
  -22.1662   -4.2152   21.0981 F   0  0  0  0  0  0
  -21.5630   -3.4540   25.7735 F   0  0  0  0  0  0
  -29.9314  -13.7407   20.3335 N   0  0  0  0  0  0
  -26.2874  -12.9433   20.3226 N   0  0  0  0  0  0
  -25.9324  -11.6566   20.5733 N   0  0  0  0  0  0
  -22.0450  -12.8182   22.0449 N   0  0  0  0  0  0
  -25.4104  -15.1940   20.4161 N   0  0  0  0  0  0
  -31.7211  -15.0977   20.2677 O   0  0  0  0  0  0
  -21.6642   -6.8881   21.4243 O   0  0  0  0  0  0
  -22.3478  -14.5511   20.6746 O   0  0  0  0  0  0
  -24.6475  -31.8404   23.1843 C   0  0  0  0  0  0
  -25.9227  -32.4681   23.8258 C   0  0  1  0  0  0
  -27.2216  -27.0943   20.1664 C   0  0  0  0  0  0
  -25.5956  -33.8489   24.2172 N   0  0  0  0  0  0
  -23.4540  -30.4565   21.5318 C   0  0  2  0  0  0
  -24.9027  -28.8667   20.1214 C   0  0  0  0  0  0
  -22.7583  -29.4523   22.4861 C   0  0  0  0  0  0
  -18.0305  -28.1400   22.8470 C   0  0  0  0  0  0
  -24.1483  -36.7242   23.2647 C   0  0  0  0  0  0
  -26.0120  -30.7003   21.3884 C   0  0  0  0  0  0
  -26.0830  -29.3042   20.7367 C   0  0  0  0  0  0
  -27.2446  -28.4373   20.7345 C   0  0  0  0  0  0
  -26.0135  -26.7612   19.5215 C   0  0  0  0  0  0
  -24.8818  -27.6080   19.4995 C   0  0  0  0  0  0
  -23.6833  -29.7773   20.1557 C   0  0  0  0  0  0
  -25.4120  -36.3024   24.0314 C   0  0  1  0  0  0
  -20.5920  -28.3726   23.1230 C   0  0  2  0  0  0
  -20.6787  -26.9425   22.5406 C   0  0  0  0  0  0
  -19.5763  -26.6377   21.5218 C   0  0  0  0  0  0
  -18.1939  -26.7935   22.1620 C   0  0  0  0  0  0
  -19.1563  -28.8880   23.2835 C   0  0  0  0  0  0
  -18.9481  -30.1474   23.8866 C   0  0  0  0  0  0
  -17.6479  -30.6595   24.0558 C   0  0  0  0  0  0
  -25.9077  -34.9403   23.5053 C   0  0  0  0  0  0
  -16.5368  -29.9085   23.6349 C   0  0  0  0  0  0
  -16.7288  -28.6505   23.0364 C   0  0  0  0  0  0
  -26.4528  -31.6571   25.0724 C   0  0  0  0  0  0
  -25.3683  -31.3774   26.1399 C   0  0  0  0  0  0
  -27.0412  -30.2968   24.6338 C   0  0  0  0  0  0
  -27.6046  -32.4356   25.7509 C   0  0  0  0  0  0
  -27.5564  -37.1772   24.8465 C   0  0  0  0  0  0
  -21.4270  -29.3044   22.3594 N   0  0  0  0  0  0
  -26.4276  -37.3747   23.9412 N   0  0  0  0  0  0
  -24.7250  -31.0211   22.0901 N   0  0  0  0  0  0
  -23.4194  -28.8083   23.3045 O   0  0  0  0  0  0
  -28.2985  -26.1242   20.1148 O   0  0  0  0  0  0
  -26.5670  -34.8907   22.4636 O   0  0  0  0  0  0
  -23.5576  -32.1312   23.7028 O   0  0  0  0  0  0
  -27.3361  -22.9408   19.1562 C   0  0  0  0  0  0
  -29.1090  -21.9423   20.4598 C   0  0  0  0  0  0
  -28.3393  -23.1832   20.1056 C   0  0  0  0  0  0
  -27.0870  -21.6596   18.6052 C   0  0  0  0  0  0
  -28.9073  -20.5573   19.9142 C   0  0  0  0  0  0
  -27.8478  -20.4977   18.9582 C   0  0  0  0  0  0
  -25.9434  -21.5717   17.6020 C   0  0  0  0  0  0
  -28.2842  -19.0168   16.9132 C   0  0  0  0  0  0
  -27.5793  -23.5861   23.0156 C   0  0  0  0  0  0
  -29.8645  -19.1833   20.0815 C   0  0  0  0  0  0
  -27.5390  -19.1733   18.2511 C   0  0  0  0  0  0
  -27.4320  -24.7606   22.0343 C   0  0  0  0  0  0
  -29.5899  -17.7008   20.8805 C   0  0  0  0  0  0
  -28.3639  -24.7048   20.8011 C   0  0  2  0  0  0
  -29.6459  -16.1714   20.3921 N   0  0  0  0  0  0
  -31.4739  -12.8372   19.1510 H   0  0  0  0  0  0
  -30.4850  -11.6997   20.0299 H   0  0  0  0  0  0
  -29.8494  -11.7187   17.5940 H   0  0  0  0  0  0
  -29.5881  -13.4437   17.6535 H   0  0  0  0  0  0
  -27.9678  -11.2651   18.9997 H   0  0  0  0  0  0
  -27.3881  -12.4132   17.8209 H   0  0  0  0  0  0
  -27.5745  -14.2404   19.3821 H   0  0  0  0  0  0
  -28.7875  -12.3295   21.4390 H   0  0  0  0  0  0
  -28.3674  -14.0028   21.7316 H   0  0  0  0  0  0
  -25.2773   -9.5677   22.4766 H   0  0  0  0  0  0
  -24.0008   -7.4629   22.7470 H   0  0  0  0  0  0
  -21.0857   -8.8780   19.8945 H   0  0  0  0  0  0
  -22.3719  -10.9678   19.6168 H   0  0  0  0  0  0
  -21.2004   -7.6145   23.9716 H   0  0  0  0  0  0
  -21.1481   -6.0520   25.9074 H   0  0  0  0  0  0
  -22.0600   -2.7610   23.2843 H   0  0  0  0  0  0
  -22.4078  -11.9843   22.4825 H   0  0  0  0  0  0
  -21.1065  -13.1189   22.2663 H   0  0  0  0  0  0
  -24.6396  -15.8415   20.5362 H   0  0  0  0  0  0
  -26.2484  -15.6416   20.0727 H   0  0  0  0  0  0
  -26.7289  -32.5271   23.0980 H   0  0  0  0  0  0
  -25.0096  -33.9608   25.0315 H   0  0  0  0  0  0
  -22.7600  -31.2838   21.3698 H   0  0  0  0  0  0
  -23.3756  -35.9559   23.3305 H   0  0  0  0  0  0
  -24.3564  -36.8896   22.2063 H   0  0  0  0  0  0
  -23.7230  -37.6428   23.6698 H   0  0  0  0  0  0
  -26.1726  -31.4483   20.6105 H   0  0  0  0  0  0
  -26.8812  -30.7532   22.0326 H   0  0  0  0  0  0
  -28.1534  -28.7777   21.2116 H   0  0  0  0  0  0
  -25.9327  -25.8028   19.0327 H   0  0  0  0  0  0
  -23.9831  -27.2678   19.0047 H   0  0  0  0  0  0
  -23.8274  -30.5486   19.3981 H   0  0  0  0  0  0
  -22.7959  -29.2236   19.8438 H   0  0  0  0  0  0
  -25.1307  -36.1845   25.0804 H   0  0  0  0  0  0
  -21.0008  -28.3317   24.1350 H   0  0  0  0  0  0
  -20.5698  -26.2330   23.3627 H   0  0  0  0  0  0
  -21.6649  -26.7440   22.1189 H   0  0  0  0  0  0
  -19.6936  -25.6282   21.1264 H   0  0  0  0  0  0
  -19.6709  -27.3168   20.6735 H   0  0  0  0  0  0
  -17.4212  -26.6690   21.4014 H   0  0  0  0  0  0
  -18.0323  -26.0083   22.9025 H   0  0  0  0  0  0
  -19.7959  -30.7292   24.2218 H   0  0  0  0  0  0
  -17.5038  -31.6276   24.5153 H   0  0  0  0  0  0
  -15.5367  -30.2979   23.7692 H   0  0  0  0  0  0
  -15.8687  -28.0814   22.7106 H   0  0  0  0  0  0
  -24.5869  -30.7129   25.7701 H   0  0  0  0  0  0
  -24.8861  -32.2954   26.4764 H   0  0  0  0  0  0
  -25.7927  -30.8977   27.0227 H   0  0  0  0  0  0
  -26.3052  -29.6667   24.1334 H   0  0  0  0  0  0
  -27.4006  -29.7298   25.4937 H   0  0  0  0  0  0
  -27.8954  -30.4217   23.9682 H   0  0  0  0  0  0
  -27.2642  -33.3691   26.2003 H   0  0  0  0  0  0
  -28.3879  -32.6881   25.0349 H   0  0  0  0  0  0
  -28.0680  -31.8547   26.5494 H   0  0  0  0  0  0
  -28.2567  -38.0082   24.7518 H   0  0  0  0  0  0
  -28.1072  -36.2609   24.6276 H   0  0  0  0  0  0
  -27.2279  -37.1396   25.8869 H   0  0  0  0  0  0
  -20.9492  -29.8748   21.6758 H   0  0  0  0  0  0
  -26.0136  -38.2806   24.1442 H   0  0  0  0  0  0
  -26.7093  -23.7700   18.8655 H   0  0  0  0  0  0
  -29.8979  -22.0645   21.1892 H   0  0  0  0  0  0
  -25.5193  -22.5521   17.3828 H   0  0  0  0  0  0
  -25.1354  -20.9531   17.9919 H   0  0  0  0  0  0
  -26.2746  -21.1535   16.6530 H   0  0  0  0  0  0
  -28.0299  -18.0689   16.4388 H   0  0  0  0  0  0
  -29.3652  -19.0379   17.0397 H   0  0  0  0  0  0
  -28.0316  -19.8111   16.2126 H   0  0  0  0  0  0
  -26.9834  -23.7546   23.9127 H   0  0  0  0  0  0
  -28.6163  -23.4595   23.3270 H   0  0  0  0  0  0
  -27.2403  -22.6478   22.5761 H   0  0  0  0  0  0
  -30.7795  -19.5720   20.5288 H   0  0  0  0  0  0
  -30.1982  -18.9237   19.0791 H   0  0  0  0  0  0
  -26.4676  -19.0797   18.0765 H   0  0  0  0  0  0
  -27.7628  -18.3278   18.8989 H   0  0  0  0  0  0
  -27.6130  -25.6883   22.5778 H   0  0  0  0  0  0
  -26.3944  -24.8012   21.7016 H   0  0  0  0  0  0
  -28.5863  -17.7965   21.2965 H   0  0  0  0  0  0
  -30.2236  -17.7250   21.7681 H   0  0  0  0  0  0
  -29.3743  -24.7243   21.2107 H   0  0  0  0  0  0
  -28.7048  -15.8464   20.2323 H   0  0  0  0  0  0
  1 25  1  0  0  0
  1 30  2  0  0  0
  1 85  1  0  0  0
  2  3  1  0  0  0
  2 25  1  0  0  0
  2 86  1  0  0  0
  2 87  1  0  0  0
  3  4  1  0  0  0
  3 88  1  0  0  0
  3 89  1  0  0  0
  4  5  1  0  0  0
  4 90  1  0  0  0
  4 91  1  0  0  0
  5  6  1  0  0  0
  5 26  1  0  0  0
  5 92  1  0  0  0
  6 25  1  0  0  0
  6 93  1  0  0  0
  6 94  1  0  0  0
  7  8  2  0  0  0
  7 26  1  0  0  0
  7 29  1  0  0  0
  8  9  1  0  0  0
  8 22  1  0  0  0
  9 10  1  0  0  0
  9 27  2  0  0  0
 10 11  2  0  0  0
 10 15  1  0  0  0
 11 12  1  0  0  0
 11 95  1  0  0  0
 12 13  2  0  0  0
 12 96  1  0  0  0
 13 14  1  0  0  0
 13 31  1  0  0  0
 14 15  2  0  0  0
 14 97  1  0  0  0
 15 98  1  0  0  0
 16 17  2  0  0  0
 16 21  1  0  0  0
 16 31  1  0  0  0
 17 18  1  0  0  0
 17 99  1  0  0  0
 18 19  2  0  0  0
 18100  1  0  0  0
 19 20  1  0  0  0
 19 24  1  0  0  0
 20 21  2  0  0  0
 20101  1  0  0  0
 21 23  1  0  0  0
 22 28  1  0  0  0
 22 32  2  0  0  0
 26 27  1  0  0  0
 28102  1  0  0  0
 28103  1  0  0  0
 29104  1  0  0  0
 29105  1  0  0  0
 33 34  1  0  0  0
 33 66  1  0  0  0
 33 70  2  0  0  0
 34 36  1  0  0  0
 34 59  1  0  0  0
 34106  1  0  0  0
 35 44  2  0  0  0
 35 45  1  0  0  0
 35 68  1  0  0  0
 36 56  1  0  0  0
 36107  1  0  0  0
 37 39  1  0  0  0
 37 47  1  0  0  0
 37 66  1  0  0  0
 37108  1  0  0  0
 38 43  2  0  0  0
 38 46  1  0  0  0
 38 47  1  0  0  0
 39 64  1  0  0  0
 39 67  2  0  0  0
 40 52  1  0  0  0
 40 53  2  0  0  0
 40 58  1  0  0  0
 41109  1  0  0  0
 41110  1  0  0  0
 41111  1  0  0  0
 41 48  1  0  0  0
 42 43  1  0  0  0
 42 66  1  0  0  0
 42112  1  0  0  0
 42113  1  0  0  0
 43 44  1  0  0  0
 44114  1  0  0  0
 45 46  2  0  0  0
 45115  1  0  0  0
 46116  1  0  0  0
 47117  1  0  0  0
 47118  1  0  0  0
 48 56  1  0  0  0
 48 65  1  0  0  0
 48119  1  0  0  0
 49 50  1  0  0  0
 49 53  1  0  0  0
 49 64  1  0  0  0
 49120  1  0  0  0
 50 51  1  0  0  0
 50121  1  0  0  0
 50122  1  0  0  0
 51 52  1  0  0  0
 51123  1  0  0  0
 51124  1  0  0  0
 52125  1  0  0  0
 52126  1  0  0  0
 53 54  1  0  0  0
 54 55  2  0  0  0
 54127  1  0  0  0
 55 57  1  0  0  0
 55128  1  0  0  0
 56 69  2  0  0  0
 57 58  2  0  0  0
 57129  1  0  0  0
 58130  1  0  0  0
 59 60  1  0  0  0
 59 61  1  0  0  0
 59 62  1  0  0  0
 60131  1  0  0  0
 60132  1  0  0  0
 60133  1  0  0  0
 61134  1  0  0  0
 61135  1  0  0  0
 61136  1  0  0  0
 62137  1  0  0  0
 62138  1  0  0  0
 62139  1  0  0  0
 63 65  1  0  0  0
 63140  1  0  0  0
 63141  1  0  0  0
 63142  1  0  0  0
 64143  1  0  0  0
 65144  1  0  0  0
 68 84  1  0  0  0
 71 73  2  0  0  0
 71 74  1  0  0  0
 71145  1  0  0  0
 72 73  1  0  0  0
 72 75  2  0  0  0
 72146  1  0  0  0
 73 84  1  0  0  0
 74 76  2  0  0  0
 74 77  1  0  0  0
 75 76  1  0  0  0
 75 80  1  0  0  0
 76 81  1  0  0  0
 77147  1  0  0  0
 77148  1  0  0  0
 77149  1  0  0  0
 78 81  1  0  0  0
 78150  1  0  0  0
 78151  1  0  0  0
 78152  1  0  0  0
 79 82  1  0  0  0
 79153  1  0  0  0
 79154  1  0  0  0
 79155  1  0  0  0
 80 83  1  0  0  0
 80156  1  0  0  0
 80157  1  0  0  0
 81158  1  0  0  0
 81159  1  0  0  0
 82160  1  0  0  0
 82161  1  0  0  0
 82 84  1  0  0  0
 83 85  1  0  0  0
 83162  1  0  0  0
 83163  1  0  0  0
 84164  1  0  0  0
 85165  1  0  0  0
M  ISO  4   1 100  68 101  84 101  85 100
M  END
> <chiral flag>
0

> <version>
0

> <s_m_source_file>
/data/baiqing/PycharmProjects/Reinvent-master-3.2/result/LINK_invent/BTK/process_docking_weight1_custom_sum_contain_oxygen_bond_distance_aromatic_linkinvent_7_9_3/rearranged_h_0099.sdf

> <i_m_source_file_index>
40

> <r_mmod_Potential_Energy-OPLS-2005>
721.115295410156

> <r_mmod_Stretch_Energy-OPLS-2005>
316.810485839844

> <r_mmod_Bend_Energy-OPLS-2005>
342.904449462891

> <r_mmod_Torsional_Energy-OPLS-2005>
275.404998779297

> <r_mmod_Improper_Torsional_Energy-OPLS-2005>
8.21268653869629

> <r_mmod_Van_der_Waal_Energy-OPLS-2005>
125.133331298828

> <r_mmod_Electrostatic_Energy-OPLS-2005>
-380.770477294922

> <r_mmod_Solvation_Energy-OPLS-2005>
-202.832321166992

> <b_mmod_Minimization_Converged-OPLS-2005>
0

> <r_mmod_RMS_Derivative-OPLS-2005>
1.2373902797699

$$$$
40
                    3D
 Structure written by MMmdl.
156164  0  0  1  0            999 V2000
  -30.3367  -15.5818   20.3808 C   0  0  0  0  0  0
  -30.4257  -13.0398   19.5567 C   0  0  0  0  0  0
  -29.5581  -12.6763   18.3175 C   0  0  0  0  0  0
  -28.1145  -12.3400   18.7301 C   0  0  0  0  0  0
  -27.5984  -13.3088   19.8198 C   0  0  2  0  0  0
  -28.6235  -13.5889   20.9491 C   0  0  0  0  0  0
  -25.2198  -13.8213   20.5712 C   0  0  0  0  0  0
  -24.1667  -13.0338   20.9282 C   0  0  0  0  0  0
  -24.6401  -11.6883   20.8732 C   0  0  0  0  0  0
  -23.9102  -10.4246   21.0360 C   0  0  0  0  0  0
  -24.3660   -9.4171   21.9160 C   0  0  0  0  0  0
  -23.6310   -8.2221   22.0753 C   0  0  0  0  0  0
  -22.4293   -8.0259   21.3533 C   0  0  0  0  0  0
  -21.9909   -9.0242   20.4632 C   0  0  0  0  0  0
  -22.7260  -10.2105   20.3012 C   0  0  0  0  0  0
  -21.6864   -6.0696   22.5260 C   0  0  0  0  0  0
  -21.4045   -6.5609   23.8202 C   0  0  0  0  0  0
  -21.3681   -5.6758   24.9157 C   0  0  0  0  0  0
  -21.6057   -4.3026   24.7220 C   0  0  0  0  0  0
  -21.8821   -3.8100   23.4333 C   0  0  0  0  0  0
  -21.9189   -4.6923   22.3384 C   0  0  0  0  0  0
  -22.7687  -13.5073   21.1907 C   0  0  0  0  0  0
  -22.1655   -4.2098   21.0964 F   0  0  0  0  0  0
  -21.5621   -3.4514   25.7735 F   0  0  0  0  0  0
  -29.8028  -14.2208   20.3103 N   0  0  0  0  0  0
  -26.2751  -12.9608   20.3216 N   0  0  0  0  0  0
  -25.9357  -11.6676   20.5701 N   0  0  0  0  0  0
  -22.0360  -12.8091   22.0495 N   0  0  0  0  0  0
  -25.3370  -15.1954   20.4030 N   0  0  0  0  0  0
  -31.5650  -15.5135   20.1775 O   0  0  0  0  0  0
  -21.6645   -6.8858   21.4238 O   0  0  0  0  0  0
  -22.3369  -14.5372   20.6731 O   0  0  0  0  0  0
  -24.6809  -31.8004   23.1568 C   0  0  0  0  0  0
  -25.9387  -32.4470   23.8106 C   0  0  1  0  0  0
  -27.2287  -26.7244   20.2467 C   0  0  0  0  0  0
  -25.5983  -33.8302   24.1982 N   0  0  0  0  0  0
  -23.5057  -30.4028   21.5094 C   0  0  2  0  0  0
  -24.9676  -28.7453   20.1239 C   0  0  0  0  0  0
  -22.7749  -29.4307   22.4744 C   0  0  0  0  0  0
  -18.0307  -28.1407   22.8442 C   0  0  0  0  0  0
  -24.1487  -36.7154   23.2659 C   0  0  0  0  0  0
  -26.0846  -30.5432   21.4183 C   0  0  0  0  0  0
  -26.1524  -29.1095   20.7754 C   0  0  0  0  0  0
  -27.2687  -28.1257   20.8028 C   0  0  0  0  0  0
  -26.0134  -26.5586   19.5361 C   0  0  0  0  0  0
  -24.9356  -27.4955   19.4789 C   0  0  0  0  0  0
  -23.7627  -29.6997   20.1437 C   0  0  0  0  0  0
  -25.4133  -36.2905   24.0295 C   0  0  1  0  0  0
  -20.5944  -28.3755   23.1155 C   0  0  2  0  0  0
  -20.6781  -26.9416   22.5407 C   0  0  0  0  0  0
  -19.5763  -26.6357   21.5203 C   0  0  0  0  0  0
  -18.1943  -26.7924   22.1600 C   0  0  0  0  0  0
  -19.1573  -28.8897   23.2777 C   0  0  0  0  0  0
  -18.9495  -30.1484   23.8812 C   0  0  0  0  0  0
  -17.6493  -30.6596   24.0531 C   0  0  0  0  0  0
  -25.9111  -34.9289   23.4980 C   0  0  0  0  0  0
  -16.5379  -29.9081   23.6357 C   0  0  0  0  0  0
  -16.7287  -28.6506   23.0367 C   0  0  0  0  0  0
  -26.4564  -31.6502   25.0728 C   0  0  0  0  0  0
  -25.3664  -31.3823   26.1381 C   0  0  0  0  0  0
  -27.0495  -30.2838   24.6624 C   0  0  0  0  0  0
  -27.5999  -32.4365   25.7567 C   0  0  0  0  0  0
  -27.5549  -37.1750   24.8461 C   0  0  0  0  0  0
  -21.4391  -29.3008   22.3498 N   0  0  0  0  0  0
  -26.4254  -37.3662   23.9412 N   0  0  0  0  0  0
  -24.7800  -30.9468   22.0810 N   0  0  0  0  0  0
  -23.4202  -28.7889   23.3059 O   0  0  0  0  0  0
  -28.2101  -25.5306   20.3324 O   0  0  0  0  0  0
  -26.5747  -34.8850   22.4590 O   0  0  0  0  0  0
  -23.5836  -32.1067   23.6542 O   0  0  0  0  0  0
  -27.2854  -18.2165   20.7008 C   0  0  0  0  0  0
  -28.1945  -16.9395   20.9133 C   0  0  0  0  0  0
  -29.9406  -18.6660   20.3524 C   0  0  0  0  0  0
  -27.7190  -19.6322   21.2395 C   0  0  2  0  0  0
  -28.8577  -20.2125   20.3617 C   0  0  1  0  0  0
  -28.4133  -20.8829   23.4274 C   0  0  0  0  0  0
  -28.0075  -19.5602   22.7620 C   0  0  0  0  0  0
  -29.0321  -22.1454   20.4462 C   0  0  0  0  0  0
  -28.0274  -23.7885   20.2748 C   0  0  0  0  0  0
  -29.6015  -16.9652   20.4652 N   0  0  0  0  0  0
  -31.4333  -13.2762   19.2174 H   0  0  0  0  0  0
  -30.5512  -12.1727   20.2079 H   0  0  0  0  0  0
  -30.0046  -11.8447   17.7698 H   0  0  0  0  0  0
  -29.5490  -13.5245   17.6302 H   0  0  0  0  0  0
  -28.0991  -11.3186   19.1065 H   0  0  0  0  0  0
  -27.4608  -12.3628   17.8554 H   0  0  0  0  0  0
  -27.4662  -14.2434   19.2765 H   0  0  0  0  0  0
  -28.8726  -12.6794   21.4997 H   0  0  0  0  0  0
  -28.2058  -14.2695   21.6896 H   0  0  0  0  0  0
  -25.2804   -9.5653   22.4741 H   0  0  0  0  0  0
  -23.9989   -7.4615   22.7508 H   0  0  0  0  0  0
  -21.0816   -8.8773   19.8970 H   0  0  0  0  0  0
  -22.3713  -10.9649   19.6125 H   0  0  0  0  0  0
  -21.2076   -7.6122   23.9690 H   0  0  0  0  0  0
  -21.1511   -6.0489   25.9061 H   0  0  0  0  0  0
  -22.0579   -2.7568   23.2830 H   0  0  0  0  0  0
  -22.4014  -11.9827   22.4966 H   0  0  0  0  0  0
  -21.0960  -13.1102   22.2643 H   0  0  0  0  0  0
  -24.5136  -15.7830   20.4822 H   0  0  0  0  0  0
  -26.1285  -15.6745   19.9990 H   0  0  0  0  0  0
  -26.7476  -32.4951   23.0826 H   0  0  0  0  0  0
  -25.0049  -33.9342   25.0084 H   0  0  0  0  0  0
  -22.8274  -31.2383   21.3220 H   0  0  0  0  0  0
  -23.3758  -35.9472   23.3295 H   0  0  0  0  0  0
  -24.3550  -36.8838   22.2074 H   0  0  0  0  0  0
  -23.7233  -37.6329   23.6744 H   0  0  0  0  0  0
  -26.2816  -31.2626   20.6229 H   0  0  0  0  0  0
  -26.9384  -30.6152   22.0815 H   0  0  0  0  0  0
  -28.1579  -28.4100   21.3512 H   0  0  0  0  0  0
  -25.8575  -25.6071   19.0484 H   0  0  0  0  0  0
  -24.0416  -27.2051   18.9450 H   0  0  0  0  0  0
  -23.9460  -30.4621   19.3861 H   0  0  0  0  0  0
  -22.8668  -29.1709   19.8117 H   0  0  0  0  0  0
  -25.1343  -36.1682   25.0785 H   0  0  0  0  0  0
  -20.9990  -28.3376   24.1294 H   0  0  0  0  0  0
  -20.5628  -26.2371   23.3667 H   0  0  0  0  0  0
  -21.6661  -26.7373   22.1240 H   0  0  0  0  0  0
  -19.6944  -25.6253   21.1281 H   0  0  0  0  0  0
  -19.6720  -27.3123   20.6704 H   0  0  0  0  0  0
  -17.4218  -26.6626   21.4010 H   0  0  0  0  0  0
  -18.0354  -26.0088   22.9024 H   0  0  0  0  0  0
  -19.7972  -30.7301   24.2162 H   0  0  0  0  0  0
  -17.5048  -31.6260   24.5157 H   0  0  0  0  0  0
  -15.5371  -30.2957   23.7736 H   0  0  0  0  0  0
  -15.8675  -28.0792   22.7146 H   0  0  0  0  0  0
  -24.5804  -30.7206   25.7721 H   0  0  0  0  0  0
  -24.8907  -32.3056   26.4694 H   0  0  0  0  0  0
  -25.7868  -30.9060   27.0250 H   0  0  0  0  0  0
  -26.3212  -29.6450   24.1618 H   0  0  0  0  0  0
  -27.3915  -29.7274   25.5364 H   0  0  0  0  0  0
  -27.9193  -30.3948   24.0151 H   0  0  0  0  0  0
  -27.2488  -33.3690   26.1990 H   0  0  0  0  0  0
  -28.3899  -32.6891   25.0491 H   0  0  0  0  0  0
  -28.0567  -31.8618   26.5632 H   0  0  0  0  0  0
  -28.2560  -38.0054   24.7491 H   0  0  0  0  0  0
  -28.1056  -36.2577   24.6314 H   0  0  0  0  0  0
  -27.2267  -37.1428   25.8866 H   0  0  0  0  0  0
  -20.9707  -29.8674   21.6572 H   0  0  0  0  0  0
  -26.0089  -38.2722   24.1404 H   0  0  0  0  0  0
  -26.3135  -17.9819   21.1396 H   0  0  0  0  0  0
  -27.0783  -18.3048   19.6344 H   0  0  0  0  0  0
  -27.7249  -16.1469   20.3456 H   0  0  0  0  0  0
  -28.1620  -16.6247   21.9566 H   0  0  0  0  0  0
  -30.6426  -18.8159   21.1730 H   0  0  0  0  0  0
  -30.5701  -18.7503   19.4656 H   0  0  0  0  0  0
  -26.8592  -20.2907   21.1074 H   0  0  0  0  0  0
  -28.4579  -20.1584   19.3484 H   0  0  0  0  0  0
  -28.3144  -20.8199   24.5109 H   0  0  0  0  0  0
  -27.7981  -21.7183   23.0957 H   0  0  0  0  0  0
  -29.4572  -21.1127   23.2232 H   0  0  0  0  0  0
  -28.7803  -18.8204   22.9729 H   0  0  0  0  0  0
  -27.1101  -19.1962   23.2658 H   0  0  0  0  0  0
  -29.8406  -22.3159   19.7361 H   0  0  0  0  0  0
  -29.5381  -22.3026   21.3950 H   0  0  0  0  0  0
  -27.2271  -23.6496   21.0022 H   0  0  0  0  0  0
  -27.5171  -23.6578   19.3220 H   0  0  0  0  0  0
  1 25  1  0  0  0
  1 30  2  0  0  0
  1 80  1  0  0  0
  2  3  1  0  0  0
  2 25  1  0  0  0
  2 81  1  0  0  0
  2 82  1  0  0  0
  3  4  1  0  0  0
  3 83  1  0  0  0
  3 84  1  0  0  0
  4  5  1  0  0  0
  4 85  1  0  0  0
  4 86  1  0  0  0
  5  6  1  0  0  0
  5 26  1  0  0  0
  5 87  1  0  0  0
  6 25  1  0  0  0
  6 88  1  0  0  0
  6 89  1  0  0  0
  7  8  2  0  0  0
  7 26  1  0  0  0
  7 29  1  0  0  0
  8  9  1  0  0  0
  8 22  1  0  0  0
  9 10  1  0  0  0
  9 27  2  0  0  0
 10 11  2  0  0  0
 10 15  1  0  0  0
 11 12  1  0  0  0
 11 90  1  0  0  0
 12 13  2  0  0  0
 12 91  1  0  0  0
 13 14  1  0  0  0
 13 31  1  0  0  0
 14 15  2  0  0  0
 14 92  1  0  0  0
 15 93  1  0  0  0
 16 17  2  0  0  0
 16 21  1  0  0  0
 16 31  1  0  0  0
 17 18  1  0  0  0
 17 94  1  0  0  0
 18 19  2  0  0  0
 18 95  1  0  0  0
 19 20  1  0  0  0
 19 24  1  0  0  0
 20 21  2  0  0  0
 20 96  1  0  0  0
 21 23  1  0  0  0
 22 28  1  0  0  0
 22 32  2  0  0  0
 26 27  1  0  0  0
 28 97  1  0  0  0
 28 98  1  0  0  0
 29 99  1  0  0  0
 29100  1  0  0  0
 33 34  1  0  0  0
 33 66  1  0  0  0
 33 70  2  0  0  0
 34 36  1  0  0  0
 34 59  1  0  0  0
 34101  1  0  0  0
 35 44  2  0  0  0
 35 45  1  0  0  0
 35 68  1  0  0  0
 36 56  1  0  0  0
 36102  1  0  0  0
 37 39  1  0  0  0
 37 47  1  0  0  0
 37 66  1  0  0  0
 37103  1  0  0  0
 38 43  2  0  0  0
 38 46  1  0  0  0
 38 47  1  0  0  0
 39 64  1  0  0  0
 39 67  2  0  0  0
 40 52  1  0  0  0
 40 53  2  0  0  0
 40 58  1  0  0  0
 41104  1  0  0  0
 41105  1  0  0  0
 41106  1  0  0  0
 41 48  1  0  0  0
 42 43  1  0  0  0
 42 66  1  0  0  0
 42107  1  0  0  0
 42108  1  0  0  0
 43 44  1  0  0  0
 44109  1  0  0  0
 45 46  2  0  0  0
 45110  1  0  0  0
 46111  1  0  0  0
 47112  1  0  0  0
 47113  1  0  0  0
 48 56  1  0  0  0
 48 65  1  0  0  0
 48114  1  0  0  0
 49 50  1  0  0  0
 49 53  1  0  0  0
 49 64  1  0  0  0
 49115  1  0  0  0
 50 51  1  0  0  0
 50116  1  0  0  0
 50117  1  0  0  0
 51 52  1  0  0  0
 51118  1  0  0  0
 51119  1  0  0  0
 52120  1  0  0  0
 52121  1  0  0  0
 53 54  1  0  0  0
 54 55  2  0  0  0
 54122  1  0  0  0
 55 57  1  0  0  0
 55123  1  0  0  0
 56 69  2  0  0  0
 57 58  2  0  0  0
 57124  1  0  0  0
 58125  1  0  0  0
 59 60  1  0  0  0
 59 61  1  0  0  0
 59 62  1  0  0  0
 60126  1  0  0  0
 60127  1  0  0  0
 60128  1  0  0  0
 61129  1  0  0  0
 61130  1  0  0  0
 61131  1  0  0  0
 62132  1  0  0  0
 62133  1  0  0  0
 62134  1  0  0  0
 63 65  1  0  0  0
 63135  1  0  0  0
 63136  1  0  0  0
 63137  1  0  0  0
 64138  1  0  0  0
 65139  1  0  0  0
 68 79  1  0  0  0
 71 72  1  0  0  0
 71 74  1  0  0  0
 71140  1  0  0  0
 71141  1  0  0  0
 72 80  1  0  0  0
 72142  1  0  0  0
 72143  1  0  0  0
 73 75  1  0  0  0
 73 80  1  0  0  0
 73144  1  0  0  0
 73145  1  0  0  0
 74 75  1  0  0  0
 74 77  1  0  0  0
 74146  1  0  0  0
 75 78  1  0  0  0
 75147  1  0  0  0
 76 77  1  0  0  0
 76148  1  0  0  0
 76149  1  0  0  0
 76150  1  0  0  0
 77151  1  0  0  0
 77152  1  0  0  0
 78 79  1  0  0  0
 78153  1  0  0  0
 78154  1  0  0  0
 79155  1  0  0  0
 79156  1  0  0  0
M  ISO  4   1 100  68 101  79 101  80 100
M  END
> <chiral flag>
0

> <version>
0

> <s_m_source_file>
/data/baiqing/PycharmProjects/Reinvent-master-3.2/result/LINK_invent/BTK/process_docking_weight1_custom_sum_contain_oxygen_bond_distance_aromatic_linkinvent_7_9_3/rearranged_h_0099.sdf

> <i_m_source_file_index>
41

> <r_mmod_Potential_Energy-OPLS-2005>
2524.96728515625

> <r_mmod_Stretch_Energy-OPLS-2005>
1106.26916503906

> <r_mmod_Bend_Energy-OPLS-2005>
633.457336425781

> <r_mmod_Torsional_Energy-OPLS-2005>
317.96435546875

> <r_mmod_Improper_Torsional_Energy-OPLS-2005>
4.87763118743896

> <r_mmod_Van_der_Waal_Energy-OPLS-2005>
115.078140258789

> <r_mmod_Electrostatic_Energy-OPLS-2005>
-279.878509521484

> <r_mmod_Solvation_Energy-OPLS-2005>
-199.569946289062

> <b_mmod_Minimization_Converged-OPLS-2005>
0

> <r_mmod_RMS_Derivative-OPLS-2005>
4.33743762969971

$$$$
41
                    3D
 Structure written by MMmdl.
164172  0  0  1  0            999 V2000
  -30.7215  -14.5525   20.5505 C   0  0  0  0  0  0
  -30.4083  -12.3501   19.4553 C   0  0  0  0  0  0
  -29.4959  -12.5056   18.2231 C   0  0  0  0  0  0
  -28.0213  -12.3509   18.6359 C   0  0  0  0  0  0
  -27.6517  -13.2236   19.8665 C   0  0  2  0  0  0
  -28.6940  -13.0852   20.9996 C   0  0  0  0  0  0
  -25.2544  -13.8188   20.5706 C   0  0  0  0  0  0
  -24.1808  -13.0447   20.9185 C   0  0  0  0  0  0
  -24.6385  -11.6917   20.8743 C   0  0  0  0  0  0
  -23.9060  -10.4295   21.0408 C   0  0  0  0  0  0
  -24.3615   -9.4210   21.9184 C   0  0  0  0  0  0
  -23.6288   -8.2242   22.0753 C   0  0  0  0  0  0
  -22.4267   -8.0285   21.3540 C   0  0  0  0  0  0
  -21.9913   -9.0261   20.4637 C   0  0  0  0  0  0
  -22.7242  -10.2134   20.3048 C   0  0  0  0  0  0
  -21.6855   -6.0737   22.5276 C   0  0  0  0  0  0
  -21.4018   -6.5636   23.8215 C   0  0  0  0  0  0
  -21.3660   -5.6782   24.9173 C   0  0  0  0  0  0
  -21.6050   -4.3048   24.7225 C   0  0  0  0  0  0
  -21.8815   -3.8140   23.4343 C   0  0  0  0  0  0
  -21.9192   -4.6960   22.3396 C   0  0  0  0  0  0
  -22.7830  -13.5243   21.1862 C   0  0  0  0  0  0
  -22.1661   -4.2149   21.0978 F   0  0  0  0  0  0
  -21.5631   -3.4528   25.7736 F   0  0  0  0  0  0
  -30.0134  -13.3879   20.4308 N   0  0  0  0  0  0
  -26.2979  -12.9389   20.3341 N   0  0  0  0  0  0
  -25.9317  -11.6535   20.5770 N   0  0  0  0  0  0
  -22.0461  -12.8223   22.0398 N   0  0  0  0  0  0
  -25.4236  -15.1911   20.4135 N   0  0  0  0  0  0
  -31.8447  -14.6562   20.0452 O   0  0  0  0  0  0
  -21.6626   -6.8882   21.4245 O   0  0  0  0  0  0
  -22.3524  -14.5554   20.6720 O   0  0  0  0  0  0
  -24.6247  -31.8644   23.2015 C   0  0  0  0  0  0
  -25.9099  -32.4789   23.8372 C   0  0  1  0  0  0
  -27.2239  -27.3574   20.1164 C   0  0  0  0  0  0
  -25.5928  -33.8595   24.2279 N   0  0  0  0  0  0
  -23.4176  -30.4854   21.5417 C   0  0  2  0  0  0
  -24.8618  -28.9413   20.1133 C   0  0  0  0  0  0
  -22.7478  -29.4656   22.4930 C   0  0  0  0  0  0
  -18.0291  -28.1421   22.8496 C   0  0  0  0  0  0
  -24.1474  -36.7293   23.2643 C   0  0  0  0  0  0
  -25.9549  -30.8062   21.3634 C   0  0  0  0  0  0
  -26.0284  -29.4345   20.7119 C   0  0  0  0  0  0
  -27.2157  -28.6539   20.7028 C   0  0  0  0  0  0
  -26.0392  -26.9012   19.4985 C   0  0  0  0  0  0
  -24.8661  -27.6777   19.4997 C   0  0  0  0  0  0
  -23.6280  -29.8158   20.1588 C   0  0  0  0  0  0
  -25.4104  -36.3088   24.0324 C   0  0  1  0  0  0
  -20.5900  -28.3712   23.1296 C   0  0  2  0  0  0
  -20.6796  -26.9438   22.5421 C   0  0  0  0  0  0
  -19.5760  -26.6404   21.5240 C   0  0  0  0  0  0
  -18.1934  -26.7970   22.1619 C   0  0  0  0  0  0
  -19.1550  -28.8881   23.2889 C   0  0  0  0  0  0
  -18.9484  -30.1486   23.8898 C   0  0  0  0  0  0
  -17.6482  -30.6619   24.0586 C   0  0  0  0  0  0
  -25.9048  -34.9456   23.5104 C   0  0  0  0  0  0
  -16.5375  -29.9124   23.6342 C   0  0  0  0  0  0
  -16.7268  -28.6543   23.0358 C   0  0  0  0  0  0
  -26.4493  -31.6604   25.0741 C   0  0  0  0  0  0
  -25.3721  -31.3750   26.1468 C   0  0  0  0  0  0
  -27.0341  -30.3034   24.6191 C   0  0  0  0  0  0
  -27.6055  -32.4343   25.7523 C   0  0  0  0  0  0
  -27.5555  -37.1812   24.8477 C   0  0  0  0  0  0
  -21.4188  -29.3065   22.3693 N   0  0  0  0  0  0
  -26.4264  -37.3791   23.9423 N   0  0  0  0  0  0
  -24.6843  -31.0707   22.0920 N   0  0  0  0  0  0
  -23.4216  -28.8185   23.2974 O   0  0  0  0  0  0
  -28.3439  -26.5333   20.1321 O   0  0  0  0  0  0
  -26.5641  -34.8927   22.4676 O   0  0  0  0  0  0
  -23.5406  -32.1409   23.7356 O   0  0  0  0  0  0
  -32.8228  -18.4212   22.7246 C   0  0  0  0  0  0
  -32.6700  -17.1152   23.1822 C   0  0  0  0  0  0
  -31.9157  -18.9228   21.7808 C   0  0  0  0  0  0
  -30.8346  -18.1046   21.3361 C   0  0  0  0  0  0
  -30.8799  -16.7047   21.7169 C   0  0  0  0  0  0
  -32.2007  -20.3199   21.2457 C   0  0  0  0  0  0
  -27.9509  -20.9941   18.8706 C   0  0  0  0  0  0
  -29.7475  -18.7642   20.4336 C   0  0  0  0  0  0
  -29.0860  -20.1057   20.9863 C   0  0  0  0  0  0
  -28.7111  -23.9469   19.9682 C   0  0  0  0  0  0
  -28.1711  -25.2109   20.7486 C   0  0  0  0  0  0
  -28.9360  -21.3441   20.0042 C   0  0  2  0  0  0
  -31.7382  -16.2895   22.6800 N   0  0  0  0  0  0
  -30.1205  -15.6552   21.0904 N   0  0  0  0  0  0
  -28.5276  -22.6270   20.6960 N   0  3  0  0  0  0
  -31.4567  -12.4150   19.1609 H   0  0  0  0  0  0
  -30.2929  -11.3564   19.8909 H   0  0  0  0  0  0
  -29.7527  -11.7669   17.4643 H   0  0  0  0  0  0
  -29.6556  -13.4826   17.7649 H   0  0  0  0  0  0
  -27.8563  -11.2992   18.8701 H   0  0  0  0  0  0
  -27.3662  -12.5785   17.7957 H   0  0  0  0  0  0
  -27.6729  -14.2590   19.5291 H   0  0  0  0  0  0
  -28.6852  -12.0705   21.4005 H   0  0  0  0  0  0
  -28.4530  -13.7413   21.8369 H   0  0  0  0  0  0
  -25.2763   -9.5685   22.4763 H   0  0  0  0  0  0
  -23.9997   -7.4633   22.7469 H   0  0  0  0  0  0
  -21.0845   -8.8766   19.8945 H   0  0  0  0  0  0
  -22.3694  -10.9672   19.6146 H   0  0  0  0  0  0
  -21.2004   -7.6142   23.9727 H   0  0  0  0  0  0
  -21.1496   -6.0505   25.9079 H   0  0  0  0  0  0
  -22.0595   -2.7607   23.2833 H   0  0  0  0  0  0
  -22.4048  -11.9865   22.4770 H   0  0  0  0  0  0
  -21.1089  -13.1272   22.2616 H   0  0  0  0  0  0
  -24.6552  -15.8444   20.5228 H   0  0  0  0  0  0
  -26.2717  -15.6323   20.0829 H   0  0  0  0  0  0
  -26.7169  -32.5441   23.1120 H   0  0  0  0  0  0
  -25.0070  -33.9762   25.0425 H   0  0  0  0  0  0
  -22.7090  -31.3049   21.3965 H   0  0  0  0  0  0
  -23.3740  -35.9625   23.3336 H   0  0  0  0  0  0
  -24.3563  -36.8888   22.2054 H   0  0  0  0  0  0
  -23.7228  -37.6491   23.6664 H   0  0  0  0  0  0
  -26.0855  -31.5634   20.5902 H   0  0  0  0  0  0
  -26.8386  -30.8568   21.9894 H   0  0  0  0  0  0
  -28.1150  -29.0330   21.1689 H   0  0  0  0  0  0
  -26.0163  -25.9297   19.0267 H   0  0  0  0  0  0
  -23.9676  -27.2933   19.0318 H   0  0  0  0  0  0
  -23.7432  -30.5889   19.3973 H   0  0  0  0  0  0
  -22.7503  -29.2390   19.8580 H   0  0  0  0  0  0
  -25.1282  -36.1928   25.0815 H   0  0  0  0  0  0
  -20.9999  -28.3289   24.1411 H   0  0  0  0  0  0
  -20.5779  -26.2314   23.3627 H   0  0  0  0  0  0
  -21.6657  -26.7513   22.1178 H   0  0  0  0  0  0
  -19.6950  -25.6334   21.1238 H   0  0  0  0  0  0
  -19.6718  -27.3247   20.6807 H   0  0  0  0  0  0
  -17.4240  -26.6751   21.3993 H   0  0  0  0  0  0
  -18.0287  -26.0122   22.9009 H   0  0  0  0  0  0
  -19.7954  -30.7310   24.2261 H   0  0  0  0  0  0
  -17.5040  -31.6294   24.5201 H   0  0  0  0  0  0
  -15.5386  -30.3037   23.7688 H   0  0  0  0  0  0
  -15.8664  -28.0872   22.7083 H   0  0  0  0  0  0
  -24.5916  -30.7069   25.7815 H   0  0  0  0  0  0
  -24.8909  -32.2924   26.4857 H   0  0  0  0  0  0
  -25.8037  -30.8968   27.0264 H   0  0  0  0  0  0
  -26.2901  -29.6792   24.1232 H   0  0  0  0  0  0
  -27.4064  -29.7278   25.4671 H   0  0  0  0  0  0
  -27.8738  -30.4346   23.9366 H   0  0  0  0  0  0
  -27.2659  -33.3670   26.2035 H   0  0  0  0  0  0
  -28.3892  -32.6859   25.0366 H   0  0  0  0  0  0
  -28.0683  -31.8516   26.5504 H   0  0  0  0  0  0
  -28.2603  -38.0082   24.7517 H   0  0  0  0  0  0
  -28.0999  -36.2619   24.6281 H   0  0  0  0  0  0
  -27.2285  -37.1428   25.8883 H   0  0  0  0  0  0
  -20.9386  -29.8705   21.6845 H   0  0  0  0  0  0
  -26.0131  -38.2853   24.1449 H   0  0  0  0  0  0
  -33.6373  -19.0260   23.0989 H   0  0  0  0  0  0
  -33.3450  -16.6984   23.9136 H   0  0  0  0  0  0
  -33.2754  -20.4866   21.1789 H   0  0  0  0  0  0
  -31.7964  -21.0887   21.9027 H   0  0  0  0  0  0
  -31.8189  -20.4632   20.2379 H   0  0  0  0  0  0
  -28.2802  -20.1127   18.3190 H   0  0  0  0  0  0
  -27.8510  -21.7994   18.1449 H   0  0  0  0  0  0
  -26.9555  -20.7787   19.2589 H   0  0  0  0  0  0
  -28.9577  -18.0382   20.2453 H   0  0  0  0  0  0
  -30.1975  -18.9455   19.4582 H   0  0  0  0  0  0
  -29.6376  -20.4428   21.8601 H   0  0  0  0  0  0
  -28.1054  -19.8542   21.3925 H   0  0  0  0  0  0
  -29.7732  -24.0839   19.7606 H   0  0  0  0  0  0
  -28.2084  -23.9005   19.0034 H   0  0  0  0  0  0
  -28.6849  -25.2656   21.7090 H   0  0  0  0  0  0
  -27.1268  -25.0338   21.0106 H   0  0  0  0  0  0
  -29.9150  -21.5308   19.5635 H   0  0  0  0  0  0
  -29.1465  -15.5876   21.3376 H   0  0  0  0  0  0
  -27.5590  -22.5327   20.9603 H   0  0  0  0  0  0
  -29.0550  -22.6878   21.5538 H   0  0  0  0  0  0
  1 25  1  0  0  0
  1 30  2  0  0  0
  1 84  1  0  0  0
  2  3  1  0  0  0
  2 25  1  0  0  0
  2 86  1  0  0  0
  2 87  1  0  0  0
  3  4  1  0  0  0
  3 88  1  0  0  0
  3 89  1  0  0  0
  4  5  1  0  0  0
  4 90  1  0  0  0
  4 91  1  0  0  0
  5  6  1  0  0  0
  5 26  1  0  0  0
  5 92  1  0  0  0
  6 25  1  0  0  0
  6 93  1  0  0  0
  6 94  1  0  0  0
  7  8  2  0  0  0
  7 26  1  0  0  0
  7 29  1  0  0  0
  8  9  1  0  0  0
  8 22  1  0  0  0
  9 10  1  0  0  0
  9 27  2  0  0  0
 10 11  2  0  0  0
 10 15  1  0  0  0
 11 12  1  0  0  0
 11 95  1  0  0  0
 12 13  2  0  0  0
 12 96  1  0  0  0
 13 14  1  0  0  0
 13 31  1  0  0  0
 14 15  2  0  0  0
 14 97  1  0  0  0
 15 98  1  0  0  0
 16 17  2  0  0  0
 16 21  1  0  0  0
 16 31  1  0  0  0
 17 18  1  0  0  0
 17 99  1  0  0  0
 18 19  2  0  0  0
 18100  1  0  0  0
 19 20  1  0  0  0
 19 24  1  0  0  0
 20 21  2  0  0  0
 20101  1  0  0  0
 21 23  1  0  0  0
 22 28  1  0  0  0
 22 32  2  0  0  0
 26 27  1  0  0  0
 28102  1  0  0  0
 28103  1  0  0  0
 29104  1  0  0  0
 29105  1  0  0  0
 33 34  1  0  0  0
 33 66  1  0  0  0
 33 70  2  0  0  0
 34 36  1  0  0  0
 34 59  1  0  0  0
 34106  1  0  0  0
 35 44  2  0  0  0
 35 45  1  0  0  0
 35 68  1  0  0  0
 36 56  1  0  0  0
 36107  1  0  0  0
 37 39  1  0  0  0
 37 47  1  0  0  0
 37 66  1  0  0  0
 37108  1  0  0  0
 38 43  2  0  0  0
 38 46  1  0  0  0
 38 47  1  0  0  0
 39 64  1  0  0  0
 39 67  2  0  0  0
 40 52  1  0  0  0
 40 53  2  0  0  0
 40 58  1  0  0  0
 41109  1  0  0  0
 41110  1  0  0  0
 41111  1  0  0  0
 41 48  1  0  0  0
 42 43  1  0  0  0
 42 66  1  0  0  0
 42112  1  0  0  0
 42113  1  0  0  0
 43 44  1  0  0  0
 44114  1  0  0  0
 45 46  2  0  0  0
 45115  1  0  0  0
 46116  1  0  0  0
 47117  1  0  0  0
 47118  1  0  0  0
 48 56  1  0  0  0
 48 65  1  0  0  0
 48119  1  0  0  0
 49 50  1  0  0  0
 49 53  1  0  0  0
 49 64  1  0  0  0
 49120  1  0  0  0
 50 51  1  0  0  0
 50121  1  0  0  0
 50122  1  0  0  0
 51 52  1  0  0  0
 51123  1  0  0  0
 51124  1  0  0  0
 52125  1  0  0  0
 52126  1  0  0  0
 53 54  1  0  0  0
 54 55  2  0  0  0
 54127  1  0  0  0
 55 57  1  0  0  0
 55128  1  0  0  0
 56 69  2  0  0  0
 57 58  2  0  0  0
 57129  1  0  0  0
 58130  1  0  0  0
 59 60  1  0  0  0
 59 61  1  0  0  0
 59 62  1  0  0  0
 60131  1  0  0  0
 60132  1  0  0  0
 60133  1  0  0  0
 61134  1  0  0  0
 61135  1  0  0  0
 61136  1  0  0  0
 62137  1  0  0  0
 62138  1  0  0  0
 62139  1  0  0  0
 63 65  1  0  0  0
 63140  1  0  0  0
 63141  1  0  0  0
 63142  1  0  0  0
 64143  1  0  0  0
 65144  1  0  0  0
 68 81  1  0  0  0
 71 72  2  0  0  0
 71 73  1  0  0  0
 71145  1  0  0  0
 72 83  1  0  0  0
 72146  1  0  0  0
 73 74  2  0  0  0
 73 76  1  0  0  0
 74 75  1  0  0  0
 74 78  1  0  0  0
 75 83  2  0  0  0
 75 84  1  0  0  0
 76147  1  0  0  0
 76148  1  0  0  0
 76149  1  0  0  0
 77150  1  0  0  0
 77151  1  0  0  0
 77152  1  0  0  0
 77 82  1  0  0  0
 78 79  1  0  0  0
 78153  1  0  0  0
 78154  1  0  0  0
 79 82  1  0  0  0
 79155  1  0  0  0
 79156  1  0  0  0
 80 81  1  0  0  0
 80 85  1  0  0  0
 80157  1  0  0  0
 80158  1  0  0  0
 81159  1  0  0  0
 81160  1  0  0  0
 82 85  1  0  0  0
 82161  1  0  0  0
 84162  1  0  0  0
 85163  1  0  0  0
 85164  1  0  0  0
M  CHG  1  85   1
M  ISO  4   1 100  68 101  81 101  84 100
M  END
> <chiral flag>
0

> <version>
0

> <s_m_source_file>
/data/baiqing/PycharmProjects/Reinvent-master-3.2/result/LINK_invent/BTK/process_docking_weight1_custom_sum_contain_oxygen_bond_distance_aromatic_linkinvent_7_9_3/rearranged_h_0099.sdf

> <i_m_source_file_index>
42

> <r_mmod_Potential_Energy-OPLS-2005>
-178.84245300293

> <r_mmod_Stretch_Energy-OPLS-2005>
71.5011978149414

> <r_mmod_Bend_Energy-OPLS-2005>
132.152542114258

> <r_mmod_Torsional_Energy-OPLS-2005>
272.991485595703

> <r_mmod_Improper_Torsional_Energy-OPLS-2005>
4.63817501068115

> <r_mmod_Van_der_Waal_Energy-OPLS-2005>
151.877456665039

> <r_mmod_Electrostatic_Energy-OPLS-2005>
-353.904907226562

> <r_mmod_Solvation_Energy-OPLS-2005>
-488.776977539062

> <b_mmod_Minimization_Converged-OPLS-2005>
0

> <r_mmod_RMS_Derivative-OPLS-2005>
3.60977840423584

$$$$
42
                    3D
 Structure written by MMmdl.
149157  0  0  1  0            999 V2000
  -30.4317  -15.1976   20.3832 C   0  0  0  0  0  0
  -30.4510  -12.7572   19.5224 C   0  0  0  0  0  0
  -29.5371  -12.5639   18.2846 C   0  0  0  0  0  0
  -28.0815  -12.2983   18.7097 C   0  0  0  0  0  0
  -27.6199  -13.2640   19.8293 C   0  0  2  0  0  0
  -28.6567  -13.3895   20.9667 C   0  0  0  0  0  0
  -25.2426  -13.8236   20.5725 C   0  0  0  0  0  0
  -24.1766  -13.0442   20.9260 C   0  0  0  0  0  0
  -24.6405  -11.6932   20.8766 C   0  0  0  0  0  0
  -23.9091  -10.4294   21.0408 C   0  0  0  0  0  0
  -24.3632   -9.4203   21.9186 C   0  0  0  0  0  0
  -23.6297   -8.2244   22.0752 C   0  0  0  0  0  0
  -22.4282   -8.0286   21.3540 C   0  0  0  0  0  0
  -21.9924   -9.0265   20.4644 C   0  0  0  0  0  0
  -22.7262  -10.2138   20.3057 C   0  0  0  0  0  0
  -21.6853   -6.0738   22.5281 C   0  0  0  0  0  0
  -21.4013   -6.5637   23.8212 C   0  0  0  0  0  0
  -21.3657   -5.6790   24.9174 C   0  0  0  0  0  0
  -21.6046   -4.3053   24.7223 C   0  0  0  0  0  0
  -21.8821   -3.8147   23.4343 C   0  0  0  0  0  0
  -21.9190   -4.6965   22.3400 C   0  0  0  0  0  0
  -22.7780  -13.5201   21.1901 C   0  0  0  0  0  0
  -22.1661   -4.2152   21.0978 F   0  0  0  0  0  0
  -21.5625   -3.4537   25.7734 F   0  0  0  0  0  0
  -29.9015  -13.8823   20.3566 N   0  0  0  0  0  0
  -26.2850  -12.9489   20.3220 N   0  0  0  0  0  0
  -25.9336  -11.6606   20.5731 N   0  0  0  0  0  0
  -22.0427  -12.8182   22.0442 N   0  0  0  0  0  0
  -25.4060  -15.1966   20.4112 N   0  0  0  0  0  0
  -31.6458  -15.2484   20.1290 O   0  0  0  0  0  0
  -21.6640   -6.8883   21.4243 O   0  0  0  0  0  0
  -22.3466  -14.5501   20.6734 O   0  0  0  0  0  0
  -24.6580  -31.8263   23.1724 C   0  0  0  0  0  0
  -25.9292  -32.4587   23.8166 C   0  0  1  0  0  0
  -27.2159  -26.9671   20.1874 C   0  0  0  0  0  0
  -25.5982  -33.8399   24.2077 N   0  0  0  0  0  0
  -23.4690  -30.4378   21.5212 C   0  0  2  0  0  0
  -24.9225  -28.8303   20.1110 C   0  0  0  0  0  0
  -22.7638  -29.4441   22.4795 C   0  0  0  0  0  0
  -18.0317  -28.1380   22.8445 C   0  0  0  0  0  0
  -24.1502  -36.7211   23.2647 C   0  0  0  0  0  0
  -26.0351  -30.6457   21.3964 C   0  0  0  0  0  0
  -26.1038  -29.2402   20.7414 C   0  0  0  0  0  0
  -27.2462  -28.3287   20.7547 C   0  0  0  0  0  0
  -26.0067  -26.6959   19.5092 C   0  0  0  0  0  0
  -24.8957  -27.5774   19.4758 C   0  0  0  0  0  0
  -23.7064  -29.7537   20.1463 C   0  0  0  0  0  0
  -25.4141  -36.2958   24.0299 C   0  0  1  0  0  0
  -20.5937  -28.3718   23.1192 C   0  0  2  0  0  0
  -20.6791  -26.9404   22.5393 C   0  0  0  0  0  0
  -19.5770  -26.6362   21.5193 C   0  0  0  0  0  0
  -18.1951  -26.7912   22.1600 C   0  0  0  0  0  0
  -19.1581  -28.8873   23.2796 C   0  0  0  0  0  0
  -18.9501  -30.1464   23.8827 C   0  0  0  0  0  0
  -17.6502  -30.6573   24.0540 C   0  0  0  0  0  0
  -25.9100  -34.9342   23.5008 C   0  0  0  0  0  0
  -16.5387  -29.9059   23.6342 C   0  0  0  0  0  0
  -16.7305  -28.6483   23.0349 C   0  0  0  0  0  0
  -26.4564  -31.6522   25.0681 C   0  0  0  0  0  0
  -25.3704  -31.3770   26.1347 C   0  0  0  0  0  0
  -27.0473  -30.2896   24.6392 C   0  0  0  0  0  0
  -27.6042  -32.4356   25.7484 C   0  0  0  0  0  0
  -27.5567  -37.1761   24.8467 C   0  0  0  0  0  0
  -21.4315  -29.3020   22.3552 N   0  0  0  0  0  0
  -26.4282  -37.3691   23.9408 N   0  0  0  0  0  0
  -24.7417  -30.9961   22.0837 N   0  0  0  0  0  0
  -23.4216  -28.8004   23.3008 O   0  0  0  0  0  0
  -28.2340  -25.8944   20.2787 O   0  0  0  0  0  0
  -26.5697  -34.8871   22.4590 O   0  0  0  0  0  0
  -23.5667  -32.1225   23.6842 O   0  0  0  0  0  0
  -28.3057  -18.7146   20.7949 C   0  0  0  0  0  0
  -30.2492  -20.3612   20.0420 C   0  0  0  0  0  0
  -28.0863  -20.1814   20.7864 C   0  0  0  0  0  0
  -29.0747  -21.1644   20.3856 C   0  0  0  0  0  0
  -29.5195  -17.9877   20.4490 C   0  0  0  0  0  0
  -26.7446  -20.6965   21.2712 C   0  0  0  0  0  0
  -29.0668  -22.9046   20.5235 C   0  0  0  0  0  0
  -28.0158  -24.2812   20.1213 C   0  0  0  0  0  0
  -30.4548  -18.9488   20.0672 N   0  0  0  0  0  0
  -29.5779  -16.3853   20.5339 N   0  0  0  0  0  0
  -31.4693  -12.9662   19.1916 H   0  0  0  0  0  0
  -30.5152  -11.8380   20.1070 H   0  0  0  0  0  0
  -29.9033  -11.7431   17.6659 H   0  0  0  0  0  0
  -29.5757  -13.4591   17.6624 H   0  0  0  0  0  0
  -28.0274  -11.2707   19.0710 H   0  0  0  0  0  0
  -27.4129  -12.3566   17.8501 H   0  0  0  0  0  0
  -27.5504  -14.2410   19.3494 H   0  0  0  0  0  0
  -28.8060  -12.4359   21.4754 H   0  0  0  0  0  0
  -28.3097  -14.0921   21.7256 H   0  0  0  0  0  0
  -25.2777   -9.5673   22.4764 H   0  0  0  0  0  0
  -24.0002   -7.4632   22.7474 H   0  0  0  0  0  0
  -21.0852   -8.8791   19.8949 H   0  0  0  0  0  0
  -22.3727  -10.9678   19.6167 H   0  0  0  0  0  0
  -21.2010   -7.6146   23.9718 H   0  0  0  0  0  0
  -21.1474   -6.0517   25.9075 H   0  0  0  0  0  0
  -22.0600   -2.7611   23.2845 H   0  0  0  0  0  0
  -22.4046  -11.9849   22.4833 H   0  0  0  0  0  0
  -21.1040  -13.1200   22.2637 H   0  0  0  0  0  0
  -24.6245  -15.8362   20.5044 H   0  0  0  0  0  0
  -26.2182  -15.6279   19.9917 H   0  0  0  0  0  0
  -26.7343  -32.5135   23.0858 H   0  0  0  0  0  0
  -25.0117  -33.9499   25.0219 H   0  0  0  0  0  0
  -22.7775  -31.2659   21.3504 H   0  0  0  0  0  0
  -23.3764  -35.9539   23.3292 H   0  0  0  0  0  0
  -24.3569  -36.8870   22.2058 H   0  0  0  0  0  0
  -23.7270  -37.6400   23.6718 H   0  0  0  0  0  0
  -26.2128  -31.3892   20.6188 H   0  0  0  0  0  0
  -26.8966  -30.6976   22.0500 H   0  0  0  0  0  0
  -28.1400  -28.6385   21.2775 H   0  0  0  0  0  0
  -25.8860  -25.7360   19.0281 H   0  0  0  0  0  0
  -23.9958  -27.2570   18.9688 H   0  0  0  0  0  0
  -23.8553  -30.5215   19.3858 H   0  0  0  0  0  0
  -22.8177  -29.2036   19.8310 H   0  0  0  0  0  0
  -25.1331  -36.1751   25.0789 H   0  0  0  0  0  0
  -21.0016  -28.3315   24.1319 H   0  0  0  0  0  0
  -20.5665  -26.2327   23.3618 H   0  0  0  0  0  0
  -21.6654  -26.7369   22.1203 H   0  0  0  0  0  0
  -19.6944  -25.6269   21.1234 H   0  0  0  0  0  0
  -19.6731  -27.3150   20.6703 H   0  0  0  0  0  0
  -17.4224  -26.6652   21.4002 H   0  0  0  0  0  0
  -18.0350  -26.0053   22.8995 H   0  0  0  0  0  0
  -19.7989  -30.7276   24.2167 H   0  0  0  0  0  0
  -17.5063  -31.6251   24.5143 H   0  0  0  0  0  0
  -15.5385  -30.2935   23.7714 H   0  0  0  0  0  0
  -15.8698  -28.0781   22.7103 H   0  0  0  0  0  0
  -24.5884  -30.7122   25.7663 H   0  0  0  0  0  0
  -24.8907  -32.2977   26.4674 H   0  0  0  0  0  0
  -25.7943  -30.8999   27.0192 H   0  0  0  0  0  0
  -26.3144  -29.6561   24.1381 H   0  0  0  0  0  0
  -27.4008  -29.7254   25.5034 H   0  0  0  0  0  0
  -27.9065  -30.4086   23.9790 H   0  0  0  0  0  0
  -27.2580  -33.3693   26.1924 H   0  0  0  0  0  0
  -28.3908  -32.6872   25.0360 H   0  0  0  0  0  0
  -28.0641  -31.8592   26.5517 H   0  0  0  0  0  0
  -28.2559  -38.0075   24.7479 H   0  0  0  0  0  0
  -28.1089  -36.2595   24.6337 H   0  0  0  0  0  0
  -27.2277  -37.1429   25.8867 H   0  0  0  0  0  0
  -20.9567  -29.8740   21.6707 H   0  0  0  0  0  0
  -26.0131  -38.2750   24.1422 H   0  0  0  0  0  0
  -27.4720  -18.1054   21.1172 H   0  0  0  0  0  0
  -31.1398  -20.9028   19.7582 H   0  0  0  0  0  0
  -26.1662  -19.9125   21.7609 H   0  0  0  0  0  0
  -26.1581  -21.0787   20.4355 H   0  0  0  0  0  0
  -26.8807  -21.5007   21.9943 H   0  0  0  0  0  0
  -30.0163  -23.1766   20.0629 H   0  0  0  0  0  0
  -29.2554  -23.0401   21.5885 H   0  0  0  0  0  0
  -27.0777  -24.0841   20.6406 H   0  0  0  0  0  0
  -27.7722  -24.1522   19.0669 H   0  0  0  0  0  0
  -28.6621  -16.0372   20.7641 H   0  0  0  0  0  0
  1 25  1  0  0  0
  1 30  2  0  0  0
  1 80  1  0  0  0
  2  3  1  0  0  0
  2 25  1  0  0  0
  2 81  1  0  0  0
  2 82  1  0  0  0
  3  4  1  0  0  0
  3 83  1  0  0  0
  3 84  1  0  0  0
  4  5  1  0  0  0
  4 85  1  0  0  0
  4 86  1  0  0  0
  5  6  1  0  0  0
  5 26  1  0  0  0
  5 87  1  0  0  0
  6 25  1  0  0  0
  6 88  1  0  0  0
  6 89  1  0  0  0
  7  8  2  0  0  0
  7 26  1  0  0  0
  7 29  1  0  0  0
  8  9  1  0  0  0
  8 22  1  0  0  0
  9 10  1  0  0  0
  9 27  2  0  0  0
 10 11  2  0  0  0
 10 15  1  0  0  0
 11 12  1  0  0  0
 11 90  1  0  0  0
 12 13  2  0  0  0
 12 91  1  0  0  0
 13 14  1  0  0  0
 13 31  1  0  0  0
 14 15  2  0  0  0
 14 92  1  0  0  0
 15 93  1  0  0  0
 16 17  2  0  0  0
 16 21  1  0  0  0
 16 31  1  0  0  0
 17 18  1  0  0  0
 17 94  1  0  0  0
 18 19  2  0  0  0
 18 95  1  0  0  0
 19 20  1  0  0  0
 19 24  1  0  0  0
 20 21  2  0  0  0
 20 96  1  0  0  0
 21 23  1  0  0  0
 22 28  1  0  0  0
 22 32  2  0  0  0
 26 27  1  0  0  0
 28 97  1  0  0  0
 28 98  1  0  0  0
 29 99  1  0  0  0
 29100  1  0  0  0
 33 34  1  0  0  0
 33 66  1  0  0  0
 33 70  2  0  0  0
 34 36  1  0  0  0
 34 59  1  0  0  0
 34101  1  0  0  0
 35 44  2  0  0  0
 35 45  1  0  0  0
 35 68  1  0  0  0
 36 56  1  0  0  0
 36102  1  0  0  0
 37 39  1  0  0  0
 37 47  1  0  0  0
 37 66  1  0  0  0
 37103  1  0  0  0
 38 43  2  0  0  0
 38 46  1  0  0  0
 38 47  1  0  0  0
 39 64  1  0  0  0
 39 67  2  0  0  0
 40 52  1  0  0  0
 40 53  2  0  0  0
 40 58  1  0  0  0
 41104  1  0  0  0
 41105  1  0  0  0
 41106  1  0  0  0
 41 48  1  0  0  0
 42 43  1  0  0  0
 42 66  1  0  0  0
 42107  1  0  0  0
 42108  1  0  0  0
 43 44  1  0  0  0
 44109  1  0  0  0
 45 46  2  0  0  0
 45110  1  0  0  0
 46111  1  0  0  0
 47112  1  0  0  0
 47113  1  0  0  0
 48 56  1  0  0  0
 48 65  1  0  0  0
 48114  1  0  0  0
 49 50  1  0  0  0
 49 53  1  0  0  0
 49 64  1  0  0  0
 49115  1  0  0  0
 50 51  1  0  0  0
 50116  1  0  0  0
 50117  1  0  0  0
 51 52  1  0  0  0
 51118  1  0  0  0
 51119  1  0  0  0
 52120  1  0  0  0
 52121  1  0  0  0
 53 54  1  0  0  0
 54 55  2  0  0  0
 54122  1  0  0  0
 55 57  1  0  0  0
 55123  1  0  0  0
 56 69  2  0  0  0
 57 58  2  0  0  0
 57124  1  0  0  0
 58125  1  0  0  0
 59 60  1  0  0  0
 59 61  1  0  0  0
 59 62  1  0  0  0
 60126  1  0  0  0
 60127  1  0  0  0
 60128  1  0  0  0
 61129  1  0  0  0
 61130  1  0  0  0
 61131  1  0  0  0
 62132  1  0  0  0
 62133  1  0  0  0
 62134  1  0  0  0
 63 65  1  0  0  0
 63135  1  0  0  0
 63136  1  0  0  0
 63137  1  0  0  0
 64138  1  0  0  0
 65139  1  0  0  0
 68 78  1  0  0  0
 71 73  2  0  0  0
 71 75  1  0  0  0
 71140  1  0  0  0
 72 74  2  0  0  0
 72 79  1  0  0  0
 72141  1  0  0  0
 73 74  1  0  0  0
 73 76  1  0  0  0
 74 77  1  0  0  0
 75 79  2  0  0  0
 75 80  1  0  0  0
 76142  1  0  0  0
 76143  1  0  0  0
 76144  1  0  0  0
 77 78  1  0  0  0
 77145  1  0  0  0
 77146  1  0  0  0
 78147  1  0  0  0
 78148  1  0  0  0
 80149  1  0  0  0
M  ISO  4   1 100  68 101  78 101  80 100
M  END
> <chiral flag>
0

> <version>
0

> <s_m_source_file>
/data/baiqing/PycharmProjects/Reinvent-master-3.2/result/LINK_invent/BTK/process_docking_weight1_custom_sum_contain_oxygen_bond_distance_aromatic_linkinvent_7_9_3/rearranged_h_0099.sdf

> <i_m_source_file_index>
43

> <r_mmod_Potential_Energy-OPLS-2005>
888.912780761719

> <r_mmod_Stretch_Energy-OPLS-2005>
463.614379882812

> <r_mmod_Bend_Energy-OPLS-2005>
417.274169921875

> <r_mmod_Torsional_Energy-OPLS-2005>
205.229888916016

> <r_mmod_Improper_Torsional_Energy-OPLS-2005>
5.22025871276855

> <r_mmod_Van_der_Waal_Energy-OPLS-2005>
127.984146118164

> <r_mmod_Electrostatic_Energy-OPLS-2005>
-486.985046386719

> <r_mmod_Solvation_Energy-OPLS-2005>
-238.651275634766

> <b_mmod_Minimization_Converged-OPLS-2005>
0

> <r_mmod_RMS_Derivative-OPLS-2005>
1.42732465267181

$$$$
43
                    3D
 Structure written by MMmdl.
156164  0  0  1  0            999 V2000
  -31.1726  -14.3514   21.1570 C   0  0  0  0  0  0
  -29.4690  -14.6747   19.4176 C   0  0  0  0  0  0
  -27.8374  -15.1173   18.1388 C   0  0  0  0  0  0
  -27.1687  -13.9759   18.7913 C   0  0  0  0  0  0
  -27.6377  -13.2895   20.1211 C   0  0  2  0  0  0
  -29.2008  -12.7586   20.6945 C   0  0  0  0  0  0
  -25.2182  -13.8128   20.7700 C   0  0  0  0  0  0
  -24.1174  -13.0407   20.9601 C   0  0  0  0  0  0
  -24.5911  -11.7162   20.8685 C   0  0  0  0  0  0
  -23.8947  -10.4585   21.0568 C   0  0  0  0  0  0
  -24.4166   -9.4657   21.9170 C   0  0  0  0  0  0
  -23.7183   -8.2352   22.0622 C   0  0  0  0  0  0
  -22.4883   -8.0589   21.3427 C   0  0  0  0  0  0
  -22.0549   -9.0361   20.3873 C   0  0  0  0  0  0
  -22.7708  -10.2276   20.2548 C   0  0  0  0  0  0
  -21.7342   -6.1459   22.5323 C   0  0  0  0  0  0
  -21.4545   -6.6129   23.8373 C   0  0  0  0  0  0
  -21.3573   -5.7050   24.9187 C   0  0  0  0  0  0
  -21.6055   -4.3310   24.7059 C   0  0  0  0  0  0
  -21.8819   -3.8711   23.4013 C   0  0  0  0  0  0
  -21.9411   -4.7727   22.3273 C   0  0  0  0  0  0
  -22.6811  -13.4143   21.1798 C   0  0  0  0  0  0
  -22.1780   -4.3188   21.0783 F   0  0  0  0  0  0
  -21.5374   -3.4465   25.7345 F   0  0  0  0  0  0
  -29.7947  -14.1438   20.8458 N   0  0  0  0  0  0
  -26.3439  -12.9339   20.6468 N   0  0  0  0  0  0
  -25.8874  -11.6602   20.5894 N   0  0  0  0  0  0
  -21.9193  -12.6920   22.0512 N   0  0  0  0  0  0
  -25.2102  -15.2273   20.6389 N   0  0  0  0  0  0
  -32.0934  -13.5555   20.8200 O   0  0  0  0  0  0
  -21.6682   -6.9708   21.4442 O   0  0  0  0  0  0
  -22.2305  -14.3894   20.5562 O   0  0  0  0  0  0
  -24.7140  -31.7386   23.0994 C   0  0  0  0  0  0
  -25.9556  -32.3945   23.7739 C   0  0  1  0  0  0
  -27.2011  -25.9344   19.9420 C   0  0  0  0  0  0
  -25.5655  -33.7766   24.1565 N   0  0  0  0  0  0
  -23.5272  -30.2728   21.5662 C   0  0  2  0  0  0
  -24.9374  -28.4584   20.1246 C   0  0  0  0  0  0
  -22.7732  -29.3843   22.6001 C   0  0  0  0  0  0
  -18.0147  -28.1389   22.8592 C   0  0  0  0  0  0
  -24.1577  -36.6552   23.2824 C   0  0  0  0  0  0
  -26.1371  -30.2151   21.4536 C   0  0  0  0  0  0
  -26.1796  -28.6747   20.7580 C   0  0  0  0  0  0
  -27.3033  -27.5004   20.5755 C   0  0  0  0  0  0
  -25.9349  -26.2067   19.2618 C   0  0  0  0  0  0
  -24.9293  -27.2913   19.3151 C   0  0  0  0  0  0
  -23.7371  -29.5126   20.2071 C   0  0  0  0  0  0
  -25.4303  -36.2529   24.0505 C   0  0  1  0  0  0
  -20.5639  -28.3453   23.1607 C   0  0  2  0  0  0
  -20.6790  -26.9233   22.5883 C   0  0  0  0  0  0
  -19.5902  -26.6487   21.5477 C   0  0  0  0  0  0
  -18.1939  -26.7932   22.1755 C   0  0  0  0  0  0
  -19.1368  -28.8870   23.2836 C   0  0  0  0  0  0
  -18.9318  -30.1557   23.8628 C   0  0  0  0  0  0
  -17.6374  -30.6667   24.0594 C   0  0  0  0  0  0
  -25.9265  -34.8935   23.5049 C   0  0  0  0  0  0
  -16.5267  -29.9106   23.6637 C   0  0  0  0  0  0
  -16.7183  -28.6603   23.0545 C   0  0  0  0  0  0
  -26.4598  -31.6015   25.0535 C   0  0  0  0  0  0
  -25.3440  -31.2618   26.0699 C   0  0  0  0  0  0
  -27.0332  -30.2196   24.7027 C   0  0  0  0  0  0
  -27.6321  -32.3726   25.6925 C   0  0  0  0  0  0
  -27.5639  -37.1542   24.8692 C   0  0  0  0  0  0
  -21.4364  -29.2429   22.4192 N   0  0  0  0  0  0
  -26.4485  -37.3274   23.9398 N   0  0  0  0  0  0
  -24.8243  -30.8235   22.0580 N   0  0  0  0  0  0
  -23.3990  -28.7945   23.4905 O   0  0  0  0  0  0
  -28.0255  -24.2884   19.6846 O   0  0  0  0  0  0
  -26.6339  -34.8597   22.4927 O   0  0  0  0  0  0
  -23.6128  -32.0896   23.5686 O   0  0  0  0  0  0
  -30.7629  -14.3421   16.5140 C   0  0  0  0  0  0
  -29.5540  -14.2941   17.2876 C   0  0  0  0  0  0
  -31.4466  -15.6439   16.9674 C   0  0  0  0  0  0
  -30.3766  -17.5714   18.2911 C   0  0  0  0  0  0
  -29.1006  -16.9545   18.6771 C   0  0  1  0  0  0
  -31.5762  -16.6096   18.3416 C   0  0  2  0  0  0
  -28.4203  -19.5742   18.8807 C   0  0  0  0  0  0
  -32.3714  -16.2661   19.9805 C   0  0  0  0  0  0
  -27.9994  -22.0131   19.5819 C   0  0  0  0  0  0
  -31.5203  -15.6571   21.1329 N   0  0  0  0  0  0
  -30.5025  -14.7630   19.0895 H   0  0  0  0  0  0
  -30.4022  -14.0433   19.1989 H   0  0  0  0  0  0
  -27.8808  -15.1280   16.8390 H   0  0  0  0  0  0
  -27.2395  -16.2223   17.4752 H   0  0  0  0  0  0
  -26.5782  -13.3160   18.3013 H   0  0  0  0  0  0
  -26.4763  -14.7611   19.0363 H   0  0  0  0  0  0
  -27.5531  -14.1971   20.6866 H   0  0  0  0  0  0
  -30.0188  -12.0335   20.0286 H   0  0  0  0  0  0
  -29.2001  -12.4316   21.8322 H   0  0  0  0  0  0
  -25.3150   -9.6868   22.5187 H   0  0  0  0  0  0
  -24.0826   -7.5236   22.8163 H   0  0  0  0  0  0
  -21.0986   -8.9998   19.8748 H   0  0  0  0  0  0
  -22.4200  -11.0689   19.6523 H   0  0  0  0  0  0
  -21.3095   -7.6618   24.0665 H   0  0  0  0  0  0
  -21.0864   -6.0255   25.9223 H   0  0  0  0  0  0
  -22.0469   -2.8313   23.1970 H   0  0  0  0  0  0
  -22.1399  -11.8504   22.6202 H   0  0  0  0  0  0
  -21.1152  -13.1678   22.4237 H   0  0  0  0  0  0
  -24.2987  -15.5993   20.6573 H   0  0  0  0  0  0
  -26.0663  -15.8126   20.4092 H   0  0  0  0  0  0
  -26.7546  -32.4259   23.0265 H   0  0  0  0  0  0
  -24.8787  -33.8667   24.8957 H   0  0  0  0  0  0
  -22.8407  -31.1150   21.4196 H   0  0  0  0  0  0
  -23.4128  -35.8519   23.3366 H   0  0  0  0  0  0
  -24.3795  -36.8136   22.2236 H   0  0  0  0  0  0
  -23.7085  -37.5660   23.6861 H   0  0  0  0  0  0
  -26.6216  -30.9916   20.8384 H   0  0  0  0  0  0
  -26.8343  -30.0877   22.2553 H   0  0  0  0  0  0
  -28.3508  -27.8186   20.8109 H   0  0  0  0  0  0
  -25.6442  -25.4601   18.5370 H   0  0  0  0  0  0
  -24.0453  -27.2383   18.6611 H   0  0  0  0  0  0
  -23.8616  -30.3244   19.4606 H   0  0  0  0  0  0
  -22.7600  -29.0114   20.0534 H   0  0  0  0  0  0
  -25.1559  -36.1266   25.1074 H   0  0  0  0  0  0
  -20.9267  -28.2938   24.1791 H   0  0  0  0  0  0
  -20.6178  -26.1846   23.4038 H   0  0  0  0  0  0
  -21.6634  -26.7961   22.1316 H   0  0  0  0  0  0
  -19.7270  -25.6440   21.1525 H   0  0  0  0  0  0
  -19.6864  -27.3400   20.7001 H   0  0  0  0  0  0
  -17.4417  -26.6636   21.4002 H   0  0  0  0  0  0
  -18.0002  -26.0030   22.9031 H   0  0  0  0  0  0
  -19.7778  -30.7450   24.1735 H   0  0  0  0  0  0
  -17.5003  -31.6409   24.5121 H   0  0  0  0  0  0
  -15.5350  -30.3067   23.8158 H   0  0  0  0  0  0
  -15.8469  -28.1132   22.7352 H   0  0  0  0  0  0
  -24.6612  -30.5209   25.6275 H   0  0  0  0  0  0
  -24.7653  -32.1240   26.3980 H   0  0  0  0  0  0
  -25.7563  -30.7737   26.9519 H   0  0  0  0  0  0
  -26.2609  -29.5693   24.2938 H   0  0  0  0  0  0
  -27.3934  -29.6993   25.5924 H   0  0  0  0  0  0
  -27.8682  -30.2631   24.0097 H   0  0  0  0  0  0
  -27.3479  -33.3411   26.0799 H   0  0  0  0  0  0
  -28.4053  -32.5359   24.9402 H   0  0  0  0  0  0
  -28.0854  -31.8269   26.5144 H   0  0  0  0  0  0
  -28.2897  -37.9653   24.7659 H   0  0  0  0  0  0
  -28.0983  -36.2315   24.6585 H   0  0  0  0  0  0
  -27.2385  -37.0947   25.9127 H   0  0  0  0  0  0
  -21.0093  -29.6161   21.5794 H   0  0  0  0  0  0
  -26.0316  -38.2360   24.1037 H   0  0  0  0  0  0
  -30.5881  -14.1131   15.4368 H   0  0  0  0  0  0
  -31.5241  -13.7255   16.8834 H   0  0  0  0  0  0
  -29.6204  -12.8455   17.7098 H   0  0  0  0  0  0
  -28.9304  -13.4277   16.2490 H   0  0  0  0  0  0
  -31.2842  -16.0474   15.9091 H   0  0  0  0  0  0
  -32.4930  -15.2451   17.1533 H   0  0  0  0  0  0
  -30.5762  -18.6228   18.4814 H   0  0  0  0  0  0
  -29.9254  -17.6367   17.2727 H   0  0  0  0  0  0
  -28.6744  -16.9773   19.9900 H   0  0  0  0  0  0
  -32.1761  -17.3082   17.7149 H   0  0  0  0  0  0
  -27.4859  -19.2660   19.4038 H   0  0  0  0  0  0
  -28.3061  -19.6980   17.7955 H   0  0  0  0  0  0
  -33.1766  -16.9212   20.6162 H   0  0  0  0  0  0
  -32.8501  -15.2579   19.9705 H   0  0  0  0  0  0
  -28.0901  -21.8232   20.6658 H   0  0  0  0  0  0
  -26.9054  -21.9373   19.4652 H   0  0  0  0  0  0
  -31.6969  -15.9002   22.1254 H   0  0  0  0  0  0
  1 25  1  0  0  0
  1 30  2  0  0  0
  1 80  1  0  0  0
  2  3  1  0  0  0
  2 25  1  0  0  0
  2 81  1  0  0  0
  2 82  1  0  0  0
  3  4  1  0  0  0
  3 83  1  0  0  0
  3 84  1  0  0  0
  4  5  1  0  0  0
  4 85  1  0  0  0
  4 86  1  0  0  0
  5  6  1  0  0  0
  5 26  1  0  0  0
  5 87  1  0  0  0
  6 25  1  0  0  0
  6 88  1  0  0  0
  6 89  1  0  0  0
  7  8  2  0  0  0
  7 26  1  0  0  0
  7 29  1  0  0  0
  8  9  1  0  0  0
  8 22  1  0  0  0
  9 10  1  0  0  0
  9 27  2  0  0  0
 10 11  2  0  0  0
 10 15  1  0  0  0
 11 12  1  0  0  0
 11 90  1  0  0  0
 12 13  2  0  0  0
 12 91  1  0  0  0
 13 14  1  0  0  0
 13 31  1  0  0  0
 14 15  2  0  0  0
 14 92  1  0  0  0
 15 93  1  0  0  0
 16 17  2  0  0  0
 16 21  1  0  0  0
 16 31  1  0  0  0
 17 18  1  0  0  0
 17 94  1  0  0  0
 18 19  2  0  0  0
 18 95  1  0  0  0
 19 20  1  0  0  0
 19 24  1  0  0  0
 20 21  2  0  0  0
 20 96  1  0  0  0
 21 23  1  0  0  0
 22 28  1  0  0  0
 22 32  2  0  0  0
 26 27  1  0  0  0
 28 97  1  0  0  0
 28 98  1  0  0  0
 29 99  1  0  0  0
 29100  1  0  0  0
 33 34  1  0  0  0
 33 66  1  0  0  0
 33 70  2  0  0  0
 34 36  1  0  0  0
 34 59  1  0  0  0
 34101  1  0  0  0
 35 44  2  0  0  0
 35 45  1  0  0  0
 35 68  1  0  0  0
 36 56  1  0  0  0
 36102  1  0  0  0
 37 39  1  0  0  0
 37 47  1  0  0  0
 37 66  1  0  0  0
 37103  1  0  0  0
 38 43  2  0  0  0
 38 46  1  0  0  0
 38 47  1  0  0  0
 39 64  1  0  0  0
 39 67  2  0  0  0
 40 52  1  0  0  0
 40 53  2  0  0  0
 40 58  1  0  0  0
 41104  1  0  0  0
 41105  1  0  0  0
 41106  1  0  0  0
 41 48  1  0  0  0
 42 43  1  0  0  0
 42 66  1  0  0  0
 42107  1  0  0  0
 42108  1  0  0  0
 43 44  1  0  0  0
 44109  1  0  0  0
 45 46  2  0  0  0
 45110  1  0  0  0
 46111  1  0  0  0
 47112  1  0  0  0
 47113  1  0  0  0
 48 56  1  0  0  0
 48 65  1  0  0  0
 48114  1  0  0  0
 49 50  1  0  0  0
 49 53  1  0  0  0
 49 64  1  0  0  0
 49115  1  0  0  0
 50 51  1  0  0  0
 50116  1  0  0  0
 50117  1  0  0  0
 51 52  1  0  0  0
 51118  1  0  0  0
 51119  1  0  0  0
 52120  1  0  0  0
 52121  1  0  0  0
 53 54  1  0  0  0
 54 55  2  0  0  0
 54122  1  0  0  0
 55 57  1  0  0  0
 55123  1  0  0  0
 56 69  2  0  0  0
 57 58  2  0  0  0
 57124  1  0  0  0
 58125  1  0  0  0
 59 60  1  0  0  0
 59 61  1  0  0  0
 59 62  1  0  0  0
 60126  1  0  0  0
 60127  1  0  0  0
 60128  1  0  0  0
 61129  1  0  0  0
 61130  1  0  0  0
 61131  1  0  0  0
 62132  1  0  0  0
 62133  1  0  0  0
 62134  1  0  0  0
 63 65  1  0  0  0
 63135  1  0  0  0
 63136  1  0  0  0
 63137  1  0  0  0
 64138  1  0  0  0
 65139  1  0  0  0
 68 79  1  0  0  0
 71 72  1  0  0  0
 71 73  1  0  0  0
 71140  1  0  0  0
 71141  1  0  0  0
 72 75  1  0  0  0
 72142  1  0  0  0
 72143  1  0  0  0
 73 76  1  0  0  0
 73144  1  0  0  0
 73145  1  0  0  0
 74 75  1  0  0  0
 74 76  1  0  0  0
 74146  1  0  0  0
 74147  1  0  0  0
 75 77  1  0  0  0
 75148  1  0  0  0
 76 78  1  0  0  0
 76149  1  0  0  0
 77 79  1  0  0  0
 77150  1  0  0  0
 77151  1  0  0  0
 78 80  1  0  0  0
 78152  1  0  0  0
 78153  1  0  0  0
 79154  1  0  0  0
 79155  1  0  0  0
 80156  1  0  0  0
M  ISO  4   1 100  68 101  79 101  80 100
M  END
> <chiral flag>
0

> <version>
0

> <s_m_source_file>
/data/baiqing/PycharmProjects/Reinvent-master-3.2/result/LINK_invent/BTK/process_docking_weight1_custom_sum_contain_oxygen_bond_distance_aromatic_linkinvent_7_9_3/rearranged_h_0099.sdf

> <i_m_source_file_index>
44

> <r_mmod_Potential_Energy-OPLS-2005>
16845.2421875

> <r_mmod_Stretch_Energy-OPLS-2005>
8845.767578125

> <r_mmod_Bend_Energy-OPLS-2005>
2651.72314453125

> <r_mmod_Torsional_Energy-OPLS-2005>
464.930633544922

> <r_mmod_Improper_Torsional_Energy-OPLS-2005>
45.1811370849609

> <r_mmod_Van_der_Waal_Energy-OPLS-2005>
1731.61437988281

> <r_mmod_Electrostatic_Energy-OPLS-2005>
-390.299560546875

> <r_mmod_Solvation_Energy-OPLS-2005>
-210.676773071289

> <b_mmod_Minimization_Converged-OPLS-2005>
0

> <r_mmod_RMS_Derivative-OPLS-2005>
99.9990005493164

$$$$
44
                    3D
 Structure written by MMmdl.
173181  0  0  1  0            999 V2000
  -30.7286  -14.4278   20.5074 C   0  0  0  0  0  0
  -30.4109  -12.2585   19.4305 C   0  0  0  0  0  0
  -29.4868  -12.4903   18.2172 C   0  0  0  0  0  0
  -28.0088  -12.3635   18.6319 C   0  0  0  0  0  0
  -27.6650  -13.2015   19.8917 C   0  0  2  0  0  0
  -28.7161  -13.0012   21.0135 C   0  0  0  0  0  0
  -25.2588  -13.8138   20.5757 C   0  0  0  0  0  0
  -24.1833  -13.0413   20.9202 C   0  0  0  0  0  0
  -24.6395  -11.6896   20.8777 C   0  0  0  0  0  0
  -23.9072  -10.4287   21.0414 C   0  0  0  0  0  0
  -24.3630   -9.4191   21.9196 C   0  0  0  0  0  0
  -23.6294   -8.2239   22.0783 C   0  0  0  0  0  0
  -22.4281   -8.0287   21.3561 C   0  0  0  0  0  0
  -21.9907   -9.0269   20.4657 C   0  0  0  0  0  0
  -22.7248  -10.2138   20.3058 C   0  0  0  0  0  0
  -21.6865   -6.0727   22.5277 C   0  0  0  0  0  0
  -21.4035   -6.5646   23.8204 C   0  0  0  0  0  0
  -21.3646   -5.6802   24.9169 C   0  0  0  0  0  0
  -21.6012   -4.3058   24.7219 C   0  0  0  0  0  0
  -21.8832   -3.8143   23.4350 C   0  0  0  0  0  0
  -21.9207   -4.6955   22.3401 C   0  0  0  0  0  0
  -22.7858  -13.5216   21.1822 C   0  0  0  0  0  0
  -22.1679   -4.2129   21.0983 F   0  0  0  0  0  0
  -21.5587   -3.4550   25.7731 F   0  0  0  0  0  0
  -30.0531  -13.2517   20.4492 N   0  0  0  0  0  0
  -26.3053  -12.9307   20.3538 N   0  0  0  0  0  0
  -25.9339  -11.6474   20.5900 N   0  0  0  0  0  0
  -22.0519  -12.8194   22.0391 N   0  0  0  0  0  0
  -25.4265  -15.1848   20.4191 N   0  0  0  0  0  0
  -31.8800  -14.5837   20.0982 O   0  0  0  0  0  0
  -21.6654   -6.8874   21.4246 O   0  0  0  0  0  0
  -22.3546  -14.5517   20.6665 O   0  0  0  0  0  0
  -24.6102  -31.8705   23.2109 C   0  0  0  0  0  0
  -25.9010  -32.4839   23.8407 C   0  0  1  0  0  0
  -27.2477  -27.4719   20.0962 C   0  0  0  0  0  0
  -25.5881  -33.8645   24.2347 N   0  0  0  0  0  0
  -23.3990  -30.4902   21.5496 C   0  0  2  0  0  0
  -24.8518  -28.9565   20.1179 C   0  0  0  0  0  0
  -22.7400  -29.4667   22.5005 C   0  0  0  0  0  0
  -18.0275  -28.1366   22.8504 C   0  0  0  0  0  0
  -24.1489  -36.7318   23.2638 C   0  0  0  0  0  0
  -25.9225  -30.8487   21.3576 C   0  0  0  0  0  0
  -26.0076  -29.4839   20.7083 C   0  0  0  0  0  0
  -27.2123  -28.7489   20.6924 C   0  0  0  0  0  0
  -26.0803  -26.9448   19.5072 C   0  0  0  0  0  0
  -24.8804  -27.6852   19.5154 C   0  0  0  0  0  0
  -23.6101  -29.8186   20.1655 C   0  0  0  0  0  0
  -25.4105  -36.3127   24.0343 C   0  0  1  0  0  0
  -20.5864  -28.3651   23.1322 C   0  0  2  0  0  0
  -20.6767  -26.9388   22.5432 C   0  0  0  0  0  0
  -19.5755  -26.6378   21.5218 C   0  0  0  0  0  0
  -18.1922  -26.7917   22.1620 C   0  0  0  0  0  0
  -19.1523  -28.8832   23.2913 C   0  0  0  0  0  0
  -18.9455  -30.1425   23.8918 C   0  0  0  0  0  0
  -17.6461  -30.6580   24.0560 C   0  0  0  0  0  0
  -25.9034  -34.9495   23.5149 C   0  0  0  0  0  0
  -16.5355  -29.9077   23.6316 C   0  0  0  0  0  0
  -16.7262  -28.6500   23.0343 C   0  0  0  0  0  0
  -26.4464  -31.6599   25.0714 C   0  0  0  0  0  0
  -25.3733  -31.3683   26.1455 C   0  0  0  0  0  0
  -27.0288  -30.3053   24.6045 C   0  0  0  0  0  0
  -27.6059  -32.4294   25.7473 C   0  0  0  0  0  0
  -27.5588  -37.1810   24.8463 C   0  0  0  0  0  0
  -21.4133  -29.3015   22.3732 N   0  0  0  0  0  0
  -26.4298  -37.3805   23.9414 N   0  0  0  0  0  0
  -24.6617  -31.0822   22.0995 N   0  0  0  0  0  0
  -23.4175  -28.8193   23.3037 O   0  0  0  0  0  0
  -28.4182  -26.7548   20.0715 O   0  0  0  0  0  0
  -26.5589  -34.8938   22.4710 O   0  0  0  0  0  0
  -23.5305  -32.1451   23.7510 O   0  0  0  0  0  0
  -29.9575  -20.1342   20.8578 C   0  0  0  0  0  0
  -31.2797  -18.4862   19.1147 C   0  0  0  0  0  0
  -29.5937  -18.7727   20.8288 C   0  0  0  0  0  0
  -30.2617  -17.9234   19.9132 C   0  0  0  0  0  0
  -30.9538  -20.6103   19.9885 C   0  0  0  0  0  0
  -26.7335  -18.6321   19.8026 C   0  0  0  0  0  0
  -28.7284  -18.5865   23.1935 C   0  0  0  0  0  0
  -29.2537  -22.7437   18.6976 C   0  0  0  0  0  0
  -29.8202  -16.4897   19.6140 C   0  0  0  0  0  0
  -31.3168  -22.0909   19.9541 C   0  0  0  0  0  0
  -27.1090  -18.9467   21.2590 C   0  0  0  0  0  0
  -29.8743  -25.1504   21.1823 C   0  0  0  0  0  0
  -30.5212  -24.4414   19.9726 C   0  0  0  0  0  0
  -28.4310  -25.6507   20.9704 C   0  0  0  0  0  0
  -28.4371  -18.3075   21.7095 C   0  0  1  0  0  0
  -31.6189  -19.7925   19.1439 N   0  0  0  0  0  0
  -29.9309  -15.4866   20.6799 N   0  0  0  0  0  0
  -30.1412  -23.0043   19.8591 N   0  3  1  0  0  0
  -31.4587  -12.3177   19.1332 H   0  0  0  0  0  0
  -30.2761  -11.2529   19.8301 H   0  0  0  0  0  0
  -29.7129  -11.7719   17.4292 H   0  0  0  0  0  0
  -29.6659  -13.4782   17.7885 H   0  0  0  0  0  0
  -27.8088  -11.3092   18.8244 H   0  0  0  0  0  0
  -27.3608  -12.6479   17.8023 H   0  0  0  0  0  0
  -27.6982  -14.2442   19.5811 H   0  0  0  0  0  0
  -28.6747  -11.9848   21.4071 H   0  0  0  0  0  0
  -28.5078  -13.6532   21.8637 H   0  0  0  0  0  0
  -25.2782   -9.5644   22.4761 H   0  0  0  0  0  0
  -23.9968   -7.4636   22.7534 H   0  0  0  0  0  0
  -21.0825   -8.8806   19.8975 H   0  0  0  0  0  0
  -22.3731  -10.9688   19.6155 H   0  0  0  0  0  0
  -21.2076   -7.6165   23.9688 H   0  0  0  0  0  0
  -21.1425   -6.0552   25.9062 H   0  0  0  0  0  0
  -22.0609   -2.7596   23.2879 H   0  0  0  0  0  0
  -22.4156  -11.9854   22.4733 H   0  0  0  0  0  0
  -21.1150  -13.1200   22.2643 H   0  0  0  0  0  0
  -24.6541  -15.8347   20.5232 H   0  0  0  0  0  0
  -26.2734  -15.6256   20.0922 H   0  0  0  0  0  0
  -26.7086  -32.5589   23.1182 H   0  0  0  0  0  0
  -25.0012  -33.9813   25.0480 H   0  0  0  0  0  0
  -22.6858  -31.3049   21.4086 H   0  0  0  0  0  0
  -23.3756  -35.9644   23.3305 H   0  0  0  0  0  0
  -24.3572  -36.8932   22.2052 H   0  0  0  0  0  0
  -23.7239  -37.6524   23.6643 H   0  0  0  0  0  0
  -26.0231  -31.6163   20.5875 H   0  0  0  0  0  0
  -26.8133  -30.9082   21.9712 H   0  0  0  0  0  0
  -28.1095  -29.1576   21.1374 H   0  0  0  0  0  0
  -26.1041  -25.9712   19.0373 H   0  0  0  0  0  0
  -23.9918  -27.2732   19.0584 H   0  0  0  0  0  0
  -23.7155  -30.5927   19.4046 H   0  0  0  0  0  0
  -22.7367  -29.2337   19.8716 H   0  0  0  0  0  0
  -25.1285  -36.2000   25.0833 H   0  0  0  0  0  0
  -20.9947  -28.3221   24.1448 H   0  0  0  0  0  0
  -20.5662  -26.2260   23.3616 H   0  0  0  0  0  0
  -21.6637  -26.7436   22.1226 H   0  0  0  0  0  0
  -19.6909  -25.6289   21.1238 H   0  0  0  0  0  0
  -19.6688  -27.3198   20.6751 H   0  0  0  0  0  0
  -17.4197  -26.6673   21.4014 H   0  0  0  0  0  0
  -18.0314  -26.0045   22.9010 H   0  0  0  0  0  0
  -19.7923  -30.7242   24.2299 H   0  0  0  0  0  0
  -17.5012  -31.6252   24.5162 H   0  0  0  0  0  0
  -15.5351  -30.2993   23.7616 H   0  0  0  0  0  0
  -15.8664  -28.0823   22.7035 H   0  0  0  0  0  0
  -24.5898  -30.7046   25.7774 H   0  0  0  0  0  0
  -24.8917  -32.2831   26.4924 H   0  0  0  0  0  0
  -25.8077  -30.8826   27.0201 H   0  0  0  0  0  0
  -26.2822  -29.6813   24.1104 H   0  0  0  0  0  0
  -27.4106  -29.7274   25.4476 H   0  0  0  0  0  0
  -27.8636  -30.4397   23.9150 H   0  0  0  0  0  0
  -27.2702  -33.3584   26.2087 H   0  0  0  0  0  0
  -28.3841  -32.6864   25.0276 H   0  0  0  0  0  0
  -28.0740  -31.8381   26.5348 H   0  0  0  0  0  0
  -28.2606  -38.0112   24.7522 H   0  0  0  0  0  0
  -28.1092  -36.2646   24.6277 H   0  0  0  0  0  0
  -27.2303  -37.1446   25.8866 H   0  0  0  0  0  0
  -20.9283  -29.8748   21.6972 H   0  0  0  0  0  0
  -26.0200  -38.2891   24.1405 H   0  0  0  0  0  0
  -29.4380  -20.8123   21.5173 H   0  0  0  0  0  0
  -31.7987  -17.8874   18.3801 H   0  0  0  0  0  0
  -25.7952  -19.1136   19.5283 H   0  0  0  0  0  0
  -26.6009  -17.5639   19.6515 H   0  0  0  0  0  0
  -27.4932  -18.9751   19.1002 H   0  0  0  0  0  0
  -29.6690  -18.1298   23.4994 H   0  0  0  0  0  0
  -27.9486  -18.1750   23.8325 H   0  0  0  0  0  0
  -28.7934  -19.6541   23.4029 H   0  0  0  0  0  0
  -28.7230  -21.7985   18.8122 H   0  0  0  0  0  0
  -29.8015  -22.7127   17.7564 H   0  0  0  0  0  0
  -28.4904  -23.5190   18.6155 H   0  0  0  0  0  0
  -30.3287  -16.1405   18.7120 H   0  0  0  0  0  0
  -28.7715  -16.5219   19.3222 H   0  0  0  0  0  0
  -32.0073  -22.2883   19.1317 H   0  0  0  0  0  0
  -31.8619  -22.3034   20.8745 H   0  0  0  0  0  0
  -26.3024  -18.6048   21.9074 H   0  0  0  0  0  0
  -27.1630  -20.0271   21.3797 H   0  0  0  0  0  0
  -30.4862  -26.0136   21.4442 H   0  0  0  0  0  0
  -29.9143  -24.4977   22.0536 H   0  0  0  0  0  0
  -31.6037  -24.5209   20.0859 H   0  0  0  0  0  0
  -30.3017  -24.9861   19.0533 H   0  0  0  0  0  0
  -28.0305  -25.9698   21.9378 H   0  0  0  0  0  0
  -27.7836  -24.8506   20.6096 H   0  0  0  0  0  0
  -28.3143  -17.2323   21.6263 H   0  0  0  0  0  0
  -29.0632  -15.2544   21.1365 H   0  0  0  0  0  0
  -29.5945  -22.7808   20.6756 H   0  0  0  0  0  0
  1 25  1  0  0  0
  1 30  2  0  0  0
  1 87  1  0  0  0
  2  3  1  0  0  0
  2 25  1  0  0  0
  2 89  1  0  0  0
  2 90  1  0  0  0
  3  4  1  0  0  0
  3 91  1  0  0  0
  3 92  1  0  0  0
  4  5  1  0  0  0
  4 93  1  0  0  0
  4 94  1  0  0  0
  5  6  1  0  0  0
  5 26  1  0  0  0
  5 95  1  0  0  0
  6 25  1  0  0  0
  6 96  1  0  0  0
  6 97  1  0  0  0
  7  8  2  0  0  0
  7 26  1  0  0  0
  7 29  1  0  0  0
  8  9  1  0  0  0
  8 22  1  0  0  0
  9 10  1  0  0  0
  9 27  2  0  0  0
 10 11  2  0  0  0
 10 15  1  0  0  0
 11 12  1  0  0  0
 11 98  1  0  0  0
 12 13  2  0  0  0
 12 99  1  0  0  0
 13 14  1  0  0  0
 13 31  1  0  0  0
 14 15  2  0  0  0
 14100  1  0  0  0
 15101  1  0  0  0
 16 17  2  0  0  0
 16 21  1  0  0  0
 16 31  1  0  0  0
 17 18  1  0  0  0
 17102  1  0  0  0
 18 19  2  0  0  0
 18103  1  0  0  0
 19 20  1  0  0  0
 19 24  1  0  0  0
 20 21  2  0  0  0
 20104  1  0  0  0
 21 23  1  0  0  0
 22 28  1  0  0  0
 22 32  2  0  0  0
 26 27  1  0  0  0
 28105  1  0  0  0
 28106  1  0  0  0
 29107  1  0  0  0
 29108  1  0  0  0
 33 34  1  0  0  0
 33 66  1  0  0  0
 33 70  2  0  0  0
 34 36  1  0  0  0
 34 59  1  0  0  0
 34109  1  0  0  0
 35 44  2  0  0  0
 35 45  1  0  0  0
 35 68  1  0  0  0
 36 56  1  0  0  0
 36110  1  0  0  0
 37 39  1  0  0  0
 37 47  1  0  0  0
 37 66  1  0  0  0
 37111  1  0  0  0
 38 43  2  0  0  0
 38 46  1  0  0  0
 38 47  1  0  0  0
 39 64  1  0  0  0
 39 67  2  0  0  0
 40 52  1  0  0  0
 40 53  2  0  0  0
 40 58  1  0  0  0
 41112  1  0  0  0
 41113  1  0  0  0
 41114  1  0  0  0
 41 48  1  0  0  0
 42 43  1  0  0  0
 42 66  1  0  0  0
 42115  1  0  0  0
 42116  1  0  0  0
 43 44  1  0  0  0
 44117  1  0  0  0
 45 46  2  0  0  0
 45118  1  0  0  0
 46119  1  0  0  0
 47120  1  0  0  0
 47121  1  0  0  0
 48 56  1  0  0  0
 48 65  1  0  0  0
 48122  1  0  0  0
 49 50  1  0  0  0
 49 53  1  0  0  0
 49 64  1  0  0  0
 49123  1  0  0  0
 50 51  1  0  0  0
 50124  1  0  0  0
 50125  1  0  0  0
 51 52  1  0  0  0
 51126  1  0  0  0
 51127  1  0  0  0
 52128  1  0  0  0
 52129  1  0  0  0
 53 54  1  0  0  0
 54 55  2  0  0  0
 54130  1  0  0  0
 55 57  1  0  0  0
 55131  1  0  0  0
 56 69  2  0  0  0
 57 58  2  0  0  0
 57132  1  0  0  0
 58133  1  0  0  0
 59 60  1  0  0  0
 59 61  1  0  0  0
 59 62  1  0  0  0
 60134  1  0  0  0
 60135  1  0  0  0
 60136  1  0  0  0
 61137  1  0  0  0
 61138  1  0  0  0
 61139  1  0  0  0
 62140  1  0  0  0
 62141  1  0  0  0
 62142  1  0  0  0
 63 65  1  0  0  0
 63143  1  0  0  0
 63144  1  0  0  0
 63145  1  0  0  0
 64146  1  0  0  0
 65147  1  0  0  0
 68 84  1  0  0  0
 71 73  2  0  0  0
 71 75  1  0  0  0
 71148  1  0  0  0
 72 74  2  0  0  0
 72 86  1  0  0  0
 72149  1  0  0  0
 73 74  1  0  0  0
 73 85  1  0  0  0
 74 79  1  0  0  0
 75 80  1  0  0  0
 75 86  2  0  0  0
 76 81  1  0  0  0
 76150  1  0  0  0
 76151  1  0  0  0
 76152  1  0  0  0
 77153  1  0  0  0
 77154  1  0  0  0
 77155  1  0  0  0
 77 85  1  0  0  0
 78156  1  0  0  0
 78157  1  0  0  0
 78158  1  0  0  0
 78 88  1  0  0  0
 79 87  1  0  0  0
 79159  1  0  0  0
 79160  1  0  0  0
 80 88  1  0  0  0
 80161  1  0  0  0
 80162  1  0  0  0
 81 85  1  0  0  0
 81163  1  0  0  0
 81164  1  0  0  0
 82 83  1  0  0  0
 82 84  1  0  0  0
 82165  1  0  0  0
 82166  1  0  0  0
 83 88  1  0  0  0
 83167  1  0  0  0
 83168  1  0  0  0
 84169  1  0  0  0
 84170  1  0  0  0
 85171  1  0  0  0
 87172  1  0  0  0
 88173  1  0  0  0
M  CHG  1  88   1
M  ISO  4   1 100  68 101  84 101  87 100
M  END
> <chiral flag>
0

> <version>
0

> <s_m_source_file>
/data/baiqing/PycharmProjects/Reinvent-master-3.2/result/LINK_invent/BTK/process_docking_weight1_custom_sum_contain_oxygen_bond_distance_aromatic_linkinvent_7_9_3/rearranged_h_0099.sdf

> <i_m_source_file_index>
45

> <r_mmod_Potential_Energy-OPLS-2005>
-316.914672851562

> <r_mmod_Stretch_Energy-OPLS-2005>
34.1619262695312

> <r_mmod_Bend_Energy-OPLS-2005>
99.0780639648438

> <r_mmod_Torsional_Energy-OPLS-2005>
283.660980224609

> <r_mmod_Improper_Torsional_Energy-OPLS-2005>
14.8313159942627

> <r_mmod_Van_der_Waal_Energy-OPLS-2005>
147.084625244141

> <r_mmod_Electrostatic_Energy-OPLS-2005>
-458.142761230469

> <r_mmod_Solvation_Energy-OPLS-2005>
-449.651763916016

> <b_mmod_Minimization_Converged-OPLS-2005>
0

> <r_mmod_RMS_Derivative-OPLS-2005>
3.74164581298828

$$$$
45
                    3D
 Structure written by MMmdl.
170178  0  0  1  0            999 V2000
  -30.5997  -14.8723   20.5001 C   0  0  0  0  0  0
  -30.4501  -12.5800   19.4393 C   0  0  0  0  0  0
  -29.4996  -12.5525   18.2209 C   0  0  0  0  0  0
  -28.0317  -12.3584   18.6449 C   0  0  0  0  0  0
  -27.6464  -13.2355   19.8634 C   0  0  2  0  0  0
  -28.7092  -13.1242   20.9727 C   0  0  0  0  0  0
  -25.2551  -13.8188   20.5723 C   0  0  0  0  0  0
  -24.1840  -13.0415   20.9229 C   0  0  0  0  0  0
  -24.6456  -11.6913   20.8764 C   0  0  0  0  0  0
  -23.9131  -10.4280   21.0418 C   0  0  0  0  0  0
  -24.3651   -9.4194   21.9194 C   0  0  0  0  0  0
  -23.6308   -8.2239   22.0765 C   0  0  0  0  0  0
  -22.4290   -8.0289   21.3543 C   0  0  0  0  0  0
  -21.9938   -9.0285   20.4655 C   0  0  0  0  0  0
  -22.7298  -10.2157   20.3072 C   0  0  0  0  0  0
  -21.6867   -6.0745   22.5269 C   0  0  0  0  0  0
  -21.4020   -6.5645   23.8198 C   0  0  0  0  0  0
  -21.3648   -5.6799   24.9163 C   0  0  0  0  0  0
  -21.6044   -4.3061   24.7214 C   0  0  0  0  0  0
  -21.8823   -3.8160   23.4339 C   0  0  0  0  0  0
  -21.9199   -4.6970   22.3397 C   0  0  0  0  0  0
  -22.7865  -13.5210   21.1848 C   0  0  0  0  0  0
  -22.1672   -4.2152   21.0974 F   0  0  0  0  0  0
  -21.5623   -3.4543   25.7736 F   0  0  0  0  0  0
  -29.9680  -13.6287   20.3903 N   0  0  0  0  0  0
  -26.3003  -12.9399   20.3405 N   0  0  0  0  0  0
  -25.9394  -11.6532   20.5806 N   0  0  0  0  0  0
  -22.0512  -12.8201   22.0405 N   0  0  0  0  0  0
  -25.4170  -15.1893   20.4069 N   0  0  0  0  0  0
  -31.7882  -14.9094   20.1523 O   0  0  0  0  0  0
  -21.6648   -6.8891   21.4231 O   0  0  0  0  0  0
  -22.3552  -14.5508   20.6713 O   0  0  0  0  0  0
  -24.6385  -31.8492   23.1900 C   0  0  0  0  0  0
  -25.9190  -32.4704   23.8283 C   0  0  1  0  0  0
  -27.2093  -27.1741   20.1439 C   0  0  0  0  0  0
  -25.5958  -33.8509   24.2198 N   0  0  0  0  0  0
  -23.4378  -30.4708   21.5319 C   0  0  2  0  0  0
  -24.8861  -28.9007   20.1083 C   0  0  0  0  0  0
  -22.7530  -29.4582   22.4837 C   0  0  0  0  0  0
  -18.0299  -28.1368   22.8481 C   0  0  0  0  0  0
  -24.1481  -36.7253   23.2639 C   0  0  0  0  0  0
  -25.9916  -30.7300   21.3845 C   0  0  0  0  0  0
  -26.0616  -29.3470   20.7242 C   0  0  0  0  0  0
  -27.2270  -28.4985   20.7245 C   0  0  0  0  0  0
  -26.0098  -26.8148   19.4900 C   0  0  0  0  0  0
  -24.8693  -27.6471   19.4786 C   0  0  0  0  0  0
  -23.6625  -29.8008   20.1496 C   0  0  0  0  0  0
  -25.4130  -36.3029   24.0305 C   0  0  1  0  0  0
  -20.5917  -28.3718   23.1232 C   0  0  2  0  0  0
  -20.6789  -26.9415   22.5408 C   0  0  0  0  0  0
  -19.5760  -26.6376   21.5201 C   0  0  0  0  0  0
  -18.1929  -26.7919   22.1614 C   0  0  0  0  0  0
  -19.1549  -28.8862   23.2856 C   0  0  0  0  0  0
  -18.9492  -30.1464   23.8863 C   0  0  0  0  0  0
  -17.6490  -30.6576   24.0573 C   0  0  0  0  0  0
  -25.9094  -34.9397   23.5064 C   0  0  0  0  0  0
  -16.5393  -29.9074   23.6346 C   0  0  0  0  0  0
  -16.7282  -28.6504   23.0352 C   0  0  0  0  0  0
  -26.4526  -31.6557   25.0713 C   0  0  0  0  0  0
  -25.3719  -31.3724   26.1421 C   0  0  0  0  0  0
  -27.0402  -30.2956   24.6281 C   0  0  0  0  0  0
  -27.6080  -32.4306   25.7464 C   0  0  0  0  0  0
  -27.5567  -37.1792   24.8465 C   0  0  0  0  0  0
  -21.4228  -29.3052   22.3588 N   0  0  0  0  0  0
  -26.4278  -37.3754   23.9411 N   0  0  0  0  0  0
  -24.7066  -31.0391   22.0890 N   0  0  0  0  0  0
  -23.4187  -28.8125   23.2960 O   0  0  0  0  0  0
  -28.2747  -26.2228   20.2156 O   0  0  0  0  0  0
  -26.5659  -34.8891   22.4636 O   0  0  0  0  0  0
  -23.5539  -32.1349   23.7186 O   0  0  0  0  0  0
  -29.1354  -21.1939   19.1777 C   0  0  0  0  0  0
  -29.4478  -19.7546   21.4580 C   0  0  0  0  0  0
  -29.4794  -19.7854   19.1083 C   0  0  0  0  0  0
  -29.7093  -18.9849   20.2825 C   0  0  0  0  0  0
  -28.9897  -21.9119   20.4061 C   0  0  0  0  0  0
  -29.6938  -19.1711   17.7333 C   0  0  0  0  0  0
  -30.5951  -25.1454   23.8979 C   0  0  0  0  0  0
  -31.7392  -23.2197   20.2870 C   0  0  0  0  0  0
  -28.7746  -16.2798   21.5921 C   0  0  0  0  0  0
  -30.4593  -17.5167   20.2823 C   0  0  0  0  0  0
  -29.7042  -25.2141   22.6473 C   0  0  0  0  0  0
  -30.4515  -23.9332   19.8258 C   0  0  0  0  0  0
  -29.3553  -23.8014   22.1259 C   0  0  0  0  0  0
  -28.0301  -24.6991   20.1070 C   0  0  0  0  0  0
  -29.1509  -23.5603   20.5904 C   0  0  2  0  0  0
  -29.1052  -21.0956   21.5098 N   0  0  0  0  0  0
  -29.9077  -16.1125   20.6810 N   0  0  0  0  0  0
  -31.4647  -12.7715   19.0865 H   0  0  0  0  0  0
  -30.5010  -11.6050   19.9224 H   0  0  0  0  0  0
  -29.7949  -11.7604   17.5315 H   0  0  0  0  0  0
  -29.5946  -13.4888   17.6671 H   0  0  0  0  0  0
  -27.8936  -11.3033   18.8896 H   0  0  0  0  0  0
  -27.3664  -12.5661   17.8049 H   0  0  0  0  0  0
  -27.6451  -14.2672   19.5121 H   0  0  0  0  0  0
  -28.8217  -12.0829   21.2746 H   0  0  0  0  0  0
  -28.4066  -13.6105   21.8892 H   0  0  0  0  0  0
  -25.2790   -9.5654   22.4774 H   0  0  0  0  0  0
  -24.0016   -7.4617   22.7477 H   0  0  0  0  0  0
  -21.0880   -8.8826   19.8940 H   0  0  0  0  0  0
  -22.3774  -10.9710   19.6188 H   0  0  0  0  0  0
  -21.2018   -7.6145   23.9699 H   0  0  0  0  0  0
  -21.1462   -6.0528   25.9058 H   0  0  0  0  0  0
  -22.0615   -2.7616   23.2846 H   0  0  0  0  0  0
  -22.4148  -11.9910   22.4845 H   0  0  0  0  0  0
  -21.1105  -13.1200   22.2538 H   0  0  0  0  0  0
  -24.6477  -15.8415   20.5153 H   0  0  0  0  0  0
  -26.2699  -15.6300   20.0843 H   0  0  0  0  0  0
  -26.7242  -32.5308   23.1005 H   0  0  0  0  0  0
  -25.0113  -33.9633   25.0352 H   0  0  0  0  0  0
  -22.7380  -31.2947   21.3809 H   0  0  0  0  0  0
  -23.3737  -35.9578   23.3299 H   0  0  0  0  0  0
  -24.3553  -36.8908   22.2051 H   0  0  0  0  0  0
  -23.7256  -37.6464   23.6683 H   0  0  0  0  0  0
  -26.1419  -31.4799   20.6082 H   0  0  0  0  0  0
  -26.8668  -30.7821   22.0197 H   0  0  0  0  0  0
  -28.1260  -28.8316   21.2256 H   0  0  0  0  0  0
  -25.9255  -25.8531   19.0033 H   0  0  0  0  0  0
  -23.9700  -27.3003   18.9877 H   0  0  0  0  0  0
  -23.8017  -30.5763   19.3951 H   0  0  0  0  0  0
  -22.7777  -29.2432   19.8388 H   0  0  0  0  0  0
  -25.1303  -36.1852   25.0786 H   0  0  0  0  0  0
  -21.0026  -28.3311   24.1358 H   0  0  0  0  0  0
  -20.5665  -26.2318   23.3623 H   0  0  0  0  0  0
  -21.6653  -26.7384   22.1215 H   0  0  0  0  0  0
  -19.6910  -25.6276   21.1228 H   0  0  0  0  0  0
  -19.6685  -27.3185   20.6721 H   0  0  0  0  0  0
  -17.4209  -26.6673   21.4007 H   0  0  0  0  0  0
  -18.0338  -26.0034   22.8992 H   0  0  0  0  0  0
  -19.7974  -30.7290   24.2183 H   0  0  0  0  0  0
  -17.5056  -31.6243   24.5187 H   0  0  0  0  0  0
  -15.5396  -30.2983   23.7663 H   0  0  0  0  0  0
  -15.8689  -28.0829   22.7049 H   0  0  0  0  0  0
  -24.5923  -30.7030   25.7776 H   0  0  0  0  0  0
  -24.8855  -32.2881   26.4796 H   0  0  0  0  0  0
  -25.8029  -30.8974   27.0242 H   0  0  0  0  0  0
  -26.3034  -29.6670   24.1284 H   0  0  0  0  0  0
  -27.4040  -29.7265   25.4854 H   0  0  0  0  0  0
  -27.8898  -30.4204   23.9558 H   0  0  0  0  0  0
  -27.2720  -33.3657   26.1942 H   0  0  0  0  0  0
  -28.3917  -32.6807   25.0294 H   0  0  0  0  0  0
  -28.0678  -31.8484   26.5462 H   0  0  0  0  0  0
  -28.2596  -38.0078   24.7525 H   0  0  0  0  0  0
  -28.1055  -36.2633   24.6273 H   0  0  0  0  0  0
  -27.2276  -37.1418   25.8861 H   0  0  0  0  0  0
  -20.9414  -29.8822   21.6839 H   0  0  0  0  0  0
  -26.0135  -38.2803   24.1474 H   0  0  0  0  0  0
  -29.0907  -21.7572   18.2559 H   0  0  0  0  0  0
  -29.6098  -19.3040   22.4243 H   0  0  0  0  0  0
  -29.3349  -19.8310   16.9416 H   0  0  0  0  0  0
  -29.1623  -18.2239   17.6440 H   0  0  0  0  0  0
  -30.7543  -18.9920   17.5559 H   0  0  0  0  0  0
  -30.7712  -26.1374   24.3181 H   0  0  0  0  0  0
  -31.5705  -24.7096   23.6665 H   0  0  0  0  0  0
  -30.1433  -24.5284   24.6778 H   0  0  0  0  0  0
  -32.5221  -23.3047   19.5323 H   0  0  0  0  0  0
  -31.5828  -22.1550   20.4698 H   0  0  0  0  0  0
  -32.1129  -23.6603   21.2114 H   0  0  0  0  0  0
  -27.8444  -16.3534   21.0301 H   0  0  0  0  0  0
  -28.8685  -17.1842   22.1913 H   0  0  0  0  0  0
  -28.7060  -15.5100   22.3464 H   0  0  0  0  0  0
  -31.3242  -17.6692   20.9322 H   0  0  0  0  0  0
  -30.9170  -17.3826   19.3024 H   0  0  0  0  0  0
  -30.2181  -25.8136   21.8975 H   0  0  0  0  0  0
  -28.7813  -25.7406   22.8876 H   0  0  0  0  0  0
  -30.2938  -23.7086   18.7717 H   0  0  0  0  0  0
  -30.6233  -25.0090   19.8495 H   0  0  0  0  0  0
  -28.4636  -23.4597   22.6527 H   0  0  0  0  0  0
  -30.1534  -23.1439   22.4633 H   0  0  0  0  0  0
  -27.1003  -24.4867   20.6314 H   0  0  0  0  0  0
  -27.8121  -24.5071   19.0579 H   0  0  0  0  0  0
  1 25  1  0  0  0
  1 30  2  0  0  0
  1 87  1  0  0  0
  2  3  1  0  0  0
  2 25  1  0  0  0
  2 88  1  0  0  0
  2 89  1  0  0  0
  3  4  1  0  0  0
  3 90  1  0  0  0
  3 91  1  0  0  0
  4  5  1  0  0  0
  4 92  1  0  0  0
  4 93  1  0  0  0
  5  6  1  0  0  0
  5 26  1  0  0  0
  5 94  1  0  0  0
  6 25  1  0  0  0
  6 95  1  0  0  0
  6 96  1  0  0  0
  7  8  2  0  0  0
  7 26  1  0  0  0
  7 29  1  0  0  0
  8  9  1  0  0  0
  8 22  1  0  0  0
  9 10  1  0  0  0
  9 27  2  0  0  0
 10 11  2  0  0  0
 10 15  1  0  0  0
 11 12  1  0  0  0
 11 97  1  0  0  0
 12 13  2  0  0  0
 12 98  1  0  0  0
 13 14  1  0  0  0
 13 31  1  0  0  0
 14 15  2  0  0  0
 14 99  1  0  0  0
 15100  1  0  0  0
 16 17  2  0  0  0
 16 21  1  0  0  0
 16 31  1  0  0  0
 17 18  1  0  0  0
 17101  1  0  0  0
 18 19  2  0  0  0
 18102  1  0  0  0
 19 20  1  0  0  0
 19 24  1  0  0  0
 20 21  2  0  0  0
 20103  1  0  0  0
 21 23  1  0  0  0
 22 28  1  0  0  0
 22 32  2  0  0  0
 26 27  1  0  0  0
 28104  1  0  0  0
 28105  1  0  0  0
 29106  1  0  0  0
 29107  1  0  0  0
 33 34  1  0  0  0
 33 66  1  0  0  0
 33 70  2  0  0  0
 34 36  1  0  0  0
 34 59  1  0  0  0
 34108  1  0  0  0
 35 44  2  0  0  0
 35 45  1  0  0  0
 35 68  1  0  0  0
 36 56  1  0  0  0
 36109  1  0  0  0
 37 39  1  0  0  0
 37 47  1  0  0  0
 37 66  1  0  0  0
 37110  1  0  0  0
 38 43  2  0  0  0
 38 46  1  0  0  0
 38 47  1  0  0  0
 39 64  1  0  0  0
 39 67  2  0  0  0
 40 52  1  0  0  0
 40 53  2  0  0  0
 40 58  1  0  0  0
 41111  1  0  0  0
 41112  1  0  0  0
 41113  1  0  0  0
 41 48  1  0  0  0
 42 43  1  0  0  0
 42 66  1  0  0  0
 42114  1  0  0  0
 42115  1  0  0  0
 43 44  1  0  0  0
 44116  1  0  0  0
 45 46  2  0  0  0
 45117  1  0  0  0
 46118  1  0  0  0
 47119  1  0  0  0
 47120  1  0  0  0
 48 56  1  0  0  0
 48 65  1  0  0  0
 48121  1  0  0  0
 49 50  1  0  0  0
 49 53  1  0  0  0
 49 64  1  0  0  0
 49122  1  0  0  0
 50 51  1  0  0  0
 50123  1  0  0  0
 50124  1  0  0  0
 51 52  1  0  0  0
 51125  1  0  0  0
 51126  1  0  0  0
 52127  1  0  0  0
 52128  1  0  0  0
 53 54  1  0  0  0
 54 55  2  0  0  0
 54129  1  0  0  0
 55 57  1  0  0  0
 55130  1  0  0  0
 56 69  2  0  0  0
 57 58  2  0  0  0
 57131  1  0  0  0
 58132  1  0  0  0
 59 60  1  0  0  0
 59 61  1  0  0  0
 59 62  1  0  0  0
 60133  1  0  0  0
 60134  1  0  0  0
 60135  1  0  0  0
 61136  1  0  0  0
 61137  1  0  0  0
 61138  1  0  0  0
 62139  1  0  0  0
 62140  1  0  0  0
 62141  1  0  0  0
 63 65  1  0  0  0
 63142  1  0  0  0
 63143  1  0  0  0
 63144  1  0  0  0
 64145  1  0  0  0
 65146  1  0  0  0
 68 84  1  0  0  0
 71 73  2  0  0  0
 71 75  1  0  0  0
 71147  1  0  0  0
 72 74  2  0  0  0
 72 86  1  0  0  0
 72148  1  0  0  0
 73 74  1  0  0  0
 73 76  1  0  0  0
 74 80  1  0  0  0
 75 85  1  0  0  0
 75 86  2  0  0  0
 76149  1  0  0  0
 76150  1  0  0  0
 76151  1  0  0  0
 77 81  1  0  0  0
 77152  1  0  0  0
 77153  1  0  0  0
 77154  1  0  0  0
 78 82  1  0  0  0
 78155  1  0  0  0
 78156  1  0  0  0
 78157  1  0  0  0
 79 87  1  0  0  0
 79158  1  0  0  0
 79159  1  0  0  0
 79160  1  0  0  0
 80 87  1  0  0  0
 80161  1  0  0  0
 80162  1  0  0  0
 81 83  1  0  0  0
 81163  1  0  0  0
 81164  1  0  0  0
 82165  1  0  0  0
 82166  1  0  0  0
 82 85  1  0  0  0
 83 85  1  0  0  0
 83167  1  0  0  0
 83168  1  0  0  0
 84 85  1  0  0  0
 84169  1  0  0  0
 84170  1  0  0  0
M  ISO  4   1 100  68 101  84 101  87 100
M  END
> <chiral flag>
0

> <version>
0

> <s_m_source_file>
/data/baiqing/PycharmProjects/Reinvent-master-3.2/result/LINK_invent/BTK/process_docking_weight1_custom_sum_contain_oxygen_bond_distance_aromatic_linkinvent_7_9_3/rearranged_h_0099.sdf

> <i_m_source_file_index>
46

> <r_mmod_Potential_Energy-OPLS-2005>
523.093933105469

> <r_mmod_Stretch_Energy-OPLS-2005>
222.384002685547

> <r_mmod_Bend_Energy-OPLS-2005>
266.205505371094

> <r_mmod_Torsional_Energy-OPLS-2005>
296.548370361328

> <r_mmod_Improper_Torsional_Energy-OPLS-2005>
13.4740285873413

> <r_mmod_Van_der_Waal_Energy-OPLS-2005>
155.110794067383

> <r_mmod_Electrostatic_Energy-OPLS-2005>
-372.228179931641

> <r_mmod_Solvation_Energy-OPLS-2005>
-198.874389648438

> <b_mmod_Minimization_Converged-OPLS-2005>
0

> <r_mmod_RMS_Derivative-OPLS-2005>
5.4151554107666

$$$$
46
                    3D
 Structure written by MMmdl.
171178  0  0  1  0            999 V2000
  -30.5669  -14.9436   20.3139 C   0  0  0  0  0  0
  -30.4271  -12.5653   19.4850 C   0  0  0  0  0  0
  -29.5074  -12.4745   18.2461 C   0  0  0  0  0  0
  -28.0406  -12.2783   18.6771 C   0  0  0  0  0  0
  -27.6132  -13.2187   19.8322 C   0  0  2  0  0  0
  -28.6698  -13.3196   20.9480 C   0  0  0  0  0  0
  -25.2434  -13.8066   20.5797 C   0  0  0  0  0  0
  -24.1739  -13.0329   20.9282 C   0  0  0  0  0  0
  -24.6346  -11.6808   20.8816 C   0  0  0  0  0  0
  -23.9034  -10.4211   21.0461 C   0  0  0  0  0  0
  -24.3580   -9.4119   21.9227 C   0  0  0  0  0  0
  -23.6263   -8.2158   22.0755 C   0  0  0  0  0  0
  -22.4256   -8.0209   21.3535 C   0  0  0  0  0  0
  -21.9896   -9.0195   20.4643 C   0  0  0  0  0  0
  -22.7215  -10.2078   20.3087 C   0  0  0  0  0  0
  -21.6819   -6.0698   22.5280 C   0  0  0  0  0  0
  -21.3979   -6.5618   23.8211 C   0  0  0  0  0  0
  -21.3680   -5.6784   24.9191 C   0  0  0  0  0  0
  -21.6062   -4.3048   24.7245 C   0  0  0  0  0  0
  -21.8813   -3.8122   23.4373 C   0  0  0  0  0  0
  -21.9186   -4.6930   22.3420 C   0  0  0  0  0  0
  -22.7751  -13.5092   21.1925 C   0  0  0  0  0  0
  -22.1654   -4.2119   21.1000 F   0  0  0  0  0  0
  -21.5670   -3.4539   25.7771 F   0  0  0  0  0  0
  -29.9450  -13.6969   20.3245 N   0  0  0  0  0  0
  -26.2823  -12.9246   20.3341 N   0  0  0  0  0  0
  -25.9269  -11.6407   20.5849 N   0  0  0  0  0  0
  -22.0392  -12.8111   22.0483 N   0  0  0  0  0  0
  -25.4048  -15.1805   20.4236 N   0  0  0  0  0  0
  -31.8006  -14.9119   20.2734 O   0  0  0  0  0  0
  -21.6602   -6.8827   21.4229 O   0  0  0  0  0  0
  -22.3453  -14.5401   20.6743 O   0  0  0  0  0  0
  -24.6378  -31.8491   23.1898 C   0  0  0  0  0  0
  -25.9167  -32.4726   23.8279 C   0  0  1  0  0  0
  -27.2165  -27.1614   20.1688 C   0  0  0  0  0  0
  -25.5937  -33.8532   24.2227 N   0  0  0  0  0  0
  -23.4416  -30.4624   21.5385 C   0  0  2  0  0  0
  -24.8900  -28.8835   20.1291 C   0  0  0  0  0  0
  -22.7535  -29.4545   22.4928 C   0  0  0  0  0  0
  -18.0288  -28.1389   22.8467 C   0  0  0  0  0  0
  -24.1495  -36.7257   23.2645 C   0  0  0  0  0  0
  -25.9925  -30.7322   21.3827 C   0  0  0  0  0  0
  -26.0669  -29.3375   20.7403 C   0  0  0  0  0  0
  -27.2367  -28.4928   20.7382 C   0  0  0  0  0  0
  -26.0136  -26.7895   19.5362 C   0  0  0  0  0  0
  -24.8713  -27.6188   19.5178 C   0  0  0  0  0  0
  -23.6653  -29.7826   20.1624 C   0  0  0  0  0  0
  -25.4128  -36.3049   24.0321 C   0  0  1  0  0  0
  -20.5902  -28.3710   23.1263 C   0  0  2  0  0  0
  -20.6789  -26.9426   22.5409 C   0  0  0  0  0  0
  -19.5773  -26.6384   21.5208 C   0  0  0  0  0  0
  -18.1946  -26.7926   22.1607 C   0  0  0  0  0  0
  -19.1545  -28.8864   23.2855 C   0  0  0  0  0  0
  -18.9461  -30.1466   23.8875 C   0  0  0  0  0  0
  -17.6461  -30.6599   24.0544 C   0  0  0  0  0  0
  -25.9075  -34.9420   23.5079 C   0  0  0  0  0  0
  -16.5352  -29.9080   23.6348 C   0  0  0  0  0  0
  -16.7271  -28.6493   23.0370 C   0  0  0  0  0  0
  -26.4520  -31.6558   25.0688 C   0  0  0  0  0  0
  -25.3703  -31.3677   26.1372 C   0  0  0  0  0  0
  -27.0405  -30.2980   24.6207 C   0  0  0  0  0  0
  -27.6087  -32.4294   25.7445 C   0  0  0  0  0  0
  -27.5597  -37.1771   24.8465 C   0  0  0  0  0  0
  -21.4241  -29.3025   22.3649 N   0  0  0  0  0  0
  -26.4300  -37.3756   23.9412 N   0  0  0  0  0  0
  -24.7106  -31.0358   22.0927 N   0  0  0  0  0  0
  -23.4190  -28.8115   23.3090 O   0  0  0  0  0  0
  -28.3176  -26.2637   20.0316 O   0  0  0  0  0  0
  -26.5674  -34.8888   22.4665 O   0  0  0  0  0  0
  -23.5511  -32.1352   23.7132 O   0  0  0  0  0  0
  -27.2303  -23.9693   15.4690 C   0  0  0  0  0  0
  -28.7836  -16.2838   18.8058 C   0  0  0  0  0  0
  -30.6187  -19.6017   19.0104 C   0  0  0  0  0  0
  -28.7303  -17.6333   21.8631 C   0  0  0  0  0  0
  -27.0540  -22.9289   16.5803 C   0  0  0  0  0  0
  -28.0503  -23.1069   17.7372 C   0  0  0  0  0  0
  -27.9834  -21.9353   18.7393 C   0  0  0  0  0  0
  -28.0977  -23.3752   20.7629 C   0  0  0  0  0  0
  -29.0358  -20.7826   20.7308 C   0  0  0  0  0  0
  -28.5949  -24.9763   20.8233 C   0  0  0  0  0  0
  -29.8933  -16.4130   19.8656 C   0  0  1  0  0  0
  -29.4250  -19.3318   19.9513 C   0  0  2  0  0  0
  -29.7285  -17.8509   20.7171 C   0  0  1  0  0  0
  -28.7665  -22.1656   19.9870 N   0  3  1  0  0  0
  -31.4647  -12.6928   19.1740 H   0  0  0  0  0  0
  -30.3963  -11.6331   20.0503 H   0  0  0  0  0  0
  -29.8095  -11.6421   17.6100 H   0  0  0  0  0  0
  -29.6066  -13.3673   17.6299 H   0  0  0  0  0  0
  -27.9396  -11.2405   18.9976 H   0  0  0  0  0  0
  -27.3709  -12.4038   17.8248 H   0  0  0  0  0  0
  -27.5211  -14.1885   19.3739 H   0  0  0  0  0  0
  -28.7645  -12.3756   21.4880 H   0  0  0  0  0  0
  -28.3827  -14.0727   21.6831 H   0  0  0  0  0  0
  -25.2705   -9.5597   22.4841 H   0  0  0  0  0  0
  -23.9964   -7.4532   22.7468 H   0  0  0  0  0  0
  -21.0834   -8.8718   19.8936 H   0  0  0  0  0  0
  -22.3667  -10.9640   19.6233 H   0  0  0  0  0  0
  -21.1908   -7.6117   23.9704 H   0  0  0  0  0  0
  -21.1539   -6.0525   25.9104 H   0  0  0  0  0  0
  -22.0571   -2.7578   23.2891 H   0  0  0  0  0  0
  -22.3976  -11.9787   22.4930 H   0  0  0  0  0  0
  -21.1009  -13.1163   22.2684 H   0  0  0  0  0  0
  -24.6303  -15.8210   20.5559 H   0  0  0  0  0  0
  -26.2583  -15.6356   20.1300 H   0  0  0  0  0  0
  -26.7226  -32.5370   23.1002 H   0  0  0  0  0  0
  -25.0002  -33.9646   25.0319 H   0  0  0  0  0  0
  -22.7413  -31.2860   21.3828 H   0  0  0  0  0  0
  -23.3778  -35.9569   23.3280 H   0  0  0  0  0  0
  -24.3579  -36.8931   22.2071 H   0  0  0  0  0  0
  -23.7224  -37.6424   23.6704 H   0  0  0  0  0  0
  -26.1331  -31.4814   20.6023 H   0  0  0  0  0  0
  -26.8685  -30.7924   22.0163 H   0  0  0  0  0  0
  -28.1522  -28.8505   21.1886 H   0  0  0  0  0  0
  -25.9580  -25.8288   19.0425 H   0  0  0  0  0  0
  -23.9700  -27.2682   19.0340 H   0  0  0  0  0  0
  -23.7923  -30.5507   19.3988 H   0  0  0  0  0  0
  -22.7810  -29.2168   19.8634 H   0  0  0  0  0  0
  -25.1304  -36.1890   25.0814 H   0  0  0  0  0  0
  -20.9966  -28.3285   24.1394 H   0  0  0  0  0  0
  -20.5734  -26.2292   23.3599 H   0  0  0  0  0  0
  -21.6653  -26.7471   22.1191 H   0  0  0  0  0  0
  -19.6962  -25.6288   21.1253 H   0  0  0  0  0  0
  -19.6742  -27.3186   20.6728 H   0  0  0  0  0  0
  -17.4224  -26.6663   21.4006 H   0  0  0  0  0  0
  -18.0349  -26.0085   22.9010 H   0  0  0  0  0  0
  -19.7939  -30.7281   24.2261 H   0  0  0  0  0  0
  -17.5013  -31.6288   24.5126 H   0  0  0  0  0  0
  -15.5357  -30.2968   23.7713 H   0  0  0  0  0  0
  -15.8655  -28.0805   22.7131 H   0  0  0  0  0  0
  -24.5922  -30.7010   25.7636 H   0  0  0  0  0  0
  -24.8825  -32.2806   26.4785 H   0  0  0  0  0  0
  -25.7980  -30.8837   27.0160 H   0  0  0  0  0  0
  -26.3007  -29.6663   24.1273 H   0  0  0  0  0  0
  -27.4133  -29.7301   25.4737 H   0  0  0  0  0  0
  -27.8843  -30.4263   23.9429 H   0  0  0  0  0  0
  -27.2771  -33.3646   26.1951 H   0  0  0  0  0  0
  -28.3914  -32.6763   25.0267 H   0  0  0  0  0  0
  -28.0715  -31.8447   26.5401 H   0  0  0  0  0  0
  -28.2570  -38.0119   24.7580 H   0  0  0  0  0  0
  -28.1148  -36.2641   24.6219 H   0  0  0  0  0  0
  -27.2302  -37.1317   25.8865 H   0  0  0  0  0  0
  -20.9481  -29.8656   21.6746 H   0  0  0  0  0  0
  -26.0177  -38.2821   24.1447 H   0  0  0  0  0  0
  -26.4483  -23.8656   14.7155 H   0  0  0  0  0  0
  -28.1905  -23.8504   14.9672 H   0  0  0  0  0  0
  -27.1774  -24.9835   15.8618 H   0  0  0  0  0  0
  -28.8408  -17.0930   18.0776 H   0  0  0  0  0  0
  -27.7858  -16.3303   19.2398 H   0  0  0  0  0  0
  -28.8855  -15.3712   18.2220 H   0  0  0  0  0  0
  -30.4909  -20.5057   18.4171 H   0  0  0  0  0  0
  -30.7585  -18.7862   18.3010 H   0  0  0  0  0  0
  -31.5485  -19.7145   19.5682 H   0  0  0  0  0  0
  -29.0704  -16.8348   22.5209 H   0  0  0  0  0  0
  -27.7397  -17.3591   21.4984 H   0  0  0  0  0  0
  -28.6268  -18.5281   22.4767 H   0  0  0  0  0  0
  -27.1534  -21.9298   16.1507 H   0  0  0  0  0  0
  -26.0371  -22.9962   16.9724 H   0  0  0  0  0  0
  -27.8364  -24.0594   18.2222 H   0  0  0  0  0  0
  -29.0660  -23.1787   17.3466 H   0  0  0  0  0  0
  -28.3264  -21.0461   18.2167 H   0  0  0  0  0  0
  -26.9485  -21.7185   19.0086 H   0  0  0  0  0  0
  -27.0162  -23.3519   20.6302 H   0  0  0  0  0  0
  -28.2139  -23.0636   21.8020 H   0  0  0  0  0  0
  -29.8192  -20.9795   21.4616 H   0  0  0  0  0  0
  -28.1460  -20.5888   21.3286 H   0  0  0  0  0  0
  -29.6823  -24.9424   20.8892 H   0  0  0  0  0  0
  -28.2967  -25.2868   21.8263 H   0  0  0  0  0  0
  -30.7150  -16.7069   19.2148 H   0  0  0  0  0  0
  -28.5604  -19.1256   19.3188 H   0  0  0  0  0  0
  -30.6938  -17.9867   21.2085 H   0  0  0  0  0  0
  -29.6818  -22.4780   19.6944 H   0  0  0  0  0  0
  1 25  1  0  0  0
  1 30  2  0  0  0
  1 81  1  0  0  0
  2  3  1  0  0  0
  2 25  1  0  0  0
  2 85  1  0  0  0
  2 86  1  0  0  0
  3  4  1  0  0  0
  3 87  1  0  0  0
  3 88  1  0  0  0
  4  5  1  0  0  0
  4 89  1  0  0  0
  4 90  1  0  0  0
  5  6  1  0  0  0
  5 26  1  0  0  0
  5 91  1  0  0  0
  6 25  1  0  0  0
  6 92  1  0  0  0
  6 93  1  0  0  0
  7  8  2  0  0  0
  7 26  1  0  0  0
  7 29  1  0  0  0
  8  9  1  0  0  0
  8 22  1  0  0  0
  9 10  1  0  0  0
  9 27  2  0  0  0
 10 11  2  0  0  0
 10 15  1  0  0  0
 11 12  1  0  0  0
 11 94  1  0  0  0
 12 13  2  0  0  0
 12 95  1  0  0  0
 13 14  1  0  0  0
 13 31  1  0  0  0
 14 15  2  0  0  0
 14 96  1  0  0  0
 15 97  1  0  0  0
 16 17  2  0  0  0
 16 21  1  0  0  0
 16 31  1  0  0  0
 17 18  1  0  0  0
 17 98  1  0  0  0
 18 19  2  0  0  0
 18 99  1  0  0  0
 19 20  1  0  0  0
 19 24  1  0  0  0
 20 21  2  0  0  0
 20100  1  0  0  0
 21 23  1  0  0  0
 22 28  1  0  0  0
 22 32  2  0  0  0
 26 27  1  0  0  0
 28101  1  0  0  0
 28102  1  0  0  0
 29103  1  0  0  0
 29104  1  0  0  0
 33 34  1  0  0  0
 33 66  1  0  0  0
 33 70  2  0  0  0
 34 36  1  0  0  0
 34 59  1  0  0  0
 34105  1  0  0  0
 35 44  2  0  0  0
 35 45  1  0  0  0
 35 68  1  0  0  0
 36 56  1  0  0  0
 36106  1  0  0  0
 37 39  1  0  0  0
 37 47  1  0  0  0
 37 66  1  0  0  0
 37107  1  0  0  0
 38 43  2  0  0  0
 38 46  1  0  0  0
 38 47  1  0  0  0
 39 64  1  0  0  0
 39 67  2  0  0  0
 40 52  1  0  0  0
 40 53  2  0  0  0
 40 58  1  0  0  0
 41108  1  0  0  0
 41109  1  0  0  0
 41110  1  0  0  0
 41 48  1  0  0  0
 42 43  1  0  0  0
 42 66  1  0  0  0
 42111  1  0  0  0
 42112  1  0  0  0
 43 44  1  0  0  0
 44113  1  0  0  0
 45 46  2  0  0  0
 45114  1  0  0  0
 46115  1  0  0  0
 47116  1  0  0  0
 47117  1  0  0  0
 48 56  1  0  0  0
 48 65  1  0  0  0
 48118  1  0  0  0
 49 50  1  0  0  0
 49 53  1  0  0  0
 49 64  1  0  0  0
 49119  1  0  0  0
 50 51  1  0  0  0
 50120  1  0  0  0
 50121  1  0  0  0
 51 52  1  0  0  0
 51122  1  0  0  0
 51123  1  0  0  0
 52124  1  0  0  0
 52125  1  0  0  0
 53 54  1  0  0  0
 54 55  2  0  0  0
 54126  1  0  0  0
 55 57  1  0  0  0
 55127  1  0  0  0
 56 69  2  0  0  0
 57 58  2  0  0  0
 57128  1  0  0  0
 58129  1  0  0  0
 59 60  1  0  0  0
 59 61  1  0  0  0
 59 62  1  0  0  0
 60130  1  0  0  0
 60131  1  0  0  0
 60132  1  0  0  0
 61133  1  0  0  0
 61134  1  0  0  0
 61135  1  0  0  0
 62136  1  0  0  0
 62137  1  0  0  0
 62138  1  0  0  0
 63 65  1  0  0  0
 63139  1  0  0  0
 63140  1  0  0  0
 63141  1  0  0  0
 64142  1  0  0  0
 65143  1  0  0  0
 68 80  1  0  0  0
 71 75  1  0  0  0
 71144  1  0  0  0
 71145  1  0  0  0
 71146  1  0  0  0
 72147  1  0  0  0
 72148  1  0  0  0
 72149  1  0  0  0
 72 81  1  0  0  0
 73150  1  0  0  0
 73151  1  0  0  0
 73152  1  0  0  0
 73 82  1  0  0  0
 74153  1  0  0  0
 74154  1  0  0  0
 74155  1  0  0  0
 74 83  1  0  0  0
 75 76  1  0  0  0
 75156  1  0  0  0
 75157  1  0  0  0
 76 77  1  0  0  0
 76158  1  0  0  0
 76159  1  0  0  0
 77160  1  0  0  0
 77161  1  0  0  0
 77 84  1  0  0  0
 78 80  1  0  0  0
 78 84  1  0  0  0
 78162  1  0  0  0
 78163  1  0  0  0
 79 82  1  0  0  0
 79 84  1  0  0  0
 79164  1  0  0  0
 79165  1  0  0  0
 80166  1  0  0  0
 80167  1  0  0  0
 81 83  1  0  0  0
 81168  1  0  0  0
 82 83  1  0  0  0
 82169  1  0  0  0
 83170  1  0  0  0
 84171  1  0  0  0
M  CHG  1  84   1
M  ISO  4   1 100  68 101  80 101  81 100
M  END
> <chiral flag>
0

> <version>
0

> <s_m_source_file>
/data/baiqing/PycharmProjects/Reinvent-master-3.2/result/LINK_invent/BTK/process_docking_weight1_custom_sum_contain_oxygen_bond_distance_aromatic_linkinvent_7_9_3/rearranged_h_0099.sdf

> <i_m_source_file_index>
47

> <r_mmod_Potential_Energy-OPLS-2005>
650.598205566406

> <r_mmod_Stretch_Energy-OPLS-2005>
262.933990478516

> <r_mmod_Bend_Energy-OPLS-2005>
359.609497070312

> <r_mmod_Torsional_Energy-OPLS-2005>
276.769653320312

> <r_mmod_Improper_Torsional_Energy-OPLS-2005>
13.4991798400879

> <r_mmod_Van_der_Waal_Energy-OPLS-2005>
107.541877746582

> <r_mmod_Electrostatic_Energy-OPLS-2005>
-153.08984375

> <r_mmod_Solvation_Energy-OPLS-2005>
-395.04248046875

> <b_mmod_Minimization_Converged-OPLS-2005>
0

> <r_mmod_RMS_Derivative-OPLS-2005>
3.48669838905334

$$$$
47
                    3D
 Structure written by MMmdl.
169177  0  0  1  0            999 V2000
  -30.6206  -14.7645   20.4364 C   0  0  0  0  0  0
  -30.4275  -12.4629   19.4910 C   0  0  0  0  0  0
  -29.5080  -12.5277   18.2502 C   0  0  0  0  0  0
  -28.0439  -12.3286   18.6697 C   0  0  0  0  0  0
  -27.6477  -13.2351   19.8652 C   0  0  2  0  0  0
  -28.6910  -13.1899   21.0099 C   0  0  0  0  0  0
  -25.2532  -13.8204   20.5685 C   0  0  0  0  0  0
  -24.1816  -13.0463   20.9225 C   0  0  0  0  0  0
  -24.6413  -11.6944   20.8785 C   0  0  0  0  0  0
  -23.9063  -10.4321   21.0427 C   0  0  0  0  0  0
  -24.3618   -9.4234   21.9196 C   0  0  0  0  0  0
  -23.6307   -8.2270   22.0767 C   0  0  0  0  0  0
  -22.4284   -8.0308   21.3561 C   0  0  0  0  0  0
  -21.9922   -9.0273   20.4650 C   0  0  0  0  0  0
  -22.7246  -10.2160   20.3060 C   0  0  0  0  0  0
  -21.6869   -6.0742   22.5283 C   0  0  0  0  0  0
  -21.4020   -6.5645   23.8212 C   0  0  0  0  0  0
  -21.3665   -5.6793   24.9173 C   0  0  0  0  0  0
  -21.6058   -4.3057   24.7228 C   0  0  0  0  0  0
  -21.8818   -3.8146   23.4354 C   0  0  0  0  0  0
  -21.9193   -4.6964   22.3405 C   0  0  0  0  0  0
  -22.7834  -13.5258   21.1873 C   0  0  0  0  0  0
  -22.1665   -4.2154   21.0985 F   0  0  0  0  0  0
  -21.5639   -3.4541   25.7739 F   0  0  0  0  0  0
  -30.0028  -13.5273   20.4381 N   0  0  0  0  0  0
  -26.2973  -12.9405   20.3358 N   0  0  0  0  0  0
  -25.9341  -11.6557   20.5827 N   0  0  0  0  0  0
  -22.0478  -12.8223   22.0407 N   0  0  0  0  0  0
  -25.4220  -15.1908   20.4004 N   0  0  0  0  0  0
  -31.7524  -14.8608   19.9651 O   0  0  0  0  0  0
  -21.6670   -6.8893   21.4238 O   0  0  0  0  0  0
  -22.3526  -14.5561   20.6721 O   0  0  0  0  0  0
  -24.6302  -31.8563   23.2008 C   0  0  0  0  0  0
  -25.9136  -32.4752   23.8345 C   0  0  1  0  0  0
  -27.2204  -27.2792   20.1154 C   0  0  0  0  0  0
  -25.5939  -33.8565   24.2257 N   0  0  0  0  0  0
  -23.4257  -30.4787   21.5449 C   0  0  2  0  0  0
  -24.8720  -28.9249   20.1114 C   0  0  0  0  0  0
  -22.7490  -29.4591   22.4932 C   0  0  0  0  0  0
  -18.0292  -28.1377   22.8497 C   0  0  0  0  0  0
  -24.1482  -36.7272   23.2641 C   0  0  0  0  0  0
  -25.9717  -30.7694   21.3836 C   0  0  0  0  0  0
  -26.0437  -29.3952   20.7191 C   0  0  0  0  0  0
  -27.2230  -28.5848   20.7092 C   0  0  0  0  0  0
  -26.0295  -26.8702   19.4813 C   0  0  0  0  0  0
  -24.8690  -27.6697   19.4822 C   0  0  0  0  0  0
  -23.6433  -29.8128   20.1605 C   0  0  0  0  0  0
  -25.4107  -36.3060   24.0323 C   0  0  1  0  0  0
  -20.5896  -28.3687   23.1277 C   0  0  2  0  0  0
  -20.6787  -26.9405   22.5412 C   0  0  0  0  0  0
  -19.5759  -26.6379   21.5221 C   0  0  0  0  0  0
  -18.1937  -26.7924   22.1623 C   0  0  0  0  0  0
  -19.1545  -28.8853   23.2891 C   0  0  0  0  0  0
  -18.9465  -30.1452   23.8904 C   0  0  0  0  0  0
  -17.6455  -30.6589   24.0561 C   0  0  0  0  0  0
  -25.9053  -34.9436   23.5091 C   0  0  0  0  0  0
  -16.5357  -29.9087   23.6336 C   0  0  0  0  0  0
  -16.7279  -28.6489   23.0371 C   0  0  0  0  0  0
  -26.4523  -31.6599   25.0748 C   0  0  0  0  0  0
  -25.3747  -31.3761   26.1473 C   0  0  0  0  0  0
  -27.0388  -30.3003   24.6272 C   0  0  0  0  0  0
  -27.6029  -32.4401   25.7545 C   0  0  0  0  0  0
  -27.5576  -37.1788   24.8455 C   0  0  0  0  0  0
  -21.4199  -29.3039   22.3659 N   0  0  0  0  0  0
  -26.4277  -37.3775   23.9425 N   0  0  0  0  0  0
  -24.6934  -31.0520   22.0980 N   0  0  0  0  0  0
  -23.4194  -28.8129   23.3019 O   0  0  0  0  0  0
  -28.3252  -26.4031   20.1077 O   0  0  0  0  0  0
  -26.5613  -34.8912   22.4654 O   0  0  0  0  0  0
  -23.5444  -32.1386   23.7291 O   0  0  0  0  0  0
  -31.4193  -20.7226   20.4987 C   0  0  0  0  0  0
  -32.4611  -19.9077   20.8080 C   0  0  0  0  0  0
  -31.9304  -18.5823   20.8939 C   0  0  0  0  0  0
  -30.6027  -18.5851   20.4981 C   0  0  0  0  0  0
  -32.7774  -17.3911   21.2641 C   0  0  0  0  0  0
  -34.0754  -21.8519   21.2124 C   0  0  0  0  0  0
  -34.8038  -19.8848   19.8297 C   0  0  0  0  0  0
  -27.8640  -23.5738   18.4447 C   0  0  0  0  0  0
  -29.7371  -17.2963   20.1671 C   0  0  0  0  0  0
  -28.7521  -22.2770   20.5574 C   0  0  0  0  0  0
  -29.0281  -20.7952   19.9033 C   0  0  0  0  0  0
  -28.1384  -24.9859   20.5646 C   0  0  0  0  0  0
  -33.9145  -20.3360   21.0012 C   0  0  0  0  0  0
  -28.6794  -23.6939   19.7448 C   0  0  2  0  0  0
  -30.2548  -19.9986   20.3306 N   0  0  0  0  0  0
  -29.8903  -15.8913   20.7947 N   0  0  0  0  0  0
  -31.4711  -12.5675   19.1938 H   0  0  0  0  0  0
  -30.3593  -11.4830   19.9657 H   0  0  0  0  0  0
  -29.7960  -11.7712   17.5180 H   0  0  0  0  0  0
  -29.6141  -13.4942   17.7554 H   0  0  0  0  0  0
  -27.9256  -11.2798   18.9423 H   0  0  0  0  0  0
  -27.3743  -12.5005   17.8279 H   0  0  0  0  0  0
  -27.6397  -14.2535   19.4762 H   0  0  0  0  0  0
  -28.7207  -12.2067   21.4802 H   0  0  0  0  0  0
  -28.4191  -13.8932   21.8002 H   0  0  0  0  0  0
  -25.2756   -9.5753   22.4781 H   0  0  0  0  0  0
  -24.0060   -7.4659   22.7469 H   0  0  0  0  0  0
  -21.0885   -8.8768   19.8933 H   0  0  0  0  0  0
  -22.3691  -10.9702   19.6190 H   0  0  0  0  0  0
  -21.2015   -7.6152   23.9701 H   0  0  0  0  0  0
  -21.1490   -6.0542   25.9078 H   0  0  0  0  0  0
  -22.0586   -2.7611   23.2847 H   0  0  0  0  0  0
  -22.4091  -11.9900   22.4828 H   0  0  0  0  0  0
  -21.1089  -13.1215   22.2573 H   0  0  0  0  0  0
  -24.6607  -15.8493   20.5213 H   0  0  0  0  0  0
  -26.2581  -15.6155   20.0178 H   0  0  0  0  0  0
  -26.7193  -32.5403   23.1069 H   0  0  0  0  0  0
  -25.0147  -33.9711   25.0441 H   0  0  0  0  0  0
  -22.7211  -31.3007   21.4001 H   0  0  0  0  0  0
  -23.3765  -35.9580   23.3276 H   0  0  0  0  0  0
  -24.3557  -36.8933   22.2062 H   0  0  0  0  0  0
  -23.7212  -37.6443   23.6697 H   0  0  0  0  0  0
  -26.1217  -31.5364   20.6219 H   0  0  0  0  0  0
  -26.8406  -30.8032   22.0292 H   0  0  0  0  0  0
  -28.1226  -28.9408   21.1912 H   0  0  0  0  0  0
  -25.9949  -25.9140   18.9778 H   0  0  0  0  0  0
  -23.9750  -27.3104   18.9906 H   0  0  0  0  0  0
  -23.7661  -30.5914   19.4067 H   0  0  0  0  0  0
  -22.7616  -29.2486   19.8535 H   0  0  0  0  0  0
  -25.1296  -36.1894   25.0810 H   0  0  0  0  0  0
  -20.9991  -28.3271   24.1399 H   0  0  0  0  0  0
  -20.5714  -26.2295   23.3617 H   0  0  0  0  0  0
  -21.6655  -26.7448   22.1193 H   0  0  0  0  0  0
  -19.6924  -25.6288   21.1264 H   0  0  0  0  0  0
  -19.6699  -27.3186   20.6751 H   0  0  0  0  0  0
  -17.4213  -26.6696   21.4014 H   0  0  0  0  0  0
  -18.0313  -26.0052   22.9000 H   0  0  0  0  0  0
  -19.7936  -30.7271   24.2280 H   0  0  0  0  0  0
  -17.5011  -31.6267   24.5155 H   0  0  0  0  0  0
  -15.5352  -30.2986   23.7639 H   0  0  0  0  0  0
  -15.8685  -28.0797   22.7111 H   0  0  0  0  0  0
  -24.5859  -30.7189   25.7798 H   0  0  0  0  0  0
  -24.9031  -32.2952   26.4964 H   0  0  0  0  0  0
  -25.8058  -30.8872   27.0215 H   0  0  0  0  0  0
  -26.2976  -29.6728   24.1297 H   0  0  0  0  0  0
  -27.4042  -29.7305   25.4828 H   0  0  0  0  0  0
  -27.8878  -30.4267   23.9544 H   0  0  0  0  0  0
  -27.2544  -33.3669   26.2130 H   0  0  0  0  0  0
  -28.3833  -32.7045   25.0394 H   0  0  0  0  0  0
  -28.0711  -31.8561   26.5477 H   0  0  0  0  0  0
  -28.2564  -38.0118   24.7545 H   0  0  0  0  0  0
  -28.1108  -36.2651   24.6231 H   0  0  0  0  0  0
  -27.2300  -37.1368   25.8857 H   0  0  0  0  0  0
  -20.9372  -29.8761   21.6864 H   0  0  0  0  0  0
  -26.0147  -38.2833   24.1458 H   0  0  0  0  0  0
  -31.4151  -21.7942   20.3442 H   0  0  0  0  0  0
  -33.1466  -16.9025   20.3636 H   0  0  0  0  0  0
  -32.2248  -16.6827   21.8779 H   0  0  0  0  0  0
  -33.6500  -17.6822   21.8466 H   0  0  0  0  0  0
  -33.4982  -22.1938   22.0703 H   0  0  0  0  0  0
  -33.7523  -22.4190   20.3383 H   0  0  0  0  0  0
  -35.1202  -22.1093   21.3977 H   0  0  0  0  0  0
  -34.7309  -18.8125   19.6516 H   0  0  0  0  0  0
  -35.8516  -20.1051   20.0397 H   0  0  0  0  0  0
  -34.5431  -20.3934   18.9003 H   0  0  0  0  0  0
  -28.2798  -22.8228   17.7735 H   0  0  0  0  0  0
  -27.8660  -24.5203   17.8999 H   0  0  0  0  0  0
  -26.8220  -23.3191   18.6385 H   0  0  0  0  0  0
  -29.8109  -17.1344   19.0919 H   0  0  0  0  0  0
  -28.6901  -17.5584   20.3237 H   0  0  0  0  0  0
  -29.4530  -22.4153   21.3804 H   0  0  0  0  0  0
  -27.7938  -22.1917   21.0717 H   0  0  0  0  0  0
  -29.0764  -20.8924   18.8202 H   0  0  0  0  0  0
  -28.1538  -20.1713   20.0868 H   0  0  0  0  0  0
  -28.6369  -24.9568   21.5325 H   0  0  0  0  0  0
  -27.0898  -24.8138   20.8129 H   0  0  0  0  0  0
  -34.2781  -19.8499   21.9066 H   0  0  0  0  0  0
  -29.7035  -23.9257   19.4447 H   0  0  0  0  0  0
  -29.0745  -15.6375   21.3308 H   0  0  0  0  0  0
  1 25  1  0  0  0
  1 30  2  0  0  0
  1 86  1  0  0  0
  2  3  1  0  0  0
  2 25  1  0  0  0
  2 87  1  0  0  0
  2 88  1  0  0  0
  3  4  1  0  0  0
  3 89  1  0  0  0
  3 90  1  0  0  0
  4  5  1  0  0  0
  4 91  1  0  0  0
  4 92  1  0  0  0
  5  6  1  0  0  0
  5 26  1  0  0  0
  5 93  1  0  0  0
  6 25  1  0  0  0
  6 94  1  0  0  0
  6 95  1  0  0  0
  7  8  2  0  0  0
  7 26  1  0  0  0
  7 29  1  0  0  0
  8  9  1  0  0  0
  8 22  1  0  0  0
  9 10  1  0  0  0
  9 27  2  0  0  0
 10 11  2  0  0  0
 10 15  1  0  0  0
 11 12  1  0  0  0
 11 96  1  0  0  0
 12 13  2  0  0  0
 12 97  1  0  0  0
 13 14  1  0  0  0
 13 31  1  0  0  0
 14 15  2  0  0  0
 14 98  1  0  0  0
 15 99  1  0  0  0
 16 17  2  0  0  0
 16 21  1  0  0  0
 16 31  1  0  0  0
 17 18  1  0  0  0
 17100  1  0  0  0
 18 19  2  0  0  0
 18101  1  0  0  0
 19 20  1  0  0  0
 19 24  1  0  0  0
 20 21  2  0  0  0
 20102  1  0  0  0
 21 23  1  0  0  0
 22 28  1  0  0  0
 22 32  2  0  0  0
 26 27  1  0  0  0
 28103  1  0  0  0
 28104  1  0  0  0
 29105  1  0  0  0
 29106  1  0  0  0
 33 34  1  0  0  0
 33 66  1  0  0  0
 33 70  2  0  0  0
 34 36  1  0  0  0
 34 59  1  0  0  0
 34107  1  0  0  0
 35 44  2  0  0  0
 35 45  1  0  0  0
 35 68  1  0  0  0
 36 56  1  0  0  0
 36108  1  0  0  0
 37 39  1  0  0  0
 37 47  1  0  0  0
 37 66  1  0  0  0
 37109  1  0  0  0
 38 43  2  0  0  0
 38 46  1  0  0  0
 38 47  1  0  0  0
 39 64  1  0  0  0
 39 67  2  0  0  0
 40 52  1  0  0  0
 40 53  2  0  0  0
 40 58  1  0  0  0
 41110  1  0  0  0
 41111  1  0  0  0
 41112  1  0  0  0
 41 48  1  0  0  0
 42 43  1  0  0  0
 42 66  1  0  0  0
 42113  1  0  0  0
 42114  1  0  0  0
 43 44  1  0  0  0
 44115  1  0  0  0
 45 46  2  0  0  0
 45116  1  0  0  0
 46117  1  0  0  0
 47118  1  0  0  0
 47119  1  0  0  0
 48 56  1  0  0  0
 48 65  1  0  0  0
 48120  1  0  0  0
 49 50  1  0  0  0
 49 53  1  0  0  0
 49 64  1  0  0  0
 49121  1  0  0  0
 50 51  1  0  0  0
 50122  1  0  0  0
 50123  1  0  0  0
 51 52  1  0  0  0
 51124  1  0  0  0
 51125  1  0  0  0
 52126  1  0  0  0
 52127  1  0  0  0
 53 54  1  0  0  0
 54 55  2  0  0  0
 54128  1  0  0  0
 55 57  1  0  0  0
 55129  1  0  0  0
 56 69  2  0  0  0
 57 58  2  0  0  0
 57130  1  0  0  0
 58131  1  0  0  0
 59 60  1  0  0  0
 59 61  1  0  0  0
 59 62  1  0  0  0
 60132  1  0  0  0
 60133  1  0  0  0
 60134  1  0  0  0
 61135  1  0  0  0
 61136  1  0  0  0
 61137  1  0  0  0
 62138  1  0  0  0
 62139  1  0  0  0
 62140  1  0  0  0
 63 65  1  0  0  0
 63141  1  0  0  0
 63142  1  0  0  0
 63143  1  0  0  0
 64144  1  0  0  0
 65145  1  0  0  0
 68 82  1  0  0  0
 71 72  2  0  0  0
 71 85  1  0  0  0
 71146  1  0  0  0
 72 73  1  0  0  0
 72 83  1  0  0  0
 73 74  2  0  0  0
 73 75  1  0  0  0
 74 79  1  0  0  0
 74 85  1  0  0  0
 75147  1  0  0  0
 75148  1  0  0  0
 75149  1  0  0  0
 76150  1  0  0  0
 76151  1  0  0  0
 76152  1  0  0  0
 76 83  1  0  0  0
 77 83  1  0  0  0
 77153  1  0  0  0
 77154  1  0  0  0
 77155  1  0  0  0
 78156  1  0  0  0
 78157  1  0  0  0
 78158  1  0  0  0
 78 84  1  0  0  0
 79 86  1  0  0  0
 79159  1  0  0  0
 79160  1  0  0  0
 80 81  1  0  0  0
 80 84  1  0  0  0
 80161  1  0  0  0
 80162  1  0  0  0
 81 85  1  0  0  0
 81163  1  0  0  0
 81164  1  0  0  0
 82 84  1  0  0  0
 82165  1  0  0  0
 82166  1  0  0  0
 83167  1  0  0  0
 84168  1  0  0  0
 86169  1  0  0  0
M  ISO  4   1 100  68 101  82 101  86 100
M  END
> <chiral flag>
0

> <version>
0

> <s_m_source_file>
/data/baiqing/PycharmProjects/Reinvent-master-3.2/result/LINK_invent/BTK/process_docking_weight1_custom_sum_contain_oxygen_bond_distance_aromatic_linkinvent_7_9_3/rearranged_h_0099.sdf

> <i_m_source_file_index>
48

> <r_mmod_Potential_Energy-OPLS-2005>
181.089096069336

> <r_mmod_Stretch_Energy-OPLS-2005>
146.246673583984

> <r_mmod_Bend_Energy-OPLS-2005>
222.023178100586

> <r_mmod_Torsional_Energy-OPLS-2005>
262.380096435547

> <r_mmod_Improper_Torsional_Energy-OPLS-2005>
7.2469220161438

> <r_mmod_Van_der_Waal_Energy-OPLS-2005>
113.140830993652

> <r_mmod_Electrostatic_Energy-OPLS-2005>
-439.761840820312

> <r_mmod_Solvation_Energy-OPLS-2005>
-214.507797241211

> <b_mmod_Minimization_Converged-OPLS-2005>
0

> <r_mmod_RMS_Derivative-OPLS-2005>
3.6722424030304

$$$$
48
                    3D
 Structure written by MMmdl.
153161  0  0  1  0            999 V2000
  -30.5353  -14.9679   20.4210 C   0  0  0  0  0  0
  -30.4390  -12.5994   19.5061 C   0  0  0  0  0  0
  -29.5283  -12.5305   18.2580 C   0  0  0  0  0  0
  -28.0558  -12.3251   18.6648 C   0  0  0  0  0  0
  -27.6267  -13.2539   19.8322 C   0  0  2  0  0  0
  -28.6656  -13.2888   20.9721 C   0  0  0  0  0  0
  -25.2444  -13.8228   20.5707 C   0  0  0  0  0  0
  -24.1770  -13.0439   20.9226 C   0  0  0  0  0  0
  -24.6403  -11.6929   20.8737 C   0  0  0  0  0  0
  -23.9092  -10.4296   21.0401 C   0  0  0  0  0  0
  -24.3644   -9.4205   21.9176 C   0  0  0  0  0  0
  -23.6307   -8.2246   22.0752 C   0  0  0  0  0  0
  -22.4289   -8.0290   21.3545 C   0  0  0  0  0  0
  -21.9924   -9.0262   20.4652 C   0  0  0  0  0  0
  -22.7261  -10.2136   20.3052 C   0  0  0  0  0  0
  -21.6866   -6.0739   22.5277 C   0  0  0  0  0  0
  -21.4020   -6.5636   23.8212 C   0  0  0  0  0  0
  -21.3662   -5.6789   24.9169 C   0  0  0  0  0  0
  -21.6049   -4.3052   24.7226 C   0  0  0  0  0  0
  -21.8815   -3.8147   23.4339 C   0  0  0  0  0  0
  -21.9198   -4.6964   22.3399 C   0  0  0  0  0  0
  -22.7784  -13.5210   21.1879 C   0  0  0  0  0  0
  -22.1666   -4.2145   21.0974 F   0  0  0  0  0  0
  -21.5627   -3.4532   25.7735 F   0  0  0  0  0  0
  -29.9400  -13.7061   20.3737 N   0  0  0  0  0  0
  -26.2868  -12.9472   20.3197 N   0  0  0  0  0  0
  -25.9334  -11.6595   20.5705 N   0  0  0  0  0  0
  -22.0439  -12.8208   22.0441 N   0  0  0  0  0  0
  -25.4085  -15.1966   20.4132 N   0  0  0  0  0  0
  -31.7422  -15.0267   20.1612 O   0  0  0  0  0  0
  -21.6653   -6.8885   21.4247 O   0  0  0  0  0  0
  -22.3450  -14.5496   20.6697 O   0  0  0  0  0  0
  -24.6454  -31.8415   23.1884 C   0  0  0  0  0  0
  -25.9222  -32.4688   23.8271 C   0  0  1  0  0  0
  -27.2125  -27.1074   20.1580 C   0  0  0  0  0  0
  -25.5957  -33.8497   24.2188 N   0  0  0  0  0  0
  -23.4515  -30.4626   21.5330 C   0  0  2  0  0  0
  -24.9020  -28.8876   20.1103 C   0  0  0  0  0  0
  -22.7578  -29.4540   22.4834 C   0  0  0  0  0  0
  -18.0306  -28.1394   22.8479 C   0  0  0  0  0  0
  -24.1494  -36.7244   23.2641 C   0  0  0  0  0  0
  -26.0115  -30.7069   21.3942 C   0  0  0  0  0  0
  -26.0816  -29.3168   20.7318 C   0  0  0  0  0  0
  -27.2375  -28.4436   20.7372 C   0  0  0  0  0  0
  -26.0072  -26.7909   19.4921 C   0  0  0  0  0  0
  -24.8796  -27.6393   19.4732 C   0  0  0  0  0  0
  -23.6806  -29.7928   20.1520 C   0  0  0  0  0  0
  -25.4128  -36.3028   24.0313 C   0  0  1  0  0  0
  -20.5923  -28.3726   23.1224 C   0  0  2  0  0  0
  -20.6789  -26.9423   22.5400 C   0  0  0  0  0  0
  -19.5761  -26.6376   21.5210 C   0  0  0  0  0  0
  -18.1944  -26.7934   22.1623 C   0  0  0  0  0  0
  -19.1562  -28.8877   23.2845 C   0  0  0  0  0  0
  -18.9477  -30.1473   23.8871 C   0  0  0  0  0  0
  -17.6473  -30.6593   24.0561 C   0  0  0  0  0  0
  -25.9079  -34.9406   23.5060 C   0  0  0  0  0  0
  -16.5366  -29.9083   23.6339 C   0  0  0  0  0  0
  -16.7293  -28.6499   23.0366 C   0  0  0  0  0  0
  -26.4525  -31.6571   25.0733 C   0  0  0  0  0  0
  -25.3698  -31.3779   26.1419 C   0  0  0  0  0  0
  -27.0393  -30.2954   24.6370 C   0  0  0  0  0  0
  -27.6052  -32.4346   25.7515 C   0  0  0  0  0  0
  -27.5579  -37.1775   24.8463 C   0  0  0  0  0  0
  -21.4266  -29.3049   22.3581 N   0  0  0  0  0  0
  -26.4288  -37.3742   23.9408 N   0  0  0  0  0  0
  -24.7227  -31.0252   22.0933 N   0  0  0  0  0  0
  -23.4212  -28.8087   23.2993 O   0  0  0  0  0  0
  -28.2428  -26.0903   20.2447 O   0  0  0  0  0  0
  -26.5670  -34.8898   22.4643 O   0  0  0  0  0  0
  -23.5565  -32.1299   23.7084 O   0  0  0  0  0  0
  -30.6856  -21.0225   20.9474 C   0  0  0  0  0  0
  -30.1808  -23.4630   20.8323 C   0  0  0  0  0  0
  -28.5147  -21.8083   20.2376 C   0  0  0  0  0  0
  -31.0602  -22.3834   21.1135 C   0  0  0  0  0  0
  -29.4018  -20.6380   20.5047 C   0  0  0  0  0  0
  -28.8625  -23.2542   20.3819 C   0  0  0  0  0  0
  -32.4574  -22.6883   21.6179 C   0  0  0  0  0  0
  -29.0508  -19.0143   20.3926 C   0  0  0  0  0  0
  -27.8973  -24.5682   20.0786 C   0  0  0  0  0  0
  -30.1360  -17.7115   20.5373 C   0  0  0  0  0  0
  -29.7622  -16.1627   20.5557 N   0  0  0  0  0  0
  -31.4762  -12.7547   19.2063 H   0  0  0  0  0  0
  -30.4275  -11.6530   20.0486 H   0  0  0  0  0  0
  -29.8514  -11.7237   17.5977 H   0  0  0  0  0  0
  -29.6253  -13.4543   17.6852 H   0  0  0  0  0  0
  -27.9423  -11.2823   18.9608 H   0  0  0  0  0  0
  -27.4039  -12.4687   17.8010 H   0  0  0  0  0  0
  -27.5874  -14.2572   19.4058 H   0  0  0  0  0  0
  -28.7548  -12.3142   21.4550 H   0  0  0  0  0  0
  -28.3607  -13.9931   21.7480 H   0  0  0  0  0  0
  -25.2786   -9.5674   22.4744 H   0  0  0  0  0  0
  -24.0018   -7.4638   22.7464 H   0  0  0  0  0  0
  -21.0856   -8.8784   19.8956 H   0  0  0  0  0  0
  -22.3724  -10.9674   19.6160 H   0  0  0  0  0  0
  -21.2013   -7.6143   23.9709 H   0  0  0  0  0  0
  -21.1490   -6.0519   25.9075 H   0  0  0  0  0  0
  -22.0595   -2.7607   23.2840 H   0  0  0  0  0  0
  -22.4084  -11.9908   22.4875 H   0  0  0  0  0  0
  -21.1041  -13.1194   22.2605 H   0  0  0  0  0  0
  -24.6355  -15.8442   20.5234 H   0  0  0  0  0  0
  -26.2429  -15.6389   20.0503 H   0  0  0  0  0  0
  -26.7304  -32.5278   23.1002 H   0  0  0  0  0  0
  -25.0079  -33.9615   25.0323 H   0  0  0  0  0  0
  -22.7554  -31.2896   21.3764 H   0  0  0  0  0  0
  -23.3768  -35.9561   23.3291 H   0  0  0  0  0  0
  -24.3570  -36.8890   22.2056 H   0  0  0  0  0  0
  -23.7240  -37.6431   23.6689 H   0  0  0  0  0  0
  -26.1771  -31.4637   20.6261 H   0  0  0  0  0  0
  -26.8775  -30.7512   22.0434 H   0  0  0  0  0  0
  -28.1342  -28.7644   21.2484 H   0  0  0  0  0  0
  -25.8949  -25.8380   18.9996 H   0  0  0  0  0  0
  -23.9792  -27.3066   18.9748 H   0  0  0  0  0  0
  -23.8218  -30.5678   19.3971 H   0  0  0  0  0  0
  -22.7950  -29.2367   19.8395 H   0  0  0  0  0  0
  -25.1318  -36.1846   25.0805 H   0  0  0  0  0  0
  -21.0025  -28.3322   24.1342 H   0  0  0  0  0  0
  -20.5667  -26.2343   23.3622 H   0  0  0  0  0  0
  -21.6654  -26.7411   22.1205 H   0  0  0  0  0  0
  -19.6915  -25.6273   21.1270 H   0  0  0  0  0  0
  -19.6705  -27.3163   20.6719 H   0  0  0  0  0  0
  -17.4211  -26.6683   21.4034 H   0  0  0  0  0  0
  -18.0345  -26.0077   22.9019 H   0  0  0  0  0  0
  -19.7953  -30.7301   24.2233 H   0  0  0  0  0  0
  -17.5025  -31.6275   24.5158 H   0  0  0  0  0  0
  -15.5366  -30.2981   23.7674 H   0  0  0  0  0  0
  -15.8692  -28.0811   22.7103 H   0  0  0  0  0  0
  -24.5881  -30.7129   25.7732 H   0  0  0  0  0  0
  -24.8882  -32.2972   26.4770 H   0  0  0  0  0  0
  -25.7956  -30.8992   27.0251 H   0  0  0  0  0  0
  -26.3031  -29.6673   24.1343 H   0  0  0  0  0  0
  -27.3933  -29.7263   25.4978 H   0  0  0  0  0  0
  -27.8977  -30.4163   23.9755 H   0  0  0  0  0  0
  -27.2646  -33.3665   26.2040 H   0  0  0  0  0  0
  -28.3884  -32.6882   25.0360 H   0  0  0  0  0  0
  -28.0710  -31.8517   26.5470 H   0  0  0  0  0  0
  -28.2582  -38.0086   24.7510 H   0  0  0  0  0  0
  -28.1085  -36.2608   24.6286 H   0  0  0  0  0  0
  -27.2290  -37.1426   25.8865 H   0  0  0  0  0  0
  -20.9463  -29.8766   21.6767 H   0  0  0  0  0  0
  -26.0150  -38.2806   24.1415 H   0  0  0  0  0  0
  -31.4097  -20.2530   21.1806 H   0  0  0  0  0  0
  -30.5215  -24.4805   20.9693 H   0  0  0  0  0  0
  -27.5089  -21.5888   19.9080 H   0  0  0  0  0  0
  -33.2037  -22.2949   20.9284 H   0  0  0  0  0  0
  -32.6164  -22.2339   22.5964 H   0  0  0  0  0  0
  -32.6241  -23.7613   21.7189 H   0  0  0  0  0  0
  -28.5419  -18.8938   19.4366 H   0  0  0  0  0  0
  -28.2683  -18.8513   21.1346 H   0  0  0  0  0  0
  -26.9962  -24.3938   20.6670 H   0  0  0  0  0  0
  -27.5957  -24.4356   19.0399 H   0  0  0  0  0  0
  -30.6828  -17.8721   21.4667 H   0  0  0  0  0  0
  -30.8875  -17.8330   19.7552 H   0  0  0  0  0  0
  -28.7817  -15.9786   20.7109 H   0  0  0  0  0  0
  1 25  1  0  0  0
  1 30  2  0  0  0
  1 81  1  0  0  0
  2  3  1  0  0  0
  2 25  1  0  0  0
  2 82  1  0  0  0
  2 83  1  0  0  0
  3  4  1  0  0  0
  3 84  1  0  0  0
  3 85  1  0  0  0
  4  5  1  0  0  0
  4 86  1  0  0  0
  4 87  1  0  0  0
  5  6  1  0  0  0
  5 26  1  0  0  0
  5 88  1  0  0  0
  6 25  1  0  0  0
  6 89  1  0  0  0
  6 90  1  0  0  0
  7  8  2  0  0  0
  7 26  1  0  0  0
  7 29  1  0  0  0
  8  9  1  0  0  0
  8 22  1  0  0  0
  9 10  1  0  0  0
  9 27  2  0  0  0
 10 11  2  0  0  0
 10 15  1  0  0  0
 11 12  1  0  0  0
 11 91  1  0  0  0
 12 13  2  0  0  0
 12 92  1  0  0  0
 13 14  1  0  0  0
 13 31  1  0  0  0
 14 15  2  0  0  0
 14 93  1  0  0  0
 15 94  1  0  0  0
 16 17  2  0  0  0
 16 21  1  0  0  0
 16 31  1  0  0  0
 17 18  1  0  0  0
 17 95  1  0  0  0
 18 19  2  0  0  0
 18 96  1  0  0  0
 19 20  1  0  0  0
 19 24  1  0  0  0
 20 21  2  0  0  0
 20 97  1  0  0  0
 21 23  1  0  0  0
 22 28  1  0  0  0
 22 32  2  0  0  0
 26 27  1  0  0  0
 28 98  1  0  0  0
 28 99  1  0  0  0
 29100  1  0  0  0
 29101  1  0  0  0
 33 34  1  0  0  0
 33 66  1  0  0  0
 33 70  2  0  0  0
 34 36  1  0  0  0
 34 59  1  0  0  0
 34102  1  0  0  0
 35 44  2  0  0  0
 35 45  1  0  0  0
 35 68  1  0  0  0
 36 56  1  0  0  0
 36103  1  0  0  0
 37 39  1  0  0  0
 37 47  1  0  0  0
 37 66  1  0  0  0
 37104  1  0  0  0
 38 43  2  0  0  0
 38 46  1  0  0  0
 38 47  1  0  0  0
 39 64  1  0  0  0
 39 67  2  0  0  0
 40 52  1  0  0  0
 40 53  2  0  0  0
 40 58  1  0  0  0
 41105  1  0  0  0
 41106  1  0  0  0
 41107  1  0  0  0
 41 48  1  0  0  0
 42 43  1  0  0  0
 42 66  1  0  0  0
 42108  1  0  0  0
 42109  1  0  0  0
 43 44  1  0  0  0
 44110  1  0  0  0
 45 46  2  0  0  0
 45111  1  0  0  0
 46112  1  0  0  0
 47113  1  0  0  0
 47114  1  0  0  0
 48 56  1  0  0  0
 48 65  1  0  0  0
 48115  1  0  0  0
 49 50  1  0  0  0
 49 53  1  0  0  0
 49 64  1  0  0  0
 49116  1  0  0  0
 50 51  1  0  0  0
 50117  1  0  0  0
 50118  1  0  0  0
 51 52  1  0  0  0
 51119  1  0  0  0
 51120  1  0  0  0
 52121  1  0  0  0
 52122  1  0  0  0
 53 54  1  0  0  0
 54 55  2  0  0  0
 54123  1  0  0  0
 55 57  1  0  0  0
 55124  1  0  0  0
 56 69  2  0  0  0
 57 58  2  0  0  0
 57125  1  0  0  0
 58126  1  0  0  0
 59 60  1  0  0  0
 59 61  1  0  0  0
 59 62  1  0  0  0
 60127  1  0  0  0
 60128  1  0  0  0
 60129  1  0  0  0
 61130  1  0  0  0
 61131  1  0  0  0
 61132  1  0  0  0
 62133  1  0  0  0
 62134  1  0  0  0
 62135  1  0  0  0
 63 65  1  0  0  0
 63136  1  0  0  0
 63137  1  0  0  0
 63138  1  0  0  0
 64139  1  0  0  0
 65140  1  0  0  0
 68 79  1  0  0  0
 71 74  2  0  0  0
 71 75  1  0  0  0
 71141  1  0  0  0
 72 74  1  0  0  0
 72 76  2  0  0  0
 72142  1  0  0  0
 73 75  2  0  0  0
 73 76  1  0  0  0
 73143  1  0  0  0
 74 77  1  0  0  0
 75 78  1  0  0  0
 76 79  1  0  0  0
 77144  1  0  0  0
 77145  1  0  0  0
 77146  1  0  0  0
 78 80  1  0  0  0
 78147  1  0  0  0
 78148  1  0  0  0
 79149  1  0  0  0
 79150  1  0  0  0
 80 81  1  0  0  0
 80151  1  0  0  0
 80152  1  0  0  0
 81153  1  0  0  0
M  ISO  4   1 100  68 101  79 101  81 100
M  END
> <chiral flag>
0

> <version>
0

> <s_m_source_file>
/data/baiqing/PycharmProjects/Reinvent-master-3.2/result/LINK_invent/BTK/process_docking_weight1_custom_sum_contain_oxygen_bond_distance_aromatic_linkinvent_7_9_3/rearranged_h_0099.sdf

> <i_m_source_file_index>
49

> <r_mmod_Potential_Energy-OPLS-2005>
502.872436523438

> <r_mmod_Stretch_Energy-OPLS-2005>
279.115447998047

> <r_mmod_Bend_Energy-OPLS-2005>
240.911743164062

> <r_mmod_Torsional_Energy-OPLS-2005>
207.405242919922

> <r_mmod_Improper_Torsional_Energy-OPLS-2005>
4.33339595794678

> <r_mmod_Van_der_Waal_Energy-OPLS-2005>
128.646789550781

> <r_mmod_Electrostatic_Energy-OPLS-2005>
-360.025146484375

> <r_mmod_Solvation_Energy-OPLS-2005>
-213.217651367188

> <b_mmod_Minimization_Converged-OPLS-2005>
0

> <r_mmod_RMS_Derivative-OPLS-2005>
1.71977508068085

$$$$
49
                    3D
 Structure written by MMmdl.
163171  0  0  1  0            999 V2000
  -30.6634  -14.5252   20.5427 C   0  0  0  0  0  0
  -30.4250  -12.3317   19.4192 C   0  0  0  0  0  0
  -29.4919  -12.5108   18.2011 C   0  0  0  0  0  0
  -28.0139  -12.3662   18.6154 C   0  0  0  0  0  0
  -27.6579  -13.2061   19.8709 C   0  0  2  0  0  0
  -28.7042  -13.0038   20.9900 C   0  0  0  0  0  0
  -25.2569  -13.8135   20.5668 C   0  0  0  0  0  0
  -24.1839  -13.0418   20.9148 C   0  0  0  0  0  0
  -24.6404  -11.6880   20.8741 C   0  0  0  0  0  0
  -23.9064  -10.4284   21.0424 C   0  0  0  0  0  0
  -24.3627   -9.4199   21.9193 C   0  0  0  0  0  0
  -23.6298   -8.2238   22.0759 C   0  0  0  0  0  0
  -22.4289   -8.0276   21.3532 C   0  0  0  0  0  0
  -21.9923   -9.0252   20.4639 C   0  0  0  0  0  0
  -22.7246  -10.2134   20.3054 C   0  0  0  0  0  0
  -21.6847   -6.0730   22.5267 C   0  0  0  0  0  0
  -21.4019   -6.5632   23.8201 C   0  0  0  0  0  0
  -21.3664   -5.6791   24.9156 C   0  0  0  0  0  0
  -21.6046   -4.3047   24.7216 C   0  0  0  0  0  0
  -21.8820   -3.8135   23.4332 C   0  0  0  0  0  0
  -21.9200   -4.6959   22.3389 C   0  0  0  0  0  0
  -22.7865  -13.5214   21.1822 C   0  0  0  0  0  0
  -22.1662   -4.2146   21.0969 F   0  0  0  0  0  0
  -21.5638   -3.4537   25.7725 F   0  0  0  0  0  0
  -30.0253  -13.3267   20.4277 N   0  0  0  0  0  0
  -26.3019  -12.9316   20.3351 N   0  0  0  0  0  0
  -25.9334  -11.6474   20.5780 N   0  0  0  0  0  0
  -22.0527  -12.8192   22.0387 N   0  0  0  0  0  0
  -25.4260  -15.1872   20.4088 N   0  0  0  0  0  0
  -31.8082  -14.7154   20.1242 O   0  0  0  0  0  0
  -21.6630   -6.8887   21.4235 O   0  0  0  0  0  0
  -22.3563  -14.5537   20.6699 O   0  0  0  0  0  0
  -24.6126  -31.8654   23.2045 C   0  0  0  0  0  0
  -25.8994  -32.4816   23.8327 C   0  0  1  0  0  0
  -27.2156  -27.3840   20.1035 C   0  0  0  0  0  0
  -25.5805  -33.8613   24.2234 N   0  0  0  0  0  0
  -23.3984  -30.4923   21.5510 C   0  0  2  0  0  0
  -24.8395  -28.9545   20.1167 C   0  0  0  0  0  0
  -22.7375  -29.4661   22.5002 C   0  0  0  0  0  0
  -18.0260  -28.1379   22.8500 C   0  0  0  0  0  0
  -24.1482  -36.7323   23.2640 C   0  0  0  0  0  0
  -25.9350  -30.8197   21.3625 C   0  0  0  0  0  0
  -26.0091  -29.4525   20.7043 C   0  0  0  0  0  0
  -27.2001  -28.6817   20.6824 C   0  0  0  0  0  0
  -26.0144  -26.9075   19.5268 C   0  0  0  0  0  0
  -24.8401  -27.6813   19.5288 C   0  0  0  0  0  0
  -23.5997  -29.8211   20.1686 C   0  0  0  0  0  0
  -25.4102  -36.3109   24.0332 C   0  0  1  0  0  0
  -20.5852  -28.3655   23.1352 C   0  0  2  0  0  0
  -20.6759  -26.9405   22.5433 C   0  0  0  0  0  0
  -19.5737  -26.6386   21.5231 C   0  0  0  0  0  0
  -18.1907  -26.7924   22.1641 C   0  0  0  0  0  0
  -19.1515  -28.8838   23.2918 C   0  0  0  0  0  0
  -18.9448  -30.1445   23.8928 C   0  0  0  0  0  0
  -17.6457  -30.6599   24.0565 C   0  0  0  0  0  0
  -25.9028  -34.9474   23.5100 C   0  0  0  0  0  0
  -16.5338  -29.9091   23.6358 C   0  0  0  0  0  0
  -16.7258  -28.6510   23.0377 C   0  0  0  0  0  0
  -26.4371  -31.6635   25.0696 C   0  0  0  0  0  0
  -25.3587  -31.3824   26.1432 C   0  0  0  0  0  0
  -27.0190  -30.3043   24.6140 C   0  0  0  0  0  0
  -27.5925  -32.4374   25.7467 C   0  0  0  0  0  0
  -27.5587  -37.1792   24.8460 C   0  0  0  0  0  0
  -21.4115  -29.3013   22.3738 N   0  0  0  0  0  0
  -26.4290  -37.3792   23.9412 N   0  0  0  0  0  0
  -24.6683  -31.0709   22.0977 N   0  0  0  0  0  0
  -23.4158  -28.8229   23.3050 O   0  0  0  0  0  0
  -28.3897  -26.6375   20.1243 O   0  0  0  0  0  0
  -26.5660  -34.8937   22.4704 O   0  0  0  0  0  0
  -23.5316  -32.1445   23.7425 O   0  0  0  0  0  0
  -28.2280  -20.3381   20.6371 C   0  0  0  0  0  0
  -29.2871  -19.4728   20.7502 C   0  0  0  0  0  0
  -30.4137  -20.3138   21.0299 C   0  0  0  0  0  0
  -29.9891  -21.6298   21.0494 C   0  0  0  0  0  0
  -31.8383  -19.8555   21.2470 C   0  0  0  0  0  0
  -30.8247  -22.8510   21.2900 C   0  0  0  0  0  0
  -26.6619  -22.6658   19.5637 C   0  0  0  0  0  0
  -29.1647  -17.9396   20.5531 C   0  0  0  0  0  0
  -28.0178  -24.2982   21.0116 C   0  0  0  0  0  0
  -30.2499  -16.9777   21.1302 C   0  0  0  0  0  0
  -28.3817  -25.2191   19.8016 C   0  0  0  0  0  0
  -27.6153  -22.7915   20.7667 C   0  0  2  0  0  0
  -28.6127  -21.6691   20.7978 N   0  0  0  0  0  0
  -29.8934  -15.5441   20.9891 N   0  0  0  0  0  0
  -31.4698  -12.4373   19.1186 H   0  0  0  0  0  0
  -30.3270  -11.3251   19.8311 H   0  0  0  0  0  0
  -29.7325  -11.7803   17.4289 H   0  0  0  0  0  0
  -29.6484  -13.4923   17.7507 H   0  0  0  0  0  0
  -27.8252  -11.3100   18.8098 H   0  0  0  0  0  0
  -27.3623  -12.6424   17.7871 H   0  0  0  0  0  0
  -27.6937  -14.2516   19.5671 H   0  0  0  0  0  0
  -28.6981  -11.9702   21.3380 H   0  0  0  0  0  0
  -28.4691  -13.6102   21.8659 H   0  0  0  0  0  0
  -25.2788   -9.5651   22.4748 H   0  0  0  0  0  0
  -23.9986   -7.4630   22.7494 H   0  0  0  0  0  0
  -21.0845   -8.8780   19.8957 H   0  0  0  0  0  0
  -22.3716  -10.9675   19.6156 H   0  0  0  0  0  0
  -21.2011   -7.6145   23.9693 H   0  0  0  0  0  0
  -21.1488   -6.0522   25.9062 H   0  0  0  0  0  0
  -22.0607   -2.7600   23.2824 H   0  0  0  0  0  0
  -22.4185  -11.9845   22.4715 H   0  0  0  0  0  0
  -21.1162  -13.1210   22.2666 H   0  0  0  0  0  0
  -24.6547  -15.8346   20.5272 H   0  0  0  0  0  0
  -26.2681  -15.6333   20.0699 H   0  0  0  0  0  0
  -26.7049  -32.5481   23.1079 H   0  0  0  0  0  0
  -24.9738  -33.9766   25.0217 H   0  0  0  0  0  0
  -22.6880  -31.3105   21.4156 H   0  0  0  0  0  0
  -23.3743  -35.9657   23.3297 H   0  0  0  0  0  0
  -24.3543  -36.8958   22.2053 H   0  0  0  0  0  0
  -23.7257  -37.6523   23.6677 H   0  0  0  0  0  0
  -26.0483  -31.5926   20.6009 H   0  0  0  0  0  0
  -26.8234  -30.8680   21.9835 H   0  0  0  0  0  0
  -28.1051  -29.0724   21.1259 H   0  0  0  0  0  0
  -25.9323  -25.9334   19.0719 H   0  0  0  0  0  0
  -23.9350  -27.2851   19.0883 H   0  0  0  0  0  0
  -23.6797  -30.5917   19.4005 H   0  0  0  0  0  0
  -22.7256  -29.2250   19.8961 H   0  0  0  0  0  0
  -25.1285  -36.1960   25.0829 H   0  0  0  0  0  0
  -20.9945  -28.3233   24.1481 H   0  0  0  0  0  0
  -20.5696  -26.2253   23.3609 H   0  0  0  0  0  0
  -21.6617  -26.7465   22.1198 H   0  0  0  0  0  0
  -19.6901  -25.6295   21.1272 H   0  0  0  0  0  0
  -19.6700  -27.3189   20.6763 H   0  0  0  0  0  0
  -17.4175  -26.6682   21.4047 H   0  0  0  0  0  0
  -18.0290  -26.0067   22.9050 H   0  0  0  0  0  0
  -19.7930  -30.7237   24.2315 H   0  0  0  0  0  0
  -17.5027  -31.6312   24.5106 H   0  0  0  0  0  0
  -15.5342  -30.3006   23.7699 H   0  0  0  0  0  0
  -15.8649  -28.0850   22.7102 H   0  0  0  0  0  0
  -24.5710  -30.7235   25.7760 H   0  0  0  0  0  0
  -24.8816  -32.3030   26.4805 H   0  0  0  0  0  0
  -25.7863  -30.9010   27.0236 H   0  0  0  0  0  0
  -26.2784  -29.6869   24.1051 H   0  0  0  0  0  0
  -27.3751  -29.7232   25.4647 H   0  0  0  0  0  0
  -27.8699  -30.4295   23.9450 H   0  0  0  0  0  0
  -27.2493  -33.3653   26.2051 H   0  0  0  0  0  0
  -28.3716  -32.6984   25.0300 H   0  0  0  0  0  0
  -28.0602  -31.8502   26.5379 H   0  0  0  0  0  0
  -28.2596  -38.0091   24.7491 H   0  0  0  0  0  0
  -28.1101  -36.2621   24.6307 H   0  0  0  0  0  0
  -27.2295  -37.1459   25.8858 H   0  0  0  0  0  0
  -20.9256  -29.8683   21.6934 H   0  0  0  0  0  0
  -26.0199  -38.2886   24.1374 H   0  0  0  0  0  0
  -27.1914  -20.0981   20.4383 H   0  0  0  0  0  0
  -32.3244  -19.6578   20.2917 H   0  0  0  0  0  0
  -31.8752  -18.9552   21.8545 H   0  0  0  0  0  0
  -32.4366  -20.5946   21.7770 H   0  0  0  0  0  0
  -31.8861  -22.6282   21.2085 H   0  0  0  0  0  0
  -30.6645  -23.2604   22.2872 H   0  0  0  0  0  0
  -30.6351  -23.6220   20.5519 H   0  0  0  0  0  0
  -25.9632  -23.5023   19.5399 H   0  0  0  0  0  0
  -26.0496  -21.7655   19.6080 H   0  0  0  0  0  0
  -27.2107  -22.6518   18.6209 H   0  0  0  0  0  0
  -29.1127  -17.7706   19.4782 H   0  0  0  0  0  0
  -28.1917  -17.6394   20.9441 H   0  0  0  0  0  0
  -27.1305  -24.7598   21.4464 H   0  0  0  0  0  0
  -28.7576  -24.3849   21.8026 H   0  0  0  0  0  0
  -30.3918  -17.1766   22.1946 H   0  0  0  0  0  0
  -31.2028  -17.1720   20.6369 H   0  0  0  0  0  0
  -27.7597  -25.0146   18.9332 H   0  0  0  0  0  0
  -29.3820  -24.9705   19.4532 H   0  0  0  0  0  0
  -26.9869  -22.5715   21.6319 H   0  0  0  0  0  0
  -28.9488  -15.2836   21.2312 H   0  0  0  0  0  0
  1 25  1  0  0  0
  1 30  2  0  0  0
  1 84  1  0  0  0
  2  3  1  0  0  0
  2 25  1  0  0  0
  2 85  1  0  0  0
  2 86  1  0  0  0
  3  4  1  0  0  0
  3 87  1  0  0  0
  3 88  1  0  0  0
  4  5  1  0  0  0
  4 89  1  0  0  0
  4 90  1  0  0  0
  5  6  1  0  0  0
  5 26  1  0  0  0
  5 91  1  0  0  0
  6 25  1  0  0  0
  6 92  1  0  0  0
  6 93  1  0  0  0
  7  8  2  0  0  0
  7 26  1  0  0  0
  7 29  1  0  0  0
  8  9  1  0  0  0
  8 22  1  0  0  0
  9 10  1  0  0  0
  9 27  2  0  0  0
 10 11  2  0  0  0
 10 15  1  0  0  0
 11 12  1  0  0  0
 11 94  1  0  0  0
 12 13  2  0  0  0
 12 95  1  0  0  0
 13 14  1  0  0  0
 13 31  1  0  0  0
 14 15  2  0  0  0
 14 96  1  0  0  0
 15 97  1  0  0  0
 16 17  2  0  0  0
 16 21  1  0  0  0
 16 31  1  0  0  0
 17 18  1  0  0  0
 17 98  1  0  0  0
 18 19  2  0  0  0
 18 99  1  0  0  0
 19 20  1  0  0  0
 19 24  1  0  0  0
 20 21  2  0  0  0
 20100  1  0  0  0
 21 23  1  0  0  0
 22 28  1  0  0  0
 22 32  2  0  0  0
 26 27  1  0  0  0
 28101  1  0  0  0
 28102  1  0  0  0
 29103  1  0  0  0
 29104  1  0  0  0
 33 34  1  0  0  0
 33 66  1  0  0  0
 33 70  2  0  0  0
 34 36  1  0  0  0
 34 59  1  0  0  0
 34105  1  0  0  0
 35 44  2  0  0  0
 35 45  1  0  0  0
 35 68  1  0  0  0
 36 56  1  0  0  0
 36106  1  0  0  0
 37 39  1  0  0  0
 37 47  1  0  0  0
 37 66  1  0  0  0
 37107  1  0  0  0
 38 43  2  0  0  0
 38 46  1  0  0  0
 38 47  1  0  0  0
 39 64  1  0  0  0
 39 67  2  0  0  0
 40 52  1  0  0  0
 40 53  2  0  0  0
 40 58  1  0  0  0
 41108  1  0  0  0
 41109  1  0  0  0
 41110  1  0  0  0
 41 48  1  0  0  0
 42 43  1  0  0  0
 42 66  1  0  0  0
 42111  1  0  0  0
 42112  1  0  0  0
 43 44  1  0  0  0
 44113  1  0  0  0
 45 46  2  0  0  0
 45114  1  0  0  0
 46115  1  0  0  0
 47116  1  0  0  0
 47117  1  0  0  0
 48 56  1  0  0  0
 48 65  1  0  0  0
 48118  1  0  0  0
 49 50  1  0  0  0
 49 53  1  0  0  0
 49 64  1  0  0  0
 49119  1  0  0  0
 50 51  1  0  0  0
 50120  1  0  0  0
 50121  1  0  0  0
 51 52  1  0  0  0
 51122  1  0  0  0
 51123  1  0  0  0
 52124  1  0  0  0
 52125  1  0  0  0
 53 54  1  0  0  0
 54 55  2  0  0  0
 54126  1  0  0  0
 55 57  1  0  0  0
 55127  1  0  0  0
 56 69  2  0  0  0
 57 58  2  0  0  0
 57128  1  0  0  0
 58129  1  0  0  0
 59 60  1  0  0  0
 59 61  1  0  0  0
 59 62  1  0  0  0
 60130  1  0  0  0
 60131  1  0  0  0
 60132  1  0  0  0
 61133  1  0  0  0
 61134  1  0  0  0
 61135  1  0  0  0
 62136  1  0  0  0
 62137  1  0  0  0
 62138  1  0  0  0
 63 65  1  0  0  0
 63139  1  0  0  0
 63140  1  0  0  0
 63141  1  0  0  0
 64142  1  0  0  0
 65143  1  0  0  0
 68 81  1  0  0  0
 71 72  2  0  0  0
 71 83  1  0  0  0
 71144  1  0  0  0
 72 73  1  0  0  0
 72 78  1  0  0  0
 73 74  2  0  0  0
 73 75  1  0  0  0
 74 76  1  0  0  0
 74 83  1  0  0  0
 75145  1  0  0  0
 75146  1  0  0  0
 75147  1  0  0  0
 76148  1  0  0  0
 76149  1  0  0  0
 76150  1  0  0  0
 77151  1  0  0  0
 77152  1  0  0  0
 77153  1  0  0  0
 77 82  1  0  0  0
 78 80  1  0  0  0
 78154  1  0  0  0
 78155  1  0  0  0
 79 81  1  0  0  0
 79 82  1  0  0  0
 79156  1  0  0  0
 79157  1  0  0  0
 80 84  1  0  0  0
 80158  1  0  0  0
 80159  1  0  0  0
 81160  1  0  0  0
 81161  1  0  0  0
 82 83  1  0  0  0
 82162  1  0  0  0
 84163  1  0  0  0
M  ISO  4   1 100  68 101  81 101  84 100
M  END
> <chiral flag>
0

> <version>
0

> <s_m_source_file>
/data/baiqing/PycharmProjects/Reinvent-master-3.2/result/LINK_invent/BTK/process_docking_weight1_custom_sum_contain_oxygen_bond_distance_aromatic_linkinvent_7_9_3/rearranged_h_0099.sdf

> <i_m_source_file_index>
50

> <r_mmod_Potential_Energy-OPLS-2005>
-49.9364547729492

> <r_mmod_Stretch_Energy-OPLS-2005>
51.6961097717285

> <r_mmod_Bend_Energy-OPLS-2005>
152.45573425293

> <r_mmod_Torsional_Energy-OPLS-2005>
222.327835083008

> <r_mmod_Improper_Torsional_Energy-OPLS-2005>
4.03379106521606

> <r_mmod_Van_der_Waal_Energy-OPLS-2005>
136.312088012695

> <r_mmod_Electrostatic_Energy-OPLS-2005>
-426.671783447266

> <r_mmod_Solvation_Energy-OPLS-2005>
-211.38493347168

> <b_mmod_Minimization_Converged-OPLS-2005>
0

> <r_mmod_RMS_Derivative-OPLS-2005>
3.67754006385803

$$$$
50
                    3D
 Structure written by MMmdl.
180188  0  0  1  0            999 V2000
  -30.6614  -14.5740   20.5464 C   0  0  0  0  0  0
  -30.4357  -12.3698   19.4316 C   0  0  0  0  0  0
  -29.5052  -12.5132   18.2095 C   0  0  0  0  0  0
  -28.0294  -12.3420   18.6244 C   0  0  0  0  0  0
  -27.6554  -13.2108   19.8553 C   0  0  2  0  0  0
  -28.6995  -13.0448   20.9815 C   0  0  0  0  0  0
  -25.2583  -13.8166   20.5655 C   0  0  0  0  0  0
  -24.1842  -13.0432   20.9160 C   0  0  0  0  0  0
  -24.6397  -11.6895   20.8722 C   0  0  0  0  0  0
  -23.9064  -10.4280   21.0390 C   0  0  0  0  0  0
  -24.3625   -9.4201   21.9172 C   0  0  0  0  0  0
  -23.6306   -8.2225   22.0754 C   0  0  0  0  0  0
  -22.4285   -8.0262   21.3541 C   0  0  0  0  0  0
  -21.9908   -9.0223   20.4630 C   0  0  0  0  0  0
  -22.7241  -10.2099   20.3030 C   0  0  0  0  0  0
  -21.6843   -6.0728   22.5289 C   0  0  0  0  0  0
  -21.3997   -6.5629   23.8226 C   0  0  0  0  0  0
  -21.3659   -5.6779   24.9189 C   0  0  0  0  0  0
  -21.6060   -4.3047   24.7239 C   0  0  0  0  0  0
  -21.8821   -3.8133   23.4362 C   0  0  0  0  0  0
  -21.9187   -4.6952   22.3419 C   0  0  0  0  0  0
  -22.7855  -13.5218   21.1844 C   0  0  0  0  0  0
  -22.1649   -4.2128   21.1000 F   0  0  0  0  0  0
  -21.5650   -3.4540   25.7759 F   0  0  0  0  0  0
  -30.0176  -13.3776   20.4202 N   0  0  0  0  0  0
  -26.3002  -12.9323   20.3259 N   0  0  0  0  0  0
  -25.9324  -11.6483   20.5716 N   0  0  0  0  0  0
  -22.0483  -12.8209   22.0378 N   0  0  0  0  0  0
  -25.4301  -15.1881   20.4126 N   0  0  0  0  0  0
  -31.8217  -14.7415   20.1662 O   0  0  0  0  0  0
  -21.6641   -6.8865   21.4246 O   0  0  0  0  0  0
  -22.3530  -14.5508   20.6679 O   0  0  0  0  0  0
  -24.6225  -31.8642   23.2068 C   0  0  0  0  0  0
  -25.9115  -32.4799   23.8391 C   0  0  1  0  0  0
  -27.2317  -27.3762   20.1086 C   0  0  0  0  0  0
  -25.5994  -33.8609   24.2356 N   0  0  0  0  0  0
  -23.4124  -30.4909   21.5472 C   0  0  2  0  0  0
  -24.8571  -28.9451   20.1164 C   0  0  0  0  0  0
  -22.7455  -29.4684   22.4964 C   0  0  0  0  0  0
  -18.0288  -28.1406   22.8489 C   0  0  0  0  0  0
  -24.1484  -36.7246   23.2653 C   0  0  0  0  0  0
  -25.9487  -30.8132   21.3658 C   0  0  0  0  0  0
  -26.0244  -29.4435   20.7096 C   0  0  0  0  0  0
  -27.2185  -28.6745   20.6881 C   0  0  0  0  0  0
  -26.0415  -26.9047   19.5156 C   0  0  0  0  0  0
  -24.8629  -27.6768   19.5152 C   0  0  0  0  0  0
  -23.6229  -29.8218   20.1622 C   0  0  0  0  0  0
  -25.4119  -36.3103   24.0365 C   0  0  1  0  0  0
  -20.5896  -28.3706   23.1280 C   0  0  2  0  0  0
  -20.6787  -26.9430   22.5420 C   0  0  0  0  0  0
  -19.5774  -26.6398   21.5217 C   0  0  0  0  0  0
  -18.1934  -26.7969   22.1577 C   0  0  0  0  0  0
  -19.1549  -28.8867   23.2883 C   0  0  0  0  0  0
  -18.9476  -30.1469   23.8890 C   0  0  0  0  0  0
  -17.6473  -30.6604   24.0574 C   0  0  0  0  0  0
  -25.9056  -34.9470   23.5138 C   0  0  0  0  0  0
  -16.5368  -29.9100   23.6356 C   0  0  0  0  0  0
  -16.7284  -28.6526   23.0359 C   0  0  0  0  0  0
  -26.4527  -31.6581   25.0720 C   0  0  0  0  0  0
  -25.3776  -31.3709   26.1465 C   0  0  0  0  0  0
  -27.0356  -30.3016   24.6124 C   0  0  0  0  0  0
  -27.6157  -32.4265   25.7417 C   0  0  0  0  0  0
  -27.5576  -37.1820   24.8507 C   0  0  0  0  0  0
  -21.4187  -29.3050   22.3660 N   0  0  0  0  0  0
  -26.4313  -37.3781   23.9415 N   0  0  0  0  0  0
  -24.6805  -31.0736   22.0968 N   0  0  0  0  0  0
  -23.4204  -28.8242   23.3041 O   0  0  0  0  0  0
  -28.3758  -26.5827   20.0918 O   0  0  0  0  0  0
  -26.5578  -34.8945   22.4671 O   0  0  0  0  0  0
  -23.5409  -32.1410   23.7440 O   0  0  0  0  0  0
  -27.4480  -22.4204   21.6301 C   0  0  0  0  0  0
  -28.9260  -21.4155   20.0754 C   0  0  0  0  0  0
  -27.1411  -21.2259   22.1852 C   0  0  0  0  0  0
  -28.3803  -22.5818   20.5293 C   0  0  0  0  0  0
  -27.7714  -19.9872   21.6783 C   0  0  0  0  0  0
  -27.8527  -20.9909   25.1927 C   0  0  0  0  0  0
  -24.7569  -21.7892   22.9235 C   0  0  0  0  0  0
  -27.9080  -24.0117   18.5020 C   0  0  0  0  0  0
  -31.6193  -25.4061   22.6037 C   0  0  0  0  0  0
  -26.6270  -21.7286   24.6380 C   0  0  0  0  0  0
  -30.3485  -18.1267   20.2936 C   0  0  0  0  0  0
  -29.0396  -18.8888   19.8704 C   0  0  0  0  0  0
  -30.3210  -16.9885   21.3795 C   0  0  0  0  0  0
  -29.2058  -25.3509   21.9781 C   0  0  0  0  0  0
  -26.1001  -21.1363   23.3146 C   0  0  2  0  0  0
  -28.6286  -23.9772   19.8579 C   0  0  1  0  0  0
  -28.2922  -25.2662   20.7347 C   0  0  2  0  0  0
  -28.6242  -20.1245   20.6173 N   0  0  0  0  0  0
  -29.9002  -15.6158   20.9791 N   0  0  0  0  0  0
  -30.5740  -25.8155   21.6411 N   0  3  0  0  0  0
  -27.5223  -18.8739   22.1540 O   0  0  0  0  0  0
  -31.4779  -12.4939   19.1346 H   0  0  0  0  0  0
  -30.3653  -11.3680   19.8568 H   0  0  0  0  0  0
  -29.7722  -11.7823   17.4440 H   0  0  0  0  0  0
  -29.6433  -13.4967   17.7562 H   0  0  0  0  0  0
  -27.8744  -11.2883   18.8579 H   0  0  0  0  0  0
  -27.3689  -12.5643   17.7856 H   0  0  0  0  0  0
  -27.6776  -14.2483   19.5193 H   0  0  0  0  0  0
  -28.7046  -12.0199   21.3535 H   0  0  0  0  0  0
  -28.4494  -13.6670   21.8421 H   0  0  0  0  0  0
  -25.2773   -9.5694   22.4739 H   0  0  0  0  0  0
  -24.0023   -7.4623   22.7484 H   0  0  0  0  0  0
  -21.0833   -8.8726   19.8945 H   0  0  0  0  0  0
  -22.3699  -10.9622   19.6119 H   0  0  0  0  0  0
  -21.1950   -7.6130   23.9726 H   0  0  0  0  0  0
  -21.1489   -6.0509   25.9097 H   0  0  0  0  0  0
  -22.0591   -2.7592   23.2870 H   0  0  0  0  0  0
  -22.4053  -11.9826   22.4711 H   0  0  0  0  0  0
  -21.1088  -13.1219   22.2562 H   0  0  0  0  0  0
  -24.6671  -15.8454   20.5361 H   0  0  0  0  0  0
  -26.2971  -15.6333   20.1382 H   0  0  0  0  0  0
  -26.7176  -32.5486   23.1153 H   0  0  0  0  0  0
  -25.0347  -33.9789   25.0637 H   0  0  0  0  0  0
  -22.7041  -31.3098   21.4080 H   0  0  0  0  0  0
  -23.3797  -35.9523   23.3332 H   0  0  0  0  0  0
  -24.3576  -36.8816   22.2063 H   0  0  0  0  0  0
  -23.7177  -37.6442   23.6619 H   0  0  0  0  0  0
  -26.0810  -31.5776   20.5989 H   0  0  0  0  0  0
  -26.8305  -30.8558   21.9936 H   0  0  0  0  0  0
  -28.1226  -29.0678   21.1322 H   0  0  0  0  0  0
  -26.0098  -25.9336   19.0471 H   0  0  0  0  0  0
  -23.9665  -27.2858   19.0550 H   0  0  0  0  0  0
  -23.7388  -30.5978   19.4049 H   0  0  0  0  0  0
  -22.7430  -29.2515   19.8591 H   0  0  0  0  0  0
  -25.1297  -36.1979   25.0861 H   0  0  0  0  0  0
  -21.0002  -28.3297   24.1402 H   0  0  0  0  0  0
  -20.5678  -26.2338   23.3636 H   0  0  0  0  0  0
  -21.6651  -26.7460   22.1211 H   0  0  0  0  0  0
  -19.6918  -25.6301   21.1260 H   0  0  0  0  0  0
  -19.6728  -27.3199   20.6743 H   0  0  0  0  0  0
  -17.4240  -26.6800   21.3934 H   0  0  0  0  0  0
  -18.0254  -26.0078   22.8913 H   0  0  0  0  0  0
  -19.7946  -30.7293   24.2234 H   0  0  0  0  0  0
  -17.5040  -31.6287   24.5169 H   0  0  0  0  0  0
  -15.5365  -30.2999   23.7714 H   0  0  0  0  0  0
  -15.8682  -28.0859   22.7060 H   0  0  0  0  0  0
  -24.6036  -30.6940   25.7839 H   0  0  0  0  0  0
  -24.8862  -32.2845   26.4813 H   0  0  0  0  0  0
  -25.8138  -30.9008   27.0283 H   0  0  0  0  0  0
  -26.2910  -29.6771   24.1181 H   0  0  0  0  0  0
  -27.4136  -29.7283   25.4603 H   0  0  0  0  0  0
  -27.8750  -30.4350   23.9291 H   0  0  0  0  0  0
  -27.2916  -33.3687   26.1842 H   0  0  0  0  0  0
  -28.4012  -32.6581   25.0206 H   0  0  0  0  0  0
  -28.0743  -31.8430   26.5414 H   0  0  0  0  0  0
  -28.2702  -38.0007   24.7418 H   0  0  0  0  0  0
  -28.0955  -36.2551   24.6481 H   0  0  0  0  0  0
  -27.2294  -37.1645   25.8915 H   0  0  0  0  0  0
  -20.9372  -29.8737   21.6828 H   0  0  0  0  0  0
  -26.0208  -38.2881   24.1317 H   0  0  0  0  0  0
  -26.9537  -23.2840   22.0368 H   0  0  0  0  0  0
  -29.5918  -21.3858   19.2241 H   0  0  0  0  0  0
  -28.1596  -21.4127   26.1497 H   0  0  0  0  0  0
  -28.7050  -21.0566   24.5157 H   0  0  0  0  0  0
  -27.6320  -19.9356   25.3566 H   0  0  0  0  0  0
  -24.3677  -21.3769   21.9915 H   0  0  0  0  0  0
  -24.8372  -22.8698   22.7988 H   0  0  0  0  0  0
  -24.0009  -21.6127   23.6902 H   0  0  0  0  0  0
  -28.2576  -23.2120   17.8475 H   0  0  0  0  0  0
  -28.0889  -24.9517   17.9801 H   0  0  0  0  0  0
  -26.8326  -23.8850   18.6190 H   0  0  0  0  0  0
  -32.5598  -25.9143   22.3861 H   0  0  0  0  0  0
  -31.8059  -24.3329   22.5401 H   0  0  0  0  0  0
  -31.3407  -25.6474   23.6292 H   0  0  0  0  0  0
  -26.8590  -22.7868   24.5102 H   0  0  0  0  0  0
  -25.8377  -21.6830   25.3904 H   0  0  0  0  0  0
  -31.0753  -18.8793   20.6028 H   0  0  0  0  0  0
  -30.7804  -17.6863   19.3936 H   0  0  0  0  0  0
  -28.2150  -18.1751   19.8278 H   0  0  0  0  0  0
  -29.1696  -19.1903   18.8296 H   0  0  0  0  0  0
  -29.7143  -17.3055   22.2286 H   0  0  0  0  0  0
  -31.3307  -16.8992   21.7849 H   0  0  0  0  0  0
  -29.2580  -24.3768   22.4648 H   0  0  0  0  0  0
  -28.7796  -26.0360   22.7122 H   0  0  0  0  0  0
  -25.8690  -20.0866   23.4992 H   0  0  0  0  0  0
  -29.6937  -24.0153   19.6326 H   0  0  0  0  0  0
  -27.2713  -25.1466   21.0966 H   0  0  0  0  0  0
  -28.9464  -15.3727   21.1986 H   0  0  0  0  0  0
  -30.8431  -25.4732   20.7314 H   0  0  0  0  0  0
  -30.5617  -26.8223   21.5789 H   0  0  0  0  0  0
  1 25  1  0  0  0
  1 30  2  0  0  0
  1 89  1  0  0  0
  2  3  1  0  0  0
  2 25  1  0  0  0
  2 92  1  0  0  0
  2 93  1  0  0  0
  3  4  1  0  0  0
  3 94  1  0  0  0
  3 95  1  0  0  0
  4  5  1  0  0  0
  4 96  1  0  0  0
  4 97  1  0  0  0
  5  6  1  0  0  0
  5 26  1  0  0  0
  5 98  1  0  0  0
  6 25  1  0  0  0
  6 99  1  0  0  0
  6100  1  0  0  0
  7  8  2  0  0  0
  7 26  1  0  0  0
  7 29  1  0  0  0
  8  9  1  0  0  0
  8 22  1  0  0  0
  9 10  1  0  0  0
  9 27  2  0  0  0
 10 11  2  0  0  0
 10 15  1  0  0  0
 11 12  1  0  0  0
 11101  1  0  0  0
 12 13  2  0  0  0
 12102  1  0  0  0
 13 14  1  0  0  0
 13 31  1  0  0  0
 14 15  2  0  0  0
 14103  1  0  0  0
 15104  1  0  0  0
 16 17  2  0  0  0
 16 21  1  0  0  0
 16 31  1  0  0  0
 17 18  1  0  0  0
 17105  1  0  0  0
 18 19  2  0  0  0
 18106  1  0  0  0
 19 20  1  0  0  0
 19 24  1  0  0  0
 20 21  2  0  0  0
 20107  1  0  0  0
 21 23  1  0  0  0
 22 28  1  0  0  0
 22 32  2  0  0  0
 26 27  1  0  0  0
 28108  1  0  0  0
 28109  1  0  0  0
 29110  1  0  0  0
 29111  1  0  0  0
 33 34  1  0  0  0
 33 66  1  0  0  0
 33 70  2  0  0  0
 34 36  1  0  0  0
 34 59  1  0  0  0
 34112  1  0  0  0
 35 44  2  0  0  0
 35 45  1  0  0  0
 35 68  1  0  0  0
 36 56  1  0  0  0
 36113  1  0  0  0
 37 39  1  0  0  0
 37 47  1  0  0  0
 37 66  1  0  0  0
 37114  1  0  0  0
 38 43  2  0  0  0
 38 46  1  0  0  0
 38 47  1  0  0  0
 39 64  1  0  0  0
 39 67  2  0  0  0
 40 52  1  0  0  0
 40 53  2  0  0  0
 40 58  1  0  0  0
 41115  1  0  0  0
 41116  1  0  0  0
 41117  1  0  0  0
 41 48  1  0  0  0
 42 43  1  0  0  0
 42 66  1  0  0  0
 42118  1  0  0  0
 42119  1  0  0  0
 43 44  1  0  0  0
 44120  1  0  0  0
 45 46  2  0  0  0
 45121  1  0  0  0
 46122  1  0  0  0
 47123  1  0  0  0
 47124  1  0  0  0
 48 56  1  0  0  0
 48 65  1  0  0  0
 48125  1  0  0  0
 49 50  1  0  0  0
 49 53  1  0  0  0
 49 64  1  0  0  0
 49126  1  0  0  0
 50 51  1  0  0  0
 50127  1  0  0  0
 50128  1  0  0  0
 51 52  1  0  0  0
 51129  1  0  0  0
 51130  1  0  0  0
 52131  1  0  0  0
 52132  1  0  0  0
 53 54  1  0  0  0
 54 55  2  0  0  0
 54133  1  0  0  0
 55 57  1  0  0  0
 55134  1  0  0  0
 56 69  2  0  0  0
 57 58  2  0  0  0
 57135  1  0  0  0
 58136  1  0  0  0
 59 60  1  0  0  0
 59 61  1  0  0  0
 59 62  1  0  0  0
 60137  1  0  0  0
 60138  1  0  0  0
 60139  1  0  0  0
 61140  1  0  0  0
 61141  1  0  0  0
 61142  1  0  0  0
 62143  1  0  0  0
 62144  1  0  0  0
 62145  1  0  0  0
 63 65  1  0  0  0
 63146  1  0  0  0
 63147  1  0  0  0
 63148  1  0  0  0
 64149  1  0  0  0
 65150  1  0  0  0
 68 87  1  0  0  0
 71 73  2  0  0  0
 71 74  1  0  0  0
 71151  1  0  0  0
 72 74  2  0  0  0
 72 88  1  0  0  0
 72152  1  0  0  0
 73 75  1  0  0  0
 73 85  1  0  0  0
 74 86  1  0  0  0
 75 88  1  0  0  0
 75 91  2  0  0  0
 76 80  1  0  0  0
 76153  1  0  0  0
 76154  1  0  0  0
 76155  1  0  0  0
 77156  1  0  0  0
 77157  1  0  0  0
 77158  1  0  0  0
 77 85  1  0  0  0
 78159  1  0  0  0
 78160  1  0  0  0
 78161  1  0  0  0
 78 86  1  0  0  0
 79 90  1  0  0  0
 79162  1  0  0  0
 79163  1  0  0  0
 79164  1  0  0  0
 80 85  1  0  0  0
 80165  1  0  0  0
 80166  1  0  0  0
 81 82  1  0  0  0
 81 83  1  0  0  0
 81167  1  0  0  0
 81168  1  0  0  0
 82 88  1  0  0  0
 82169  1  0  0  0
 82170  1  0  0  0
 83 89  1  0  0  0
 83171  1  0  0  0
 83172  1  0  0  0
 84 90  1  0  0  0
 84173  1  0  0  0
 84174  1  0  0  0
 84 87  1  0  0  0
 85175  1  0  0  0
 86 87  1  0  0  0
 86176  1  0  0  0
 87177  1  0  0  0
 89178  1  0  0  0
 90179  1  0  0  0
 90180  1  0  0  0
M  CHG  1  90   1
M  ISO  4   1 100  68 101  87 101  89 100
M  END
> <chiral flag>
0

> <version>
0

> <s_m_source_file>
/data/baiqing/PycharmProjects/Reinvent-master-3.2/result/LINK_invent/BTK/process_docking_weight1_custom_sum_contain_oxygen_bond_distance_aromatic_linkinvent_7_9_3/rearranged_h_0099.sdf

> <i_m_source_file_index>
51

> <r_mmod_Potential_Energy-OPLS-2005>
11.0043916702271

> <r_mmod_Stretch_Energy-OPLS-2005>
71.8334884643555

> <r_mmod_Bend_Energy-OPLS-2005>
144.888153076172

> <r_mmod_Torsional_Energy-OPLS-2005>
279.993988037109

> <r_mmod_Improper_Torsional_Energy-OPLS-2005>
3.73801970481873

> <r_mmod_Van_der_Waal_Energy-OPLS-2005>
143.279663085938

> <r_mmod_Electrostatic_Energy-OPLS-2005>
-227.840545654297

> <r_mmod_Solvation_Energy-OPLS-2005>
-433.613647460938

> <b_mmod_Minimization_Converged-OPLS-2005>
0

> <r_mmod_RMS_Derivative-OPLS-2005>
3.41696858406067

$$$$
51
                    3D
 Structure written by MMmdl.
163171  0  0  1  0            999 V2000
  -30.6745  -14.5167   20.5482 C   0  0  0  0  0  0
  -30.4261  -12.3269   19.4332 C   0  0  0  0  0  0
  -29.4988  -12.5084   18.2116 C   0  0  0  0  0  0
  -28.0218  -12.3617   18.6251 C   0  0  0  0  0  0
  -27.6622  -13.2091   19.8749 C   0  0  2  0  0  0
  -28.7032  -13.0102   21.0008 C   0  0  0  0  0  0
  -25.2601  -13.8161   20.5687 C   0  0  0  0  0  0
  -24.1859  -13.0441   20.9197 C   0  0  0  0  0  0
  -24.6404  -11.6899   20.8740 C   0  0  0  0  0  0
  -23.9070  -10.4284   21.0419 C   0  0  0  0  0  0
  -24.3622   -9.4200   21.9200 C   0  0  0  0  0  0
  -23.6299   -8.2239   22.0770 C   0  0  0  0  0  0
  -22.4279   -8.0288   21.3560 C   0  0  0  0  0  0
  -21.9916   -9.0261   20.4657 C   0  0  0  0  0  0
  -22.7243  -10.2138   20.3067 C   0  0  0  0  0  0
  -21.6851   -6.0745   22.5287 C   0  0  0  0  0  0
  -21.4001   -6.5654   23.8218 C   0  0  0  0  0  0
  -21.3649   -5.6811   24.9179 C   0  0  0  0  0  0
  -21.6046   -4.3073   24.7228 C   0  0  0  0  0  0
  -21.8818   -3.8161   23.4351 C   0  0  0  0  0  0
  -21.9193   -4.6975   22.3405 C   0  0  0  0  0  0
  -22.7881  -13.5245   21.1867 C   0  0  0  0  0  0
  -22.1666   -4.2160   21.0981 F   0  0  0  0  0  0
  -21.5617   -3.4554   25.7740 F   0  0  0  0  0  0
  -30.0316  -13.3198   20.4471 N   0  0  0  0  0  0
  -26.3036  -12.9327   20.3368 N   0  0  0  0  0  0
  -25.9334  -11.6486   20.5769 N   0  0  0  0  0  0
  -22.0520  -12.8236   22.0403 N   0  0  0  0  0  0
  -25.4321  -15.1868   20.4037 N   0  0  0  0  0  0
  -31.8077  -14.7067   20.1001 O   0  0  0  0  0  0
  -21.6628   -6.8896   21.4259 O   0  0  0  0  0  0
  -22.3581  -14.5574   20.6734 O   0  0  0  0  0  0
  -24.6156  -31.8657   23.2092 C   0  0  0  0  0  0
  -25.9044  -32.4796   23.8406 C   0  0  1  0  0  0
  -27.2385  -27.4190   20.1049 C   0  0  0  0  0  0
  -25.5885  -33.8596   24.2341 N   0  0  0  0  0  0
  -23.4072  -30.4843   21.5503 C   0  0  2  0  0  0
  -24.8571  -28.9448   20.1162 C   0  0  0  0  0  0
  -22.7422  -29.4648   22.5016 C   0  0  0  0  0  0
  -18.0263  -28.1386   22.8482 C   0  0  0  0  0  0
  -24.1487  -36.7317   23.2652 C   0  0  0  0  0  0
  -25.9353  -30.8269   21.3622 C   0  0  0  0  0  0
  -26.0156  -29.4575   20.7145 C   0  0  0  0  0  0
  -27.2125  -28.7038   20.7002 C   0  0  0  0  0  0
  -26.0700  -26.9218   19.4958 C   0  0  0  0  0  0
  -24.8821  -27.6794   19.4988 C   0  0  0  0  0  0
  -23.6168  -29.8108   20.1660 C   0  0  0  0  0  0
  -25.4097  -36.3101   24.0350 C   0  0  1  0  0  0
  -20.5853  -28.3689   23.1317 C   0  0  2  0  0  0
  -20.6752  -26.9426   22.5419 C   0  0  0  0  0  0
  -19.5738  -26.6393   21.5206 C   0  0  0  0  0  0
  -18.1917  -26.7934   22.1613 C   0  0  0  0  0  0
  -19.1506  -28.8856   23.2888 C   0  0  0  0  0  0
  -18.9433  -30.1456   23.8914 C   0  0  0  0  0  0
  -17.6439  -30.6597   24.0566 C   0  0  0  0  0  0
  -25.9019  -34.9456   23.5146 C   0  0  0  0  0  0
  -16.5328  -29.9093   23.6328 C   0  0  0  0  0  0
  -16.7250  -28.6501   23.0359 C   0  0  0  0  0  0
  -26.4470  -31.6569   25.0731 C   0  0  0  0  0  0
  -25.3728  -31.3627   26.1471 C   0  0  0  0  0  0
  -27.0307  -30.3018   24.6084 C   0  0  0  0  0  0
  -27.6066  -32.4294   25.7476 C   0  0  0  0  0  0
  -27.5572  -37.1799   24.8471 C   0  0  0  0  0  0
  -21.4150  -29.3040   22.3736 N   0  0  0  0  0  0
  -26.4285  -37.3780   23.9416 N   0  0  0  0  0  0
  -24.6721  -31.0743   22.0994 N   0  0  0  0  0  0
  -23.4181  -28.8199   23.3083 O   0  0  0  0  0  0
  -28.4067  -26.6840   20.0745 O   0  0  0  0  0  0
  -26.5594  -34.8914   22.4722 O   0  0  0  0  0  0
  -23.5340  -32.1414   23.7468 O   0  0  0  0  0  0
  -29.0705  -20.4828   21.2560 C   0  0  0  0  0  0
  -28.9677  -19.3204   20.5290 C   0  0  0  0  0  0
  -28.8150  -19.7340   19.1690 C   0  0  0  0  0  0
  -28.8711  -21.1075   19.1189 C   0  0  0  0  0  0
  -28.6132  -18.8252   17.9792 C   0  0  0  0  0  0
  -28.8108  -21.9964   17.9141 C   0  0  0  0  0  0
  -27.7800  -25.6538   22.2628 C   0  0  0  0  0  0
  -28.9379  -17.8776   21.0595 C   0  0  0  0  0  0
  -28.3242  -24.1426   20.2322 C   0  0  0  0  0  0
  -29.1552  -22.9887   20.8950 C   0  0  0  0  0  0
  -30.1878  -16.9884   20.7756 C   0  0  0  0  0  0
  -28.5425  -25.5217   20.9305 C   0  0  1  0  0  0
  -28.9968  -21.5934   20.4177 N   0  0  0  0  0  0
  -29.9170  -15.5457   20.9881 N   0  0  0  0  0  0
  -31.4728  -12.4234   19.1349 H   0  0  0  0  0  0
  -30.3243  -11.3197   19.8398 H   0  0  0  0  0  0
  -29.7410  -11.7726   17.4446 H   0  0  0  0  0  0
  -29.6619  -13.4882   17.7588 H   0  0  0  0  0  0
  -27.8468  -11.3074   18.8373 H   0  0  0  0  0  0
  -27.3665  -12.6214   17.7928 H   0  0  0  0  0  0
  -27.7010  -14.2548   19.5690 H   0  0  0  0  0  0
  -28.6835  -11.9814   21.3634 H   0  0  0  0  0  0
  -28.4621  -13.6273   21.8683 H   0  0  0  0  0  0
  -25.2769   -9.5687   22.4773 H   0  0  0  0  0  0
  -24.0011   -7.4636   22.7499 H   0  0  0  0  0  0
  -21.0846   -8.8801   19.8957 H   0  0  0  0  0  0
  -22.3721  -10.9697   19.6184 H   0  0  0  0  0  0
  -21.1997   -7.6166   23.9719 H   0  0  0  0  0  0
  -21.1458   -6.0540   25.9082 H   0  0  0  0  0  0
  -22.0601   -2.7624   23.2846 H   0  0  0  0  0  0
  -22.4117  -11.9869   22.4764 H   0  0  0  0  0  0
  -21.1148  -13.1273   22.2629 H   0  0  0  0  0  0
  -24.6630  -15.8412   20.4960 H   0  0  0  0  0  0
  -26.2745  -15.6138   20.0412 H   0  0  0  0  0  0
  -26.7120  -32.5521   23.1176 H   0  0  0  0  0  0
  -25.0037  -33.9755   25.0485 H   0  0  0  0  0  0
  -22.6967  -31.3008   21.4080 H   0  0  0  0  0  0
  -23.3735  -35.9660   23.3316 H   0  0  0  0  0  0
  -24.3577  -36.8937   22.2067 H   0  0  0  0  0  0
  -23.7242  -37.6524   23.6664 H   0  0  0  0  0  0
  -26.0377  -31.5848   20.5859 H   0  0  0  0  0  0
  -26.8277  -30.8917   21.9730 H   0  0  0  0  0  0
  -28.1135  -29.0958   21.1532 H   0  0  0  0  0  0
  -26.0844  -25.9535   19.0159 H   0  0  0  0  0  0
  -23.9982  -27.2882   19.0171 H   0  0  0  0  0  0
  -23.7200  -30.5815   19.4019 H   0  0  0  0  0  0
  -22.7425  -29.2262   19.8731 H   0  0  0  0  0  0
  -25.1259  -36.1977   25.0832 H   0  0  0  0  0  0
  -20.9913  -28.3257   24.1446 H   0  0  0  0  0  0
  -20.5672  -26.2295   23.3598 H   0  0  0  0  0  0
  -21.6625  -26.7485   22.1205 H   0  0  0  0  0  0
  -19.6914  -25.6300   21.1234 H   0  0  0  0  0  0
  -19.6678  -27.3210   20.6737 H   0  0  0  0  0  0
  -17.4186  -26.6685   21.4015 H   0  0  0  0  0  0
  -18.0314  -26.0070   22.8995 H   0  0  0  0  0  0
  -19.7917  -30.7250   24.2309 H   0  0  0  0  0  0
  -17.5001  -31.6276   24.5183 H   0  0  0  0  0  0
  -15.5331  -30.3005   23.7668 H   0  0  0  0  0  0
  -15.8633  -28.0829   22.7095 H   0  0  0  0  0  0
  -24.5930  -30.6952   25.7785 H   0  0  0  0  0  0
  -24.8870  -32.2741   26.4962 H   0  0  0  0  0  0
  -25.8084  -30.8763   27.0205 H   0  0  0  0  0  0
  -26.2818  -29.6727   24.1256 H   0  0  0  0  0  0
  -27.4218  -29.7303   25.4512 H   0  0  0  0  0  0
  -27.8588  -30.4367   23.9126 H   0  0  0  0  0  0
  -27.2726  -33.3619   26.2039 H   0  0  0  0  0  0
  -28.3855  -32.6803   25.0262 H   0  0  0  0  0  0
  -28.0735  -31.8407   26.5380 H   0  0  0  0  0  0
  -28.2595  -38.0096   24.7510 H   0  0  0  0  0  0
  -28.1063  -36.2617   24.6303 H   0  0  0  0  0  0
  -27.2284  -37.1463   25.8876 H   0  0  0  0  0  0
  -20.9356  -29.8744   21.6906 H   0  0  0  0  0  0
  -26.0181  -38.2863   24.1392 H   0  0  0  0  0  0
  -29.1910  -20.6225   22.3251 H   0  0  0  0  0  0
  -28.9062  -17.7984   18.1948 H   0  0  0  0  0  0
  -29.2013  -19.1642   17.1274 H   0  0  0  0  0  0
  -27.5637  -18.8192   17.6840 H   0  0  0  0  0  0
  -29.5963  -22.7509   17.9370 H   0  0  0  0  0  0
  -27.8415  -22.4908   17.8358 H   0  0  0  0  0  0
  -28.9546  -21.4317   16.9946 H   0  0  0  0  0  0
  -28.0674  -24.8710   22.9650 H   0  0  0  0  0  0
  -26.7019  -25.5853   22.1170 H   0  0  0  0  0  0
  -27.9943  -26.6084   22.7440 H   0  0  0  0  0  0
  -28.0566  -17.4046   20.6251 H   0  0  0  0  0  0
  -28.7526  -17.9061   22.1349 H   0  0  0  0  0  0
  -27.2628  -23.8953   20.2093 H   0  0  0  0  0  0
  -28.6302  -24.2680   19.1977 H   0  0  0  0  0  0
  -28.9310  -22.9811   21.9618 H   0  0  0  0  0  0
  -30.2159  -23.2321   20.8269 H   0  0  0  0  0  0
  -30.5103  -17.1308   19.7429 H   0  0  0  0  0  0
  -31.0259  -17.3040   21.3996 H   0  0  0  0  0  0
  -29.6007  -25.5555   21.1895 H   0  0  0  0  0  0
  -29.0108  -15.2981   21.3558 H   0  0  0  0  0  0
  1 25  1  0  0  0
  1 30  2  0  0  0
  1 84  1  0  0  0
  2  3  1  0  0  0
  2 25  1  0  0  0
  2 85  1  0  0  0
  2 86  1  0  0  0
  3  4  1  0  0  0
  3 87  1  0  0  0
  3 88  1  0  0  0
  4  5  1  0  0  0
  4 89  1  0  0  0
  4 90  1  0  0  0
  5  6  1  0  0  0
  5 26  1  0  0  0
  5 91  1  0  0  0
  6 25  1  0  0  0
  6 92  1  0  0  0
  6 93  1  0  0  0
  7  8  2  0  0  0
  7 26  1  0  0  0
  7 29  1  0  0  0
  8  9  1  0  0  0
  8 22  1  0  0  0
  9 10  1  0  0  0
  9 27  2  0  0  0
 10 11  2  0  0  0
 10 15  1  0  0  0
 11 12  1  0  0  0
 11 94  1  0  0  0
 12 13  2  0  0  0
 12 95  1  0  0  0
 13 14  1  0  0  0
 13 31  1  0  0  0
 14 15  2  0  0  0
 14 96  1  0  0  0
 15 97  1  0  0  0
 16 17  2  0  0  0
 16 21  1  0  0  0
 16 31  1  0  0  0
 17 18  1  0  0  0
 17 98  1  0  0  0
 18 19  2  0  0  0
 18 99  1  0  0  0
 19 20  1  0  0  0
 19 24  1  0  0  0
 20 21  2  0  0  0
 20100  1  0  0  0
 21 23  1  0  0  0
 22 28  1  0  0  0
 22 32  2  0  0  0
 26 27  1  0  0  0
 28101  1  0  0  0
 28102  1  0  0  0
 29103  1  0  0  0
 29104  1  0  0  0
 33 34  1  0  0  0
 33 66  1  0  0  0
 33 70  2  0  0  0
 34 36  1  0  0  0
 34 59  1  0  0  0
 34105  1  0  0  0
 35 44  2  0  0  0
 35 45  1  0  0  0
 35 68  1  0  0  0
 36 56  1  0  0  0
 36106  1  0  0  0
 37 39  1  0  0  0
 37 47  1  0  0  0
 37 66  1  0  0  0
 37107  1  0  0  0
 38 43  2  0  0  0
 38 46  1  0  0  0
 38 47  1  0  0  0
 39 64  1  0  0  0
 39 67  2  0  0  0
 40 52  1  0  0  0
 40 53  2  0  0  0
 40 58  1  0  0  0
 41108  1  0  0  0
 41109  1  0  0  0
 41110  1  0  0  0
 41 48  1  0  0  0
 42 43  1  0  0  0
 42 66  1  0  0  0
 42111  1  0  0  0
 42112  1  0  0  0
 43 44  1  0  0  0
 44113  1  0  0  0
 45 46  2  0  0  0
 45114  1  0  0  0
 46115  1  0  0  0
 47116  1  0  0  0
 47117  1  0  0  0
 48 56  1  0  0  0
 48 65  1  0  0  0
 48118  1  0  0  0
 49 50  1  0  0  0
 49 53  1  0  0  0
 49 64  1  0  0  0
 49119  1  0  0  0
 50 51  1  0  0  0
 50120  1  0  0  0
 50121  1  0  0  0
 51 52  1  0  0  0
 51122  1  0  0  0
 51123  1  0  0  0
 52124  1  0  0  0
 52125  1  0  0  0
 53 54  1  0  0  0
 54 55  2  0  0  0
 54126  1  0  0  0
 55 57  1  0  0  0
 55127  1  0  0  0
 56 69  2  0  0  0
 57 58  2  0  0  0
 57128  1  0  0  0
 58129  1  0  0  0
 59 60  1  0  0  0
 59 61  1  0  0  0
 59 62  1  0  0  0
 60130  1  0  0  0
 60131  1  0  0  0
 60132  1  0  0  0
 61133  1  0  0  0
 61134  1  0  0  0
 61135  1  0  0  0
 62136  1  0  0  0
 62137  1  0  0  0
 62138  1  0  0  0
 63 65  1  0  0  0
 63139  1  0  0  0
 63140  1  0  0  0
 63141  1  0  0  0
 64142  1  0  0  0
 65143  1  0  0  0
 68 82  1  0  0  0
 71 72  2  0  0  0
 71 83  1  0  0  0
 71144  1  0  0  0
 72 73  1  0  0  0
 72 78  1  0  0  0
 73 74  2  0  0  0
 73 75  1  0  0  0
 74 76  1  0  0  0
 74 83  1  0  0  0
 75145  1  0  0  0
 75146  1  0  0  0
 75147  1  0  0  0
 76148  1  0  0  0
 76149  1  0  0  0
 76150  1  0  0  0
 77151  1  0  0  0
 77152  1  0  0  0
 77153  1  0  0  0
 77 82  1  0  0  0
 78 81  1  0  0  0
 78154  1  0  0  0
 78155  1  0  0  0
 79 80  1  0  0  0
 79 82  1  0  0  0
 79156  1  0  0  0
 79157  1  0  0  0
 80 83  1  0  0  0
 80158  1  0  0  0
 80159  1  0  0  0
 81 84  1  0  0  0
 81160  1  0  0  0
 81161  1  0  0  0
 82162  1  0  0  0
 84163  1  0  0  0
M  ISO  4   1 100  68 101  82 101  84 100
M  END
> <chiral flag>
0

> <version>
0

> <s_m_source_file>
/data/baiqing/PycharmProjects/Reinvent-master-3.2/result/LINK_invent/BTK/process_docking_weight1_custom_sum_contain_oxygen_bond_distance_aromatic_linkinvent_7_9_3/rearranged_h_0099.sdf

> <i_m_source_file_index>
52

> <r_mmod_Potential_Energy-OPLS-2005>
-99.3776931762695

> <r_mmod_Stretch_Energy-OPLS-2005>
43.8959732055664

> <r_mmod_Bend_Energy-OPLS-2005>
117.056632995605

> <r_mmod_Torsional_Energy-OPLS-2005>
239.633041381836

> <r_mmod_Improper_Torsional_Energy-OPLS-2005>
5.54000234603882

> <r_mmod_Van_der_Waal_Energy-OPLS-2005>
119.956764221191

> <r_mmod_Electrostatic_Energy-OPLS-2005>
-429.920867919922

> <r_mmod_Solvation_Energy-OPLS-2005>
-211.433319091797

> <b_mmod_Minimization_Converged-OPLS-2005>
0

> <r_mmod_RMS_Derivative-OPLS-2005>
2.78488683700562

$$$$
52
                    3D
 Structure written by MMmdl.
180188  0  0  1  0            999 V2000
  -30.6219  -14.8744   20.4386 C   0  0  0  0  0  0
  -30.4412  -12.5660   19.4542 C   0  0  0  0  0  0
  -29.4980  -12.4984   18.2322 C   0  0  0  0  0  0
  -28.0366  -12.2866   18.6713 C   0  0  0  0  0  0
  -27.6209  -13.1982   19.8535 C   0  0  2  0  0  0
  -28.6871  -13.2569   20.9651 C   0  0  0  0  0  0
  -25.2291  -13.7532   20.5500 C   0  0  0  0  0  0
  -24.1647  -12.9982   20.9278 C   0  0  0  0  0  0
  -24.6319  -11.6554   20.8860 C   0  0  0  0  0  0
  -23.9000  -10.4023   21.0451 C   0  0  0  0  0  0
  -24.3537   -9.3978   21.9240 C   0  0  0  0  0  0
  -23.6227   -8.2009   22.0753 C   0  0  0  0  0  0
  -22.4208   -8.0098   21.3493 C   0  0  0  0  0  0
  -21.9883   -9.0076   20.4581 C   0  0  0  0  0  0
  -22.7189  -10.1965   20.3064 C   0  0  0  0  0  0
  -21.6750   -6.0708   22.5290 C   0  0  0  0  0  0
  -21.3945   -6.5610   23.8237 C   0  0  0  0  0  0
  -21.3684   -5.6761   24.9194 C   0  0  0  0  0  0
  -21.6067   -4.3036   24.7219 C   0  0  0  0  0  0
  -21.8825   -3.8141   23.4336 C   0  0  0  0  0  0
  -21.9168   -4.6968   22.3418 C   0  0  0  0  0  0
  -22.7725  -13.4952   21.1899 C   0  0  0  0  0  0
  -22.1652   -4.2161   21.0998 F   0  0  0  0  0  0
  -21.5662   -3.4556   25.7753 F   0  0  0  0  0  0
  -29.9574  -13.6564   20.3366 N   0  0  0  0  0  0
  -26.2856  -12.8896   20.3426 N   0  0  0  0  0  0
  -25.9285  -11.6107   20.5984 N   0  0  0  0  0  0
  -22.0399  -12.8018   22.0538 N   0  0  0  0  0  0
  -25.3548  -15.0972   20.3311 N   0  0  0  0  0  0
  -31.8503  -14.8788   20.3484 O   0  0  0  0  0  0
  -21.6485   -6.8767   21.4210 O   0  0  0  0  0  0
  -22.3474  -14.5297   20.6768 O   0  0  0  0  0  0
  -24.6240  -31.8596   23.1915 C   0  0  0  0  0  0
  -25.9073  -32.4779   23.8280 C   0  0  1  0  0  0
  -27.2514  -27.3058   20.1292 C   0  0  0  0  0  0
  -25.5856  -33.8561   24.2228 N   0  0  0  0  0  0
  -23.4225  -30.4759   21.5377 C   0  0  2  0  0  0
  -24.8741  -28.9170   20.1184 C   0  0  0  0  0  0
  -22.7489  -29.4623   22.4929 C   0  0  0  0  0  0
  -18.0287  -28.1400   22.8509 C   0  0  0  0  0  0
  -24.1489  -36.7296   23.2644 C   0  0  0  0  0  0
  -25.9595  -30.7965   21.3512 C   0  0  0  0  0  0
  -26.0444  -29.4127   20.7070 C   0  0  0  0  0  0
  -27.2367  -28.6230   20.6953 C   0  0  0  0  0  0
  -26.0558  -26.8576   19.5307 C   0  0  0  0  0  0
  -24.8816  -27.6435   19.5239 C   0  0  0  0  0  0
  -23.6355  -29.7938   20.1601 C   0  0  0  0  0  0
  -25.4106  -36.3058   24.0331 C   0  0  1  0  0  0
  -20.5908  -28.3712   23.1296 C   0  0  2  0  0  0
  -20.6769  -26.9417   22.5450 C   0  0  0  0  0  0
  -19.5717  -26.6375   21.5261 C   0  0  0  0  0  0
  -18.1905  -26.7936   22.1673 C   0  0  0  0  0  0
  -19.1556  -28.8865   23.2895 C   0  0  0  0  0  0
  -18.9459  -30.1475   23.8907 C   0  0  0  0  0  0
  -17.6459  -30.6596   24.0578 C   0  0  0  0  0  0
  -25.9046  -34.9443   23.5101 C   0  0  0  0  0  0
  -16.5353  -29.9110   23.6308 C   0  0  0  0  0  0
  -16.7282  -28.6529   23.0326 C   0  0  0  0  0  0
  -26.4402  -31.6566   25.0664 C   0  0  0  0  0  0
  -25.3591  -31.3783   26.1379 C   0  0  0  0  0  0
  -27.0178  -30.2950   24.6109 C   0  0  0  0  0  0
  -27.5943  -32.4272   25.7474 C   0  0  0  0  0  0
  -27.5574  -37.1802   24.8446 C   0  0  0  0  0  0
  -21.4194  -29.3057   22.3663 N   0  0  0  0  0  0
  -26.4265  -37.3783   23.9416 N   0  0  0  0  0  0
  -24.6903  -31.0613   22.0848 N   0  0  0  0  0  0
  -23.4211  -28.8171   23.3031 O   0  0  0  0  0  0
  -28.3888  -26.4780   20.0741 O   0  0  0  0  0  0
  -26.5659  -34.8945   22.4696 O   0  0  0  0  0  0
  -23.5393  -32.1356   23.7258 O   0  0  0  0  0  0
  -27.5338  -18.6106   23.3847 C   0  0  0  0  0  0
  -28.6949  -20.6232   22.8188 C   0  0  0  0  0  0
  -27.8641  -19.9275   23.7080 C   0  0  0  0  0  0
  -28.1049  -17.9897   22.2610 C   0  0  0  0  0  0
  -29.2839  -20.0254   21.6660 C   0  0  0  0  0  0
  -29.1952  -18.5480   21.5349 C   0  0  0  0  0  0
  -26.2223  -17.9852   20.7113 C   0  0  0  0  0  0
  -30.4951  -16.5136   17.8356 C   0  0  0  0  0  0
  -27.4342  -19.9276   26.2159 C   0  0  0  0  0  0
  -25.6760  -20.8468   24.6198 C   0  0  0  0  0  0
  -29.3506  -23.9695   18.6230 C   0  0  0  0  0  0
  -27.1364  -17.0726   21.5708 C   0  0  0  0  0  0
  -29.8512  -21.0744   20.6199 C   0  0  0  0  0  0
  -30.2499  -17.5176   20.8594 C   0  0  0  0  0  0
  -29.7090  -22.6989   20.8321 C   0  0  0  0  0  0
  -29.4052  -16.3466   18.9213 C   0  0  0  0  0  0
  -28.3961  -25.1428   20.7447 C   0  0  0  0  0  0
  -27.1833  -20.6393   24.8773 C   0  0  0  0  0  0
  -28.7431  -23.7262   20.0204 C   0  0  1  0  0  0
  -29.9160  -16.0993   20.2921 N   0  0  0  0  0  0
  -31.4566  -12.7558   19.1076 H   0  0  0  0  0  0
  -30.4707  -11.6179   19.9899 H   0  0  0  0  0  0
  -29.8099  -11.6978   17.5591 H   0  0  0  0  0  0
  -29.5733  -13.4204   17.6515 H   0  0  0  0  0  0
  -27.9212  -11.2378   18.9582 H   0  0  0  0  0  0
  -27.3689  -12.4446   17.8254 H   0  0  0  0  0  0
  -27.5389  -14.1900   19.4391 H   0  0  0  0  0  0
  -28.7829  -12.2901   21.4639 H   0  0  0  0  0  0
  -28.4103  -13.9851   21.7285 H   0  0  0  0  0  0
  -25.2674   -9.5514   22.4817 H   0  0  0  0  0  0
  -23.9956   -7.4397   22.7485 H   0  0  0  0  0  0
  -21.0850   -8.8582   19.8834 H   0  0  0  0  0  0
  -22.3671  -10.9498   19.6176 H   0  0  0  0  0  0
  -21.1856   -7.6094   23.9745 H   0  0  0  0  0  0
  -21.1527   -6.0478   25.9106 H   0  0  0  0  0  0
  -22.0600   -2.7603   23.2821 H   0  0  0  0  0  0
  -22.4066  -11.9649   22.4803 H   0  0  0  0  0  0
  -21.1021  -13.1002   22.2803 H   0  0  0  0  0  0
  -24.5801  -15.7314   20.4792 H   0  0  0  0  0  0
  -26.2212  -15.5645   20.1002 H   0  0  0  0  0  0
  -26.7192  -32.5481   23.1083 H   0  0  0  0  0  0
  -24.9831  -33.9666   25.0251 H   0  0  0  0  0  0
  -22.7185  -31.2961   21.3850 H   0  0  0  0  0  0
  -23.3744  -35.9636   23.3257 H   0  0  0  0  0  0
  -24.3616  -36.8957   22.2071 H   0  0  0  0  0  0
  -23.7216  -37.6483   23.6690 H   0  0  0  0  0  0
  -26.0733  -31.5610   20.5795 H   0  0  0  0  0  0
  -26.8442  -30.8670   21.9728 H   0  0  0  0  0  0
  -28.1448  -29.0195   21.1301 H   0  0  0  0  0  0
  -26.0364  -25.8820   19.0659 H   0  0  0  0  0  0
  -23.9803  -27.2527   19.0729 H   0  0  0  0  0  0
  -23.7369  -30.5575   19.3877 H   0  0  0  0  0  0
  -22.7587  -29.2079   19.8737 H   0  0  0  0  0  0
  -25.1280  -36.1919   25.0820 H   0  0  0  0  0  0
  -21.0024  -28.3285   24.1408 H   0  0  0  0  0  0
  -20.5681  -26.2311   23.3670 H   0  0  0  0  0  0
  -21.6628  -26.7416   22.1238 H   0  0  0  0  0  0
  -19.6871  -25.6276   21.1282 H   0  0  0  0  0  0
  -19.6640  -27.3201   20.6800 H   0  0  0  0  0  0
  -17.4179  -26.6696   21.4076 H   0  0  0  0  0  0
  -18.0280  -26.0101   22.9083 H   0  0  0  0  0  0
  -19.7931  -30.7296   24.2278 H   0  0  0  0  0  0
  -17.5003  -31.6273   24.5176 H   0  0  0  0  0  0
  -15.5360  -30.3012   23.7603 H   0  0  0  0  0  0
  -15.8687  -28.0868   22.6995 H   0  0  0  0  0  0
  -24.5740  -30.7163   25.7712 H   0  0  0  0  0  0
  -24.8817  -32.3002   26.4722 H   0  0  0  0  0  0
  -25.7877  -30.8998   27.0197 H   0  0  0  0  0  0
  -26.2757  -29.6820   24.0980 H   0  0  0  0  0  0
  -27.3644  -29.7109   25.4646 H   0  0  0  0  0  0
  -27.8726  -30.4178   23.9451 H   0  0  0  0  0  0
  -27.2497  -33.3548   26.2068 H   0  0  0  0  0  0
  -28.3765  -32.6867   25.0324 H   0  0  0  0  0  0
  -28.0572  -31.8366   26.5391 H   0  0  0  0  0  0
  -28.2556  -38.0135   24.7537 H   0  0  0  0  0  0
  -28.1100  -36.2667   24.6192 H   0  0  0  0  0  0
  -27.2321  -37.1364   25.8857 H   0  0  0  0  0  0
  -20.9351  -29.8768   21.6872 H   0  0  0  0  0  0
  -26.0131  -38.2853   24.1454 H   0  0  0  0  0  0
  -26.7056  -18.1470   23.9042 H   0  0  0  0  0  0
  -28.8220  -21.6692   23.0385 H   0  0  0  0  0  0
  -26.8097  -18.5528   19.9946 H   0  0  0  0  0  0
  -25.6792  -18.6987   21.3329 H   0  0  0  0  0  0
  -25.4719  -17.4736   20.1258 H   0  0  0  0  0  0
  -31.1595  -17.3593   18.0257 H   0  0  0  0  0  0
  -30.0318  -16.6794   16.8628 H   0  0  0  0  0  0
  -31.1133  -15.6207   17.7287 H   0  0  0  0  0  0
  -28.5010  -19.8391   26.4184 H   0  0  0  0  0  0
  -27.0052  -18.9264   26.2302 H   0  0  0  0  0  0
  -26.9959  -20.4826   27.0443 H   0  0  0  0  0  0
  -25.5047  -21.4377   23.7196 H   0  0  0  0  0  0
  -25.2050  -21.3824   25.4479 H   0  0  0  0  0  0
  -25.1453  -19.8999   24.5021 H   0  0  0  0  0  0
  -29.7011  -23.0382   18.1683 H   0  0  0  0  0  0
  -30.2110  -24.6380   18.6882 H   0  0  0  0  0  0
  -28.6361  -24.4222   17.9322 H   0  0  0  0  0  0
  -26.5539  -16.5232   22.3147 H   0  0  0  0  0  0
  -27.6226  -16.3197   20.9702 H   0  0  0  0  0  0
  -29.5116  -20.8006   19.6191 H   0  0  0  0  0  0
  -30.9225  -20.8744   20.6125 H   0  0  0  0  0  0
  -30.9864  -17.3457   21.6487 H   0  0  0  0  0  0
  -30.8108  -18.0794   20.1166 H   0  0  0  0  0  0
  -30.6916  -23.0383   20.5066 H   0  0  0  0  0  0
  -29.7571  -22.9839   21.8772 H   0  0  0  0  0  0
  -28.7645  -15.5378   18.5987 H   0  0  0  0  0  0
  -28.7566  -17.2251   18.9142 H   0  0  0  0  0  0
  -29.1487  -25.2659   21.5224 H   0  0  0  0  0  0
  -27.4664  -25.0314   21.3049 H   0  0  0  0  0  0
  -27.6241  -21.6311   24.9663 H   0  0  0  0  0  0
  -27.7835  -23.2272   19.8646 H   0  0  0  0  0  0
  1 25  1  0  0  0
  1 30  2  0  0  0
  1 90  1  0  0  0
  2  3  1  0  0  0
  2 25  1  0  0  0
  2 91  1  0  0  0
  2 92  1  0  0  0
  3  4  1  0  0  0
  3 93  1  0  0  0
  3 94  1  0  0  0
  4  5  1  0  0  0
  4 95  1  0  0  0
  4 96  1  0  0  0
  5  6  1  0  0  0
  5 26  1  0  0  0
  5 97  1  0  0  0
  6 25  1  0  0  0
  6 98  1  0  0  0
  6 99  1  0  0  0
  7  8  2  0  0  0
  7 26  1  0  0  0
  7 29  1  0  0  0
  8  9  1  0  0  0
  8 22  1  0  0  0
  9 10  1  0  0  0
  9 27  2  0  0  0
 10 11  2  0  0  0
 10 15  1  0  0  0
 11 12  1  0  0  0
 11100  1  0  0  0
 12 13  2  0  0  0
 12101  1  0  0  0
 13 14  1  0  0  0
 13 31  1  0  0  0
 14 15  2  0  0  0
 14102  1  0  0  0
 15103  1  0  0  0
 16 17  2  0  0  0
 16 21  1  0  0  0
 16 31  1  0  0  0
 17 18  1  0  0  0
 17104  1  0  0  0
 18 19  2  0  0  0
 18105  1  0  0  0
 19 20  1  0  0  0
 19 24  1  0  0  0
 20 21  2  0  0  0
 20106  1  0  0  0
 21 23  1  0  0  0
 22 28  1  0  0  0
 22 32  2  0  0  0
 26 27  1  0  0  0
 28107  1  0  0  0
 28108  1  0  0  0
 29109  1  0  0  0
 29110  1  0  0  0
 33 34  1  0  0  0
 33 66  1  0  0  0
 33 70  2  0  0  0
 34 36  1  0  0  0
 34 59  1  0  0  0
 34111  1  0  0  0
 35 44  2  0  0  0
 35 45  1  0  0  0
 35 68  1  0  0  0
 36 56  1  0  0  0
 36112  1  0  0  0
 37 39  1  0  0  0
 37 47  1  0  0  0
 37 66  1  0  0  0
 37113  1  0  0  0
 38 43  2  0  0  0
 38 46  1  0  0  0
 38 47  1  0  0  0
 39 64  1  0  0  0
 39 67  2  0  0  0
 40 52  1  0  0  0
 40 53  2  0  0  0
 40 58  1  0  0  0
 41114  1  0  0  0
 41115  1  0  0  0
 41116  1  0  0  0
 41 48  1  0  0  0
 42 43  1  0  0  0
 42 66  1  0  0  0
 42117  1  0  0  0
 42118  1  0  0  0
 43 44  1  0  0  0
 44119  1  0  0  0
 45 46  2  0  0  0
 45120  1  0  0  0
 46121  1  0  0  0
 47122  1  0  0  0
 47123  1  0  0  0
 48 56  1  0  0  0
 48 65  1  0  0  0
 48124  1  0  0  0
 49 50  1  0  0  0
 49 53  1  0  0  0
 49 64  1  0  0  0
 49125  1  0  0  0
 50 51  1  0  0  0
 50126  1  0  0  0
 50127  1  0  0  0
 51 52  1  0  0  0
 51128  1  0  0  0
 51129  1  0  0  0
 52130  1  0  0  0
 52131  1  0  0  0
 53 54  1  0  0  0
 54 55  2  0  0  0
 54132  1  0  0  0
 55 57  1  0  0  0
 55133  1  0  0  0
 56 69  2  0  0  0
 57 58  2  0  0  0
 57134  1  0  0  0
 58135  1  0  0  0
 59 60  1  0  0  0
 59 61  1  0  0  0
 59 62  1  0  0  0
 60136  1  0  0  0
 60137  1  0  0  0
 60138  1  0  0  0
 61139  1  0  0  0
 61140  1  0  0  0
 61141  1  0  0  0
 62142  1  0  0  0
 62143  1  0  0  0
 62144  1  0  0  0
 63 65  1  0  0  0
 63145  1  0  0  0
 63146  1  0  0  0
 63147  1  0  0  0
 64148  1  0  0  0
 65149  1  0  0  0
 68 87  1  0  0  0
 71 73  2  0  0  0
 71 74  1  0  0  0
 71150  1  0  0  0
 72 73  1  0  0  0
 72 75  2  0  0  0
 72151  1  0  0  0
 73 88  1  0  0  0
 74 76  2  0  0  0
 74 82  1  0  0  0
 75 76  1  0  0  0
 75 83  1  0  0  0
 76 84  1  0  0  0
 77 82  1  0  0  0
 77152  1  0  0  0
 77153  1  0  0  0
 77154  1  0  0  0
 78 86  1  0  0  0
 78155  1  0  0  0
 78156  1  0  0  0
 78157  1  0  0  0
 79158  1  0  0  0
 79159  1  0  0  0
 79160  1  0  0  0
 79 88  1  0  0  0
 80 88  1  0  0  0
 80161  1  0  0  0
 80162  1  0  0  0
 80163  1  0  0  0
 81164  1  0  0  0
 81165  1  0  0  0
 81166  1  0  0  0
 81 89  1  0  0  0
 82167  1  0  0  0
 82168  1  0  0  0
 83 85  1  0  0  0
 83169  1  0  0  0
 83170  1  0  0  0
 84 90  1  0  0  0
 84171  1  0  0  0
 84172  1  0  0  0
 85 89  1  0  0  0
 85173  1  0  0  0
 85174  1  0  0  0
 86 90  1  0  0  0
 86175  1  0  0  0
 86176  1  0  0  0
 87 89  1  0  0  0
 87177  1  0  0  0
 87178  1  0  0  0
 88179  1  0  0  0
 89180  1  0  0  0
M  ISO  4   1 100  68 101  87 101  90 100
M  END
> <chiral flag>
0

> <version>
0

> <s_m_source_file>
/data/baiqing/PycharmProjects/Reinvent-master-3.2/result/LINK_invent/BTK/process_docking_weight1_custom_sum_contain_oxygen_bond_distance_aromatic_linkinvent_7_9_3/rearranged_h_0099.sdf

> <i_m_source_file_index>
53

> <r_mmod_Potential_Energy-OPLS-2005>
675.293273925781

> <r_mmod_Stretch_Energy-OPLS-2005>
169.813873291016

> <r_mmod_Bend_Energy-OPLS-2005>
254.394958496094

> <r_mmod_Torsional_Energy-OPLS-2005>
451.637023925781

> <r_mmod_Improper_Torsional_Energy-OPLS-2005>
20.568021774292

> <r_mmod_Van_der_Waal_Energy-OPLS-2005>
154.956268310547

> <r_mmod_Electrostatic_Energy-OPLS-2005>
-324.687225341797

> <r_mmod_Solvation_Energy-OPLS-2005>
-170.687377929688

> <b_mmod_Minimization_Converged-OPLS-2005>
0

> <r_mmod_RMS_Derivative-OPLS-2005>
6.63438701629639

$$$$
53
                    3D
 Structure written by MMmdl.
160168  0  0  1  0            999 V2000
  -29.8088  -17.0480   20.1466 C   0  0  0  0  0  0
  -30.2876  -14.1315   19.3850 C   0  0  0  0  0  0
  -29.6108  -13.0049   18.4527 C   0  0  0  0  0  0
  -28.3572  -12.3879   19.0558 C   0  0  0  0  0  0
  -27.5959  -13.4966   19.7738 C   0  0  2  0  0  0
  -28.5103  -14.4609   20.6649 C   0  0  0  0  0  0
  -25.2281  -13.8716   20.5941 C   0  0  0  0  0  0
  -24.1826  -13.0599   20.9295 C   0  0  0  0  0  0
  -24.6755  -11.7175   20.8652 C   0  0  0  0  0  0
  -23.9419  -10.4396   21.0299 C   0  0  0  0  0  0
  -24.3795   -9.4296   21.9178 C   0  0  0  0  0  0
  -23.6366   -8.2360   22.0806 C   0  0  0  0  0  0
  -22.4390   -8.0382   21.3534 C   0  0  0  0  0  0
  -22.0059   -9.0417   20.4681 C   0  0  0  0  0  0
  -22.7499  -10.2246   20.3052 C   0  0  0  0  0  0
  -21.6923   -6.0734   22.5242 C   0  0  0  0  0  0
  -21.4052   -6.5647   23.8164 C   0  0  0  0  0  0
  -21.3654   -5.6807   24.9141 C   0  0  0  0  0  0
  -21.6048   -4.3067   24.7211 C   0  0  0  0  0  0
  -21.8822   -3.8149   23.4347 C   0  0  0  0  0  0
  -21.9209   -4.6940   22.3392 C   0  0  0  0  0  0
  -22.7755  -13.5144   21.1863 C   0  0  0  0  0  0
  -22.1683   -4.2140   21.0958 F   0  0  0  0  0  0
  -21.5608   -3.4568   25.7712 F   0  0  0  0  0  0
  -29.4365  -15.4470   19.8500 N   0  0  0  0  0  0
  -26.3099  -13.0498   20.3529 N   0  0  0  0  0  0
  -25.9777  -11.7328   20.5438 N   0  0  0  0  0  0
  -22.0374  -12.8122   22.0385 N   0  0  0  0  0  0
  -25.3507  -15.2475   20.4235 N   0  0  0  0  0  0
  -30.7550  -16.4308   20.8213 O   0  0  0  0  0  0
  -21.6746   -6.8971   21.4229 O   0  0  0  0  0  0
  -22.3325  -14.5381   20.6674 O   0  0  0  0  0  0
  -24.7729  -31.6787   23.0773 C   0  0  0  0  0  0
  -25.9823  -32.3875   23.7710 C   0  0  1  0  0  0
  -27.2860  -25.7709   20.2614 C   0  0  0  0  0  0
  -25.6004  -33.7795   24.1426 N   0  0  0  0  0  0
  -23.6432  -30.2330   21.4518 C   0  0  2  0  0  0
  -25.1071  -28.3680   20.1510 C   0  0  0  0  0  0
  -22.8125  -29.3685   22.4490 C   0  0  0  0  0  0
  -18.0409  -28.1471   22.8416 C   0  0  0  0  0  0
  -24.1445  -36.6894   23.2686 C   0  0  0  0  0  0
  -26.2428  -30.1020   21.4857 C   0  0  0  0  0  0
  -26.3073  -28.5605   20.8447 C   0  0  0  0  0  0
  -27.3329  -27.3243   20.8407 C   0  0  0  0  0  0
  -26.0425  -26.0201   19.5217 C   0  0  0  0  0  0
  -25.0658  -27.1236   19.4678 C   0  0  0  0  0  0
  -23.9476  -29.4364   20.1315 C   0  0  0  0  0  0
  -25.4124  -36.2543   24.0218 C   0  0  1  0  0  0
  -20.6071  -28.3867   23.0931 C   0  0  2  0  0  0
  -20.6790  -26.9435   22.5395 C   0  0  0  0  0  0
  -19.5779  -26.6309   21.5213 C   0  0  0  0  0  0
  -18.1978  -26.7974   22.1612 C   0  0  0  0  0  0
  -19.1704  -28.9010   23.2627 C   0  0  0  0  0  0
  -18.9605  -30.1568   23.8714 C   0  0  0  0  0  0
  -17.6582  -30.6629   24.0521 C   0  0  0  0  0  0
  -25.9180  -34.8974   23.4719 C   0  0  0  0  0  0
  -16.5456  -29.9094   23.6380 C   0  0  0  0  0  0
  -16.7382  -28.6524   23.0388 C   0  0  0  0  0  0
  -26.4753  -31.6388   25.0734 C   0  0  0  0  0  0
  -25.3574  -31.4030   26.1176 C   0  0  0  0  0  0
  -27.0888  -30.2651   24.7342 C   0  0  0  0  0  0
  -27.5981  -32.4549   25.7585 C   0  0  0  0  0  0
  -27.5491  -37.1565   24.8469 C   0  0  0  0  0  0
  -21.4716  -29.2915   22.3152 N   0  0  0  0  0  0
  -26.4156  -37.3412   23.9453 N   0  0  0  0  0  0
  -24.9223  -30.7244   22.0605 N   0  0  0  0  0  0
  -23.4067  -28.7508   23.3347 O   0  0  0  0  0  0
  -28.1965  -24.1792   20.2316 O   0  0  0  0  0  0
  -26.5964  -34.8754   22.4440 O   0  0  0  0  0  0
  -23.6550  -32.0347   23.5037 O   0  0  0  0  0  0
  -30.8049  -19.1953   20.5204 C   0  0  0  0  0  0
  -31.5942  -18.0390   19.1680 C   0  0  0  0  0  0
  -29.9050  -17.4110   17.9136 C   0  0  0  0  0  0
  -28.4452  -18.4097   18.7291 C   0  0  0  0  0  0
  -27.0517  -18.4433   18.1699 C   0  0  0  0  0  0
  -28.9109  -16.8376   15.5548 C   0  0  0  0  0  0
  -31.0549  -15.6722   16.4173 C   0  0  0  0  0  0
  -31.7427  -19.8205   17.9780 C   0  0  0  0  0  0
  -28.1180  -21.9664   20.2665 C   0  0  0  0  0  0
  -30.1317  -16.8967   16.4889 C   0  0  0  0  0  0
  -32.6924  -18.7093   18.4798 C   0  0  0  0  0  0
  -28.9835  -19.8604   20.0821 N   0  0  0  0  0  0
  -30.3492  -19.4280   18.3962 N   0  0  0  0  0  0
  -33.6187  -19.1595   19.3252 F   0  0  0  0  0  0
  -33.2340  -17.9843   17.4997 F   0  0  0  0  0  0
  -31.1582  -14.5146   18.8589 H   0  0  0  0  0  0
  -30.7525  -13.6752   20.2578 H   0  0  0  0  0  0
  -30.3367  -12.2205   18.2298 H   0  0  0  0  0  0
  -29.2987  -13.3865   17.4891 H   0  0  0  0  0  0
  -28.6696  -11.6558   19.8037 H   0  0  0  0  0  0
  -27.7595  -11.8681   18.3028 H   0  0  0  0  0  0
  -27.2753  -14.1389   18.9474 H   0  0  0  0  0  0
  -29.0210  -13.9398   21.4745 H   0  0  0  0  0  0
  -27.8475  -15.1433   21.1978 H   0  0  0  0  0  0
  -25.2885   -9.5755   22.4869 H   0  0  0  0  0  0
  -24.0017   -7.4763   22.7582 H   0  0  0  0  0  0
  -21.0974   -8.9004   19.8994 H   0  0  0  0  0  0
  -22.3939  -10.9820   19.6220 H   0  0  0  0  0  0
  -21.2071   -7.6175   23.9667 H   0  0  0  0  0  0
  -21.1468   -6.0547   25.9033 H   0  0  0  0  0  0
  -22.0597   -2.7621   23.2868 H   0  0  0  0  0  0
  -22.3897  -11.9846   22.4967 H   0  0  0  0  0  0
  -21.0944  -13.1174   22.2382 H   0  0  0  0  0  0
  -24.5828  -15.9046   20.5215 H   0  0  0  0  0  0
  -26.2106  -15.6893   20.1319 H   0  0  0  0  0  0
  -26.8079  -32.4256   23.0604 H   0  0  0  0  0  0
  -24.9893  -33.8722   24.9401 H   0  0  0  0  0  0
  -23.0310  -31.0891   21.1694 H   0  0  0  0  0  0
  -23.3755  -35.9164   23.3183 H   0  0  0  0  0  0
  -24.3500  -36.8797   22.2134 H   0  0  0  0  0  0
  -23.7155  -37.5957   23.6981 H   0  0  0  0  0  0
  -26.5349  -30.7816   20.6825 H   0  0  0  0  0  0
  -27.0558  -30.1818   22.1944 H   0  0  0  0  0  0
  -28.2162  -27.5179   21.4330 H   0  0  0  0  0  0
  -25.7383  -25.1639   18.9347 H   0  0  0  0  0  0
  -24.1990  -26.9382   18.8530 H   0  0  0  0  0  0
  -24.2068  -30.1476   19.3466 H   0  0  0  0  0  0
  -23.0417  -28.9404   19.7778 H   0  0  0  0  0  0
  -25.1378  -36.1144   25.0691 H   0  0  0  0  0  0
  -21.0157  -28.3579   24.1058 H   0  0  0  0  0  0
  -20.5520  -26.2539   23.3766 H   0  0  0  0  0  0
  -21.6630  -26.7165   22.1283 H   0  0  0  0  0  0
  -19.6869  -25.6164   21.1357 H   0  0  0  0  0  0
  -19.6720  -27.3010   20.6666 H   0  0  0  0  0  0
  -17.4215  -26.6735   21.4037 H   0  0  0  0  0  0
  -18.0348  -26.0170   22.9059 H   0  0  0  0  0  0
  -19.8091  -30.7431   24.1989 H   0  0  0  0  0  0
  -17.5142  -31.6300   24.5149 H   0  0  0  0  0  0
  -15.5450  -30.2926   23.7807 H   0  0  0  0  0  0
  -15.8804  -28.0763   22.7194 H   0  0  0  0  0  0
  -24.5634  -30.7565   25.7426 H   0  0  0  0  0  0
  -24.8945  -32.3401   26.4273 H   0  0  0  0  0  0
  -25.7461  -30.9305   27.0202 H   0  0  0  0  0  0
  -26.3753  -29.5835   24.2681 H   0  0  0  0  0  0
  -27.4295  -29.7648   25.6428 H   0  0  0  0  0  0
  -27.9744  -30.3595   24.1049 H   0  0  0  0  0  0
  -27.2300  -33.3970   26.1682 H   0  0  0  0  0  0
  -28.4009  -32.6948   25.0597 H   0  0  0  0  0  0
  -28.0452  -31.9084   26.5899 H   0  0  0  0  0  0
  -28.2375  -37.9969   24.7548 H   0  0  0  0  0  0
  -28.1103  -36.2486   24.6221 H   0  0  0  0  0  0
  -27.2272  -37.1105   25.8885 H   0  0  0  0  0  0
  -21.0276  -29.8499   21.6011 H   0  0  0  0  0  0
  -25.9891  -38.2402   24.1538 H   0  0  0  0  0  0
  -31.3774  -19.8691   21.1415 H   0  0  0  0  0  0
  -27.0511  -18.4526   17.0735 H   0  0  0  0  0  0
  -26.4947  -19.3224   18.5041 H   0  0  0  0  0  0
  -26.5080  -17.5489   18.4859 H   0  0  0  0  0  0
  -28.4994  -17.8329   15.3694 H   0  0  0  0  0  0
  -28.1163  -16.1875   15.9215 H   0  0  0  0  0  0
  -29.2267  -16.4608   14.5783 H   0  0  0  0  0  0
  -31.9230  -15.7692   17.0700 H   0  0  0  0  0  0
  -31.4418  -15.5085   15.4125 H   0  0  0  0  0  0
  -30.5452  -14.7671   16.6938 H   0  0  0  0  0  0
  -31.8183  -19.8986   16.8950 H   0  0  0  0  0  0
  -31.9908  -20.8024   18.3891 H   0  0  0  0  0  0
  -27.6755  -21.8714   21.2605 H   0  0  0  0  0  0
  -27.2738  -21.8513   19.5904 H   0  0  0  0  0  0
  -30.7549  -17.6855   16.0658 H   0  0  0  0  0  0
  -29.6722  -19.4460   17.6559 H   0  0  0  0  0  0
  1 25  1  0  0  0
  1 30  2  0  0  0
  1 83  1  0  0  0
  2  3  1  0  0  0
  2 25  1  0  0  0
  2 86  1  0  0  0
  2 87  1  0  0  0
  3  4  1  0  0  0
  3 88  1  0  0  0
  3 89  1  0  0  0
  4  5  1  0  0  0
  4 90  1  0  0  0
  4 91  1  0  0  0
  5  6  1  0  0  0
  5 26  1  0  0  0
  5 92  1  0  0  0
  6 25  1  0  0  0
  6 93  1  0  0  0
  6 94  1  0  0  0
  7  8  2  0  0  0
  7 26  1  0  0  0
  7 29  1  0  0  0
  8  9  1  0  0  0
  8 22  1  0  0  0
  9 10  1  0  0  0
  9 27  2  0  0  0
 10 11  2  0  0  0
 10 15  1  0  0  0
 11 12  1  0  0  0
 11 95  1  0  0  0
 12 13  2  0  0  0
 12 96  1  0  0  0
 13 14  1  0  0  0
 13 31  1  0  0  0
 14 15  2  0  0  0
 14 97  1  0  0  0
 15 98  1  0  0  0
 16 17  2  0  0  0
 16 21  1  0  0  0
 16 31  1  0  0  0
 17 18  1  0  0  0
 17 99  1  0  0  0
 18 19  2  0  0  0
 18100  1  0  0  0
 19 20  1  0  0  0
 19 24  1  0  0  0
 20 21  2  0  0  0
 20101  1  0  0  0
 21 23  1  0  0  0
 22 28  1  0  0  0
 22 32  2  0  0  0
 26 27  1  0  0  0
 28102  1  0  0  0
 28103  1  0  0  0
 29104  1  0  0  0
 29105  1  0  0  0
 33 34  1  0  0  0
 33 66  1  0  0  0
 33 70  2  0  0  0
 34 36  1  0  0  0
 34 59  1  0  0  0
 34106  1  0  0  0
 35 44  2  0  0  0
 35 45  1  0  0  0
 35 68  1  0  0  0
 36 56  1  0  0  0
 36107  1  0  0  0
 37 39  1  0  0  0
 37 47  1  0  0  0
 37 66  1  0  0  0
 37108  1  0  0  0
 38 43  2  0  0  0
 38 46  1  0  0  0
 38 47  1  0  0  0
 39 64  1  0  0  0
 39 67  2  0  0  0
 40 52  1  0  0  0
 40 53  2  0  0  0
 40 58  1  0  0  0
 41109  1  0  0  0
 41110  1  0  0  0
 41111  1  0  0  0
 41 48  1  0  0  0
 42 43  1  0  0  0
 42 66  1  0  0  0
 42112  1  0  0  0
 42113  1  0  0  0
 43 44  1  0  0  0
 44114  1  0  0  0
 45 46  2  0  0  0
 45115  1  0  0  0
 46116  1  0  0  0
 47117  1  0  0  0
 47118  1  0  0  0
 48 56  1  0  0  0
 48 65  1  0  0  0
 48119  1  0  0  0
 49 50  1  0  0  0
 49 53  1  0  0  0
 49 64  1  0  0  0
 49120  1  0  0  0
 50 51  1  0  0  0
 50121  1  0  0  0
 50122  1  0  0  0
 51 52  1  0  0  0
 51123  1  0  0  0
 51124  1  0  0  0
 52125  1  0  0  0
 52126  1  0  0  0
 53 54  1  0  0  0
 54 55  2  0  0  0
 54127  1  0  0  0
 55 57  1  0  0  0
 55128  1  0  0  0
 56 69  2  0  0  0
 57 58  2  0  0  0
 57129  1  0  0  0
 58130  1  0  0  0
 59 60  1  0  0  0
 59 61  1  0  0  0
 59 62  1  0  0  0
 60131  1  0  0  0
 60132  1  0  0  0
 60133  1  0  0  0
 61134  1  0  0  0
 61135  1  0  0  0
 61136  1  0  0  0
 62137  1  0  0  0
 62138  1  0  0  0
 62139  1  0  0  0
 63 65  1  0  0  0
 63140  1  0  0  0
 63141  1  0  0  0
 63142  1  0  0  0
 64143  1  0  0  0
 65144  1  0  0  0
 68 79  1  0  0  0
 71 72  2  0  0  0
 71 82  1  0  0  0
 71145  1  0  0  0
 72 73  1  0  0  0
 72 81  1  0  0  0
 73 74  2  0  0  0
 73 80  1  0  0  0
 74 75  1  0  0  0
 74 82  1  0  0  0
 75146  1  0  0  0
 75147  1  0  0  0
 75148  1  0  0  0
 76149  1  0  0  0
 76150  1  0  0  0
 76151  1  0  0  0
 76 80  1  0  0  0
 77 80  1  0  0  0
 77152  1  0  0  0
 77153  1  0  0  0
 77154  1  0  0  0
 78 81  1  0  0  0
 78 83  1  0  0  0
 78155  1  0  0  0
 78156  1  0  0  0
 79 82  1  0  0  0
 79157  1  0  0  0
 79158  1  0  0  0
 80159  1  0  0  0
 81 84  1  0  0  0
 81 85  1  0  0  0
 83160  1  0  0  0
M  ISO  4   1 100  68 101  79 101  83 100
M  END
> <chiral flag>
0

> <version>
0

> <s_m_source_file>
/data/baiqing/PycharmProjects/Reinvent-master-3.2/result/LINK_invent/BTK/process_docking_weight1_custom_sum_contain_oxygen_bond_distance_aromatic_linkinvent_7_9_3/rearranged_h_0099.sdf

> <i_m_source_file_index>
54

> <r_mmod_Potential_Energy-OPLS-2005>
21606.12890625

> <r_mmod_Stretch_Energy-OPLS-2005>
12860.65234375

> <r_mmod_Bend_Energy-OPLS-2005>
1318.53894042969

> <r_mmod_Torsional_Energy-OPLS-2005>
442.617431640625

> <r_mmod_Improper_Torsional_Energy-OPLS-2005>
138.355651855469

> <r_mmod_Van_der_Waal_Energy-OPLS-2005>
3302.64233398438

> <r_mmod_Electrostatic_Energy-OPLS-2005>
-430.774597167969

> <r_mmod_Solvation_Energy-OPLS-2005>
-209.194732666016

> <b_mmod_Minimization_Converged-OPLS-2005>
0

> <r_mmod_RMS_Derivative-OPLS-2005>
15.5372524261475

$$$$
54
                    3D
 Structure written by MMmdl.
166174  0  0  1  0            999 V2000
  -30.6888  -14.5440   20.6246 C   0  0  0  0  0  0
  -30.4402  -12.3700   19.4432 C   0  0  0  0  0  0
  -29.5062  -12.5173   18.2212 C   0  0  0  0  0  0
  -28.0281  -12.3574   18.6296 C   0  0  0  0  0  0
  -27.6604  -13.2083   19.8723 C   0  0  2  0  0  0
  -28.6979  -13.0035   20.9959 C   0  0  0  0  0  0
  -25.2581  -13.8163   20.5697 C   0  0  0  0  0  0
  -24.1835  -13.0430   20.9167 C   0  0  0  0  0  0
  -24.6389  -11.6904   20.8703 C   0  0  0  0  0  0
  -23.9041  -10.4286   21.0379 C   0  0  0  0  0  0
  -24.3597   -9.4214   21.9167 C   0  0  0  0  0  0
  -23.6281   -8.2241   22.0746 C   0  0  0  0  0  0
  -22.4268   -8.0264   21.3533 C   0  0  0  0  0  0
  -21.9894   -9.0233   20.4635 C   0  0  0  0  0  0
  -22.7206  -10.2118   20.3037 C   0  0  0  0  0  0
  -21.6859   -6.0713   22.5274 C   0  0  0  0  0  0
  -21.4016   -6.5618   23.8206 C   0  0  0  0  0  0
  -21.3665   -5.6773   24.9170 C   0  0  0  0  0  0
  -21.6046   -4.3035   24.7225 C   0  0  0  0  0  0
  -21.8820   -3.8127   23.4347 C   0  0  0  0  0  0
  -21.9196   -4.6944   22.3400 C   0  0  0  0  0  0
  -22.7853  -13.5217   21.1855 C   0  0  0  0  0  0
  -22.1662   -4.2126   21.0976 F   0  0  0  0  0  0
  -21.5642   -3.4528   25.7737 F   0  0  0  0  0  0
  -30.0294  -13.3535   20.4656 N   0  0  0  0  0  0
  -26.3012  -12.9334   20.3345 N   0  0  0  0  0  0
  -25.9315  -11.6491   20.5732 N   0  0  0  0  0  0
  -22.0489  -12.8201   22.0408 N   0  0  0  0  0  0
  -25.4286  -15.1885   20.4174 N   0  0  0  0  0  0
  -31.7666  -14.7660   20.0611 O   0  0  0  0  0  0
  -21.6645   -6.8856   21.4234 O   0  0  0  0  0  0
  -22.3533  -14.5523   20.6710 O   0  0  0  0  0  0
  -24.6150  -31.8654   23.2071 C   0  0  0  0  0  0
  -25.9026  -32.4816   23.8378 C   0  0  1  0  0  0
  -27.2328  -27.4013   20.1031 C   0  0  0  0  0  0
  -25.5867  -33.8624   24.2285 N   0  0  0  0  0  0
  -23.4081  -30.4855   21.5490 C   0  0  2  0  0  0
  -24.8587  -28.9546   20.1092 C   0  0  0  0  0  0
  -22.7426  -29.4618   22.4978 C   0  0  0  0  0  0
  -18.0256  -28.1365   22.8475 C   0  0  0  0  0  0
  -24.1510  -36.7347   23.2647 C   0  0  0  0  0  0
  -25.9397  -30.8199   21.3681 C   0  0  0  0  0  0
  -26.0193  -29.4527   20.7138 C   0  0  0  0  0  0
  -27.2118  -28.6838   20.7085 C   0  0  0  0  0  0
  -26.0578  -26.9395   19.4695 C   0  0  0  0  0  0
  -24.8744  -27.6987   19.4810 C   0  0  0  0  0  0
  -23.6187  -29.8207   20.1624 C   0  0  0  0  0  0
  -25.4120  -36.3118   24.0336 C   0  0  1  0  0  0
  -20.5853  -28.3659   23.1319 C   0  0  2  0  0  0
  -20.6780  -26.9396   22.5426 C   0  0  0  0  0  0
  -19.5763  -26.6373   21.5223 C   0  0  0  0  0  0
  -18.1922  -26.7902   22.1610 C   0  0  0  0  0  0
  -19.1506  -28.8831   23.2890 C   0  0  0  0  0  0
  -18.9447  -30.1431   23.8912 C   0  0  0  0  0  0
  -17.6457  -30.6585   24.0552 C   0  0  0  0  0  0
  -25.9043  -34.9476   23.5114 C   0  0  0  0  0  0
  -16.5343  -29.9079   23.6343 C   0  0  0  0  0  0
  -16.7248  -28.6500   23.0351 C   0  0  0  0  0  0
  -26.4434  -31.6615   25.0729 C   0  0  0  0  0  0
  -25.3693  -31.3710   26.1484 C   0  0  0  0  0  0
  -27.0258  -30.3063   24.6085 C   0  0  0  0  0  0
  -27.6003  -32.4365   25.7469 C   0  0  0  0  0  0
  -27.5582  -37.1815   24.8446 C   0  0  0  0  0  0
  -21.4146  -29.3034   22.3739 N   0  0  0  0  0  0
  -26.4302  -37.3811   23.9398 N   0  0  0  0  0  0
  -24.6723  -31.0711   22.1000 N   0  0  0  0  0  0
  -23.4177  -28.8148   23.3029 O   0  0  0  0  0  0
  -28.3630  -26.5975   20.1317 O   0  0  0  0  0  0
  -26.5614  -34.8932   22.4693 O   0  0  0  0  0  0
  -23.5338  -32.1427   23.7446 O   0  0  0  0  0  0
  -29.8830  -20.4756   20.1237 C   0  0  0  0  0  0
  -29.1226  -21.5360   20.5749 C   0  0  0  0  0  0
  -28.6058  -21.1161   21.8426 C   0  0  0  0  0  0
  -29.0285  -19.8275   22.0783 C   0  0  0  0  0  0
  -27.7171  -21.9239   22.7605 C   0  0  0  0  0  0
  -28.7407  -18.9291   23.2417 C   0  0  0  0  0  0
  -29.2374  -22.8251   18.3737 C   0  0  0  0  0  0
  -29.8121  -15.5213   22.7093 C   0  0  0  0  0  0
  -29.2534  -24.2000   20.5224 C   0  0  0  0  0  0
  -30.5352  -18.1037   20.9088 C   0  0  0  0  0  0
  -29.6319  -16.8502   20.6176 C   0  0  0  0  0  0
  -28.1403  -25.2858   20.7190 C   0  0  0  0  0  0
  -28.7886  -22.8598   19.8426 C   0  0  2  0  0  0
  -29.8255  -19.4081   21.0199 N   0  0  0  0  0  0
  -30.0157  -15.5542   21.2557 N   0  0  0  0  0  0
  -31.4807  -12.4966   19.1375 H   0  0  0  0  0  0
  -30.3785  -11.3621   19.8542 H   0  0  0  0  0  0
  -29.7623  -11.7737   17.4650 H   0  0  0  0  0  0
  -29.6554  -13.4932   17.7550 H   0  0  0  0  0  0
  -27.8600  -11.3013   18.8463 H   0  0  0  0  0  0
  -27.3733  -12.6047   17.7935 H   0  0  0  0  0  0
  -27.6996  -14.2539   19.5688 H   0  0  0  0  0  0
  -28.6988  -11.9646   21.3292 H   0  0  0  0  0  0
  -28.4098  -13.5790   21.8709 H   0  0  0  0  0  0
  -25.2748   -9.5712   22.4733 H   0  0  0  0  0  0
  -24.0003   -7.4645   22.7473 H   0  0  0  0  0  0
  -21.0826   -8.8731   19.8947 H   0  0  0  0  0  0
  -22.3649  -10.9646   19.6142 H   0  0  0  0  0  0
  -21.1995   -7.6121   23.9703 H   0  0  0  0  0  0
  -21.1493   -6.0502   25.9070 H   0  0  0  0  0  0
  -22.0595   -2.7589   23.2854 H   0  0  0  0  0  0
  -22.4121  -11.9874   22.4824 H   0  0  0  0  0  0
  -21.1098  -13.1206   22.2592 H   0  0  0  0  0  0
  -24.6647  -15.8437   20.5409 H   0  0  0  0  0  0
  -26.2892  -15.6337   20.1246 H   0  0  0  0  0  0
  -26.7084  -32.5530   23.1128 H   0  0  0  0  0  0
  -25.0037  -33.9807   25.0434 H   0  0  0  0  0  0
  -22.6989  -31.3037   21.4065 H   0  0  0  0  0  0
  -23.3763  -35.9683   23.3290 H   0  0  0  0  0  0
  -24.3631  -36.8997   22.2072 H   0  0  0  0  0  0
  -23.7270  -37.6545   23.6686 H   0  0  0  0  0  0
  -26.0528  -31.5800   20.5939 H   0  0  0  0  0  0
  -26.8274  -30.8777   21.9858 H   0  0  0  0  0  0
  -28.1035  -29.0532   21.1959 H   0  0  0  0  0  0
  -26.0464  -25.9848   18.9628 H   0  0  0  0  0  0
  -23.9855  -27.3166   19.0001 H   0  0  0  0  0  0
  -23.7202  -30.5969   19.4041 H   0  0  0  0  0  0
  -22.7446  -29.2367   19.8676 H   0  0  0  0  0  0
  -25.1292  -36.2001   25.0827 H   0  0  0  0  0  0
  -20.9914  -28.3234   24.1445 H   0  0  0  0  0  0
  -20.5743  -26.2247   23.3601 H   0  0  0  0  0  0
  -21.6648  -26.7492   22.1170 H   0  0  0  0  0  0
  -19.6965  -25.6291   21.1240 H   0  0  0  0  0  0
  -19.6722  -27.3200   20.6763 H   0  0  0  0  0  0
  -17.4201  -26.6644   21.3992 H   0  0  0  0  0  0
  -18.0322  -26.0016   22.8988 H   0  0  0  0  0  0
  -19.7939  -30.7227   24.2287 H   0  0  0  0  0  0
  -17.5024  -31.6276   24.5132 H   0  0  0  0  0  0
  -15.5353  -30.2995   23.7680 H   0  0  0  0  0  0
  -15.8626  -28.0846   22.7061 H   0  0  0  0  0  0
  -24.5867  -30.7045   25.7822 H   0  0  0  0  0  0
  -24.8877  -32.2856   26.4955 H   0  0  0  0  0  0
  -25.8057  -30.8870   27.0231 H   0  0  0  0  0  0
  -26.2782  -29.6841   24.1143 H   0  0  0  0  0  0
  -27.4037  -29.7294   25.4529 H   0  0  0  0  0  0
  -27.8603  -30.4393   23.9199 H   0  0  0  0  0  0
  -27.2612  -33.3697   26.1982 H   0  0  0  0  0  0
  -28.3801  -32.6887   25.0268 H   0  0  0  0  0  0
  -28.0632  -31.8521   26.5424 H   0  0  0  0  0  0
  -28.2562  -38.0147   24.7558 H   0  0  0  0  0  0
  -28.1113  -36.2688   24.6193 H   0  0  0  0  0  0
  -27.2314  -37.1381   25.8847 H   0  0  0  0  0  0
  -20.9316  -29.8755   21.6957 H   0  0  0  0  0  0
  -26.0193  -38.2888   24.1403 H   0  0  0  0  0  0
  -30.4538  -20.3744   19.2106 H   0  0  0  0  0  0
  -26.6862  -21.5739   22.6998 H   0  0  0  0  0  0
  -27.7244  -22.9840   22.5113 H   0  0  0  0  0  0
  -28.0494  -21.8323   23.7956 H   0  0  0  0  0  0
  -28.0913  -19.4110   23.9721 H   0  0  0  0  0  0
  -29.6578  -18.6370   23.7543 H   0  0  0  0  0  0
  -28.2290  -18.0238   22.9190 H   0  0  0  0  0  0
  -28.8171  -21.9664   17.8501 H   0  0  0  0  0  0
  -30.3233  -22.7687   18.2938 H   0  0  0  0  0  0
  -28.9162  -23.7229   17.8438 H   0  0  0  0  0  0
  -28.7525  -15.6071   22.9527 H   0  0  0  0  0  0
  -30.3344  -16.3408   23.2008 H   0  0  0  0  0  0
  -30.1828  -14.5980   23.1583 H   0  0  0  0  0  0
  -29.6581  -23.9680   21.5067 H   0  0  0  0  0  0
  -30.0954  -24.6286   19.9786 H   0  0  0  0  0  0
  -31.2947  -18.1868   20.1295 H   0  0  0  0  0  0
  -31.1005  -17.9683   21.8296 H   0  0  0  0  0  0
  -29.5792  -16.7116   19.5367 H   0  0  0  0  0  0
  -28.6040  -17.0574   20.9148 H   0  0  0  0  0  0
  -28.0235  -25.4545   21.7909 H   0  0  0  0  0  0
  -27.1872  -24.8624   20.4079 H   0  0  0  0  0  0
  -27.6995  -22.8557   19.8170 H   0  0  0  0  0  0
  1 25  1  0  0  0
  1 30  2  0  0  0
  1 85  1  0  0  0
  2  3  1  0  0  0
  2 25  1  0  0  0
  2 86  1  0  0  0
  2 87  1  0  0  0
  3  4  1  0  0  0
  3 88  1  0  0  0
  3 89  1  0  0  0
  4  5  1  0  0  0
  4 90  1  0  0  0
  4 91  1  0  0  0
  5  6  1  0  0  0
  5 26  1  0  0  0
  5 92  1  0  0  0
  6 25  1  0  0  0
  6 93  1  0  0  0
  6 94  1  0  0  0
  7  8  2  0  0  0
  7 26  1  0  0  0
  7 29  1  0  0  0
  8  9  1  0  0  0
  8 22  1  0  0  0
  9 10  1  0  0  0
  9 27  2  0  0  0
 10 11  2  0  0  0
 10 15  1  0  0  0
 11 12  1  0  0  0
 11 95  1  0  0  0
 12 13  2  0  0  0
 12 96  1  0  0  0
 13 14  1  0  0  0
 13 31  1  0  0  0
 14 15  2  0  0  0
 14 97  1  0  0  0
 15 98  1  0  0  0
 16 17  2  0  0  0
 16 21  1  0  0  0
 16 31  1  0  0  0
 17 18  1  0  0  0
 17 99  1  0  0  0
 18 19  2  0  0  0
 18100  1  0  0  0
 19 20  1  0  0  0
 19 24  1  0  0  0
 20 21  2  0  0  0
 20101  1  0  0  0
 21 23  1  0  0  0
 22 28  1  0  0  0
 22 32  2  0  0  0
 26 27  1  0  0  0
 28102  1  0  0  0
 28103  1  0  0  0
 29104  1  0  0  0
 29105  1  0  0  0
 33 34  1  0  0  0
 33 66  1  0  0  0
 33 70  2  0  0  0
 34 36  1  0  0  0
 34 59  1  0  0  0
 34106  1  0  0  0
 35 44  2  0  0  0
 35 45  1  0  0  0
 35 68  1  0  0  0
 36 56  1  0  0  0
 36107  1  0  0  0
 37 39  1  0  0  0
 37 47  1  0  0  0
 37 66  1  0  0  0
 37108  1  0  0  0
 38 43  2  0  0  0
 38 46  1  0  0  0
 38 47  1  0  0  0
 39 64  1  0  0  0
 39 67  2  0  0  0
 40 52  1  0  0  0
 40 53  2  0  0  0
 40 58  1  0  0  0
 41109  1  0  0  0
 41110  1  0  0  0
 41111  1  0  0  0
 41 48  1  0  0  0
 42 43  1  0  0  0
 42 66  1  0  0  0
 42112  1  0  0  0
 42113  1  0  0  0
 43 44  1  0  0  0
 44114  1  0  0  0
 45 46  2  0  0  0
 45115  1  0  0  0
 46116  1  0  0  0
 47117  1  0  0  0
 47118  1  0  0  0
 48 56  1  0  0  0
 48 65  1  0  0  0
 48119  1  0  0  0
 49 50  1  0  0  0
 49 53  1  0  0  0
 49 64  1  0  0  0
 49120  1  0  0  0
 50 51  1  0  0  0
 50121  1  0  0  0
 50122  1  0  0  0
 51 52  1  0  0  0
 51123  1  0  0  0
 51124  1  0  0  0
 52125  1  0  0  0
 52126  1  0  0  0
 53 54  1  0  0  0
 54 55  2  0  0  0
 54127  1  0  0  0
 55 57  1  0  0  0
 55128  1  0  0  0
 56 69  2  0  0  0
 57 58  2  0  0  0
 57129  1  0  0  0
 58130  1  0  0  0
 59 60  1  0  0  0
 59 61  1  0  0  0
 59 62  1  0  0  0
 60131  1  0  0  0
 60132  1  0  0  0
 60133  1  0  0  0
 61134  1  0  0  0
 61135  1  0  0  0
 61136  1  0  0  0
 62137  1  0  0  0
 62138  1  0  0  0
 62139  1  0  0  0
 63 65  1  0  0  0
 63140  1  0  0  0
 63141  1  0  0  0
 63142  1  0  0  0
 64143  1  0  0  0
 65144  1  0  0  0
 68 82  1  0  0  0
 71 72  2  0  0  0
 71 84  1  0  0  0
 71145  1  0  0  0
 72 73  1  0  0  0
 72 83  1  0  0  0
 73 74  2  0  0  0
 73 75  1  0  0  0
 74 76  1  0  0  0
 74 84  1  0  0  0
 75146  1  0  0  0
 75147  1  0  0  0
 75148  1  0  0  0
 76149  1  0  0  0
 76150  1  0  0  0
 76151  1  0  0  0
 77152  1  0  0  0
 77153  1  0  0  0
 77154  1  0  0  0
 77 83  1  0  0  0
 78 85  1  0  0  0
 78155  1  0  0  0
 78156  1  0  0  0
 78157  1  0  0  0
 79 82  1  0  0  0
 79 83  1  0  0  0
 79158  1  0  0  0
 79159  1  0  0  0
 80 81  1  0  0  0
 80 84  1  0  0  0
 80160  1  0  0  0
 80161  1  0  0  0
 81 85  1  0  0  0
 81162  1  0  0  0
 81163  1  0  0  0
 82164  1  0  0  0
 82165  1  0  0  0
 83166  1  0  0  0
M  ISO  4   1 100  68 101  82 101  85 100
M  END
> <chiral flag>
0

> <version>
0

> <s_m_source_file>
/data/baiqing/PycharmProjects/Reinvent-master-3.2/result/LINK_invent/BTK/process_docking_weight1_custom_sum_contain_oxygen_bond_distance_aromatic_linkinvent_7_9_3/rearranged_h_0099.sdf

> <i_m_source_file_index>
55

> <r_mmod_Potential_Energy-OPLS-2005>
116.205223083496

> <r_mmod_Stretch_Energy-OPLS-2005>
54.178596496582

> <r_mmod_Bend_Energy-OPLS-2005>
115.38996887207

> <r_mmod_Torsional_Energy-OPLS-2005>
342.961151123047

> <r_mmod_Improper_Torsional_Energy-OPLS-2005>
5.01667070388794

> <r_mmod_Van_der_Waal_Energy-OPLS-2005>
124.959777832031

> <r_mmod_Electrostatic_Energy-OPLS-2005>
-353.991058349609

> <r_mmod_Solvation_Energy-OPLS-2005>
-194.313522338867

> <b_mmod_Minimization_Converged-OPLS-2005>
0

> <r_mmod_RMS_Derivative-OPLS-2005>
2.8453733921051

$$$$
55
                    3D
 Structure written by MMmdl.
174182  0  0  1  0            999 V2000
  -30.8160  -14.5208   20.4592 C   0  0  0  0  0  0
  -30.3972  -12.3406   19.4110 C   0  0  0  0  0  0
  -29.4629  -12.4425   18.1929 C   0  0  0  0  0  0
  -28.0003  -12.2599   18.6386 C   0  0  0  0  0  0
  -27.6241  -13.1608   19.8400 C   0  0  2  0  0  0
  -28.7049  -13.1277   20.9558 C   0  0  0  0  0  0
  -25.2535  -13.7997   20.5754 C   0  0  0  0  0  0
  -24.1767  -13.0349   20.9276 C   0  0  0  0  0  0
  -24.6272  -11.6802   20.8842 C   0  0  0  0  0  0
  -23.8934  -10.4237   21.0477 C   0  0  0  0  0  0
  -24.3528   -9.4159   21.9227 C   0  0  0  0  0  0
  -23.6240   -8.2178   22.0768 C   0  0  0  0  0  0
  -22.4230   -8.0221   21.3543 C   0  0  0  0  0  0
  -21.9844   -9.0191   20.4652 C   0  0  0  0  0  0
  -22.7138  -10.2086   20.3089 C   0  0  0  0  0  0
  -21.6829   -6.0686   22.5270 C   0  0  0  0  0  0
  -21.3988   -6.5603   23.8199 C   0  0  0  0  0  0
  -21.3668   -5.6768   24.9174 C   0  0  0  0  0  0
  -21.6062   -4.3030   24.7233 C   0  0  0  0  0  0
  -21.8822   -3.8110   23.4355 C   0  0  0  0  0  0
  -21.9192   -4.6918   22.3405 C   0  0  0  0  0  0
  -22.7809  -13.5217   21.1888 C   0  0  0  0  0  0
  -22.1665   -4.2098   21.0988 F   0  0  0  0  0  0
  -21.5658   -3.4524   25.7754 F   0  0  0  0  0  0
  -30.0068  -13.4226   20.3326 N   0  0  0  0  0  0
  -26.2862  -12.9032   20.3404 N   0  0  0  0  0  0
  -25.9177  -11.6266   20.5895 N   0  0  0  0  0  0
  -22.0402  -12.8254   22.0432 N   0  0  0  0  0  0
  -25.4295  -15.1709   20.4105 N   0  0  0  0  0  0
  -32.0312  -14.3902   20.3244 O   0  0  0  0  0  0
  -21.6622   -6.8809   21.4222 O   0  0  0  0  0  0
  -22.3552  -14.5531   20.6706 O   0  0  0  0  0  0
  -24.6099  -31.8716   23.2122 C   0  0  0  0  0  0
  -25.9011  -32.4835   23.8406 C   0  0  1  0  0  0
  -27.2344  -27.4848   20.0874 C   0  0  0  0  0  0
  -25.5890  -33.8631   24.2346 N   0  0  0  0  0  0
  -23.3940  -30.4956   21.5524 C   0  0  2  0  0  0
  -24.8382  -28.9651   20.1161 C   0  0  0  0  0  0
  -22.7369  -29.4680   22.5010 C   0  0  0  0  0  0
  -18.0270  -28.1362   22.8507 C   0  0  0  0  0  0
  -24.1481  -36.7309   23.2636 C   0  0  0  0  0  0
  -25.9170  -30.8535   21.3551 C   0  0  0  0  0  0
  -25.9952  -29.4916   20.7031 C   0  0  0  0  0  0
  -27.1985  -28.7597   20.6822 C   0  0  0  0  0  0
  -26.0624  -26.9571   19.5017 C   0  0  0  0  0  0
  -24.8635  -27.6939   19.5144 C   0  0  0  0  0  0
  -23.5979  -29.8255   20.1665 C   0  0  0  0  0  0
  -25.4096  -36.3113   24.0351 C   0  0  1  0  0  0
  -20.5855  -28.3640   23.1340 C   0  0  2  0  0  0
  -20.6753  -26.9382   22.5421 C   0  0  0  0  0  0
  -19.5730  -26.6379   21.5216 C   0  0  0  0  0  0
  -18.1914  -26.7916   22.1632 C   0  0  0  0  0  0
  -19.1521  -28.8819   23.2920 C   0  0  0  0  0  0
  -18.9453  -30.1429   23.8910 C   0  0  0  0  0  0
  -17.6456  -30.6573   24.0576 C   0  0  0  0  0  0
  -25.9025  -34.9484   23.5147 C   0  0  0  0  0  0
  -16.5347  -29.9075   23.6328 C   0  0  0  0  0  0
  -16.7264  -28.6498   23.0347 C   0  0  0  0  0  0
  -26.4457  -31.6598   25.0715 C   0  0  0  0  0  0
  -25.3754  -31.3704   26.1494 C   0  0  0  0  0  0
  -27.0259  -30.3048   24.6030 C   0  0  0  0  0  0
  -27.6051  -32.4303   25.7469 C   0  0  0  0  0  0
  -27.5586  -37.1790   24.8458 C   0  0  0  0  0  0
  -21.4112  -29.3019   22.3747 N   0  0  0  0  0  0
  -26.4277  -37.3802   23.9432 N   0  0  0  0  0  0
  -24.6585  -31.0866   22.0993 N   0  0  0  0  0  0
  -23.4174  -28.8235   23.3041 O   0  0  0  0  0  0
  -28.4184  -26.7938   20.0846 O   0  0  0  0  0  0
  -26.5573  -34.8941   22.4695 O   0  0  0  0  0  0
  -23.5305  -32.1441   23.7553 O   0  0  0  0  0  0
  -28.5626  -17.5911   19.8190 C   0  0  0  0  0  0
  -28.9278  -16.1275   20.0583 C   0  0  0  0  0  0
  -31.3424  -16.9026   20.2820 C   0  0  0  0  0  0
  -30.8998  -18.3366   19.8695 C   0  0  2  0  0  0
  -29.6418  -18.2708   18.9782 C   0  0  2  0  0  0
  -33.2653  -19.3099   20.2330 C   0  0  0  0  0  0
  -32.5600  -18.7222   17.8803 C   0  0  0  0  0  0
  -28.3299  -19.4057   17.2137 C   0  0  0  0  0  0
  -28.4436  -23.0209   19.9596 C   0  0  0  0  0  0
  -28.6901  -21.9915   18.8541 C   0  0  0  0  0  0
  -28.5500  -24.4617   19.4498 C   0  0  0  0  0  0
  -28.6627  -20.5490   19.3894 C   0  0  0  0  0  0
  -28.3455  -25.4666   20.5848 C   0  0  0  0  0  0
  -32.0705  -19.1844   19.2698 C   0  0  0  0  0  0
  -30.3213  -15.8080   20.4105 N   0  0  0  0  0  0
  -29.2045  -19.5772   18.4039 N   0  3  1  0  0  0
  -31.4340  -12.4034   19.0757 H   0  0  0  0  0  0
  -30.3044  -11.3691   19.8987 H   0  0  0  0  0  0
  -29.7231  -11.6794   17.4580 H   0  0  0  0  0  0
  -29.5879  -13.4058   17.6946 H   0  0  0  0  0  0
  -27.8721  -11.2127   18.9138 H   0  0  0  0  0  0
  -27.3220  -12.4376   17.8034 H   0  0  0  0  0  0
  -27.5440  -14.1342   19.3932 H   0  0  0  0  0  0
  -28.7324  -12.1413   21.4205 H   0  0  0  0  0  0
  -28.4796  -13.8221   21.7645 H   0  0  0  0  0  0
  -25.2674   -9.5650   22.4790 H   0  0  0  0  0  0
  -23.9973   -7.4568   22.7466 H   0  0  0  0  0  0
  -21.0786   -8.8684   19.8943 H   0  0  0  0  0  0
  -22.3606  -10.9627   19.6194 H   0  0  0  0  0  0
  -21.1942   -7.6104   23.9680 H   0  0  0  0  0  0
  -21.1507   -6.0506   25.9078 H   0  0  0  0  0  0
  -22.0599   -2.7567   23.2869 H   0  0  0  0  0  0
  -22.3974  -11.9930   22.4888 H   0  0  0  0  0  0
  -21.1008  -13.1303   22.2558 H   0  0  0  0  0  0
  -24.6588  -15.8246   20.4964 H   0  0  0  0  0  0
  -26.2884  -15.6046   20.1021 H   0  0  0  0  0  0
  -26.7085  -32.5564   23.1181 H   0  0  0  0  0  0
  -25.0089  -33.9800   25.0523 H   0  0  0  0  0  0
  -22.6815  -31.3116   21.4157 H   0  0  0  0  0  0
  -23.3766  -35.9614   23.3264 H   0  0  0  0  0  0
  -24.3597  -36.8944   22.2058 H   0  0  0  0  0  0
  -23.7201  -37.6498   23.6660 H   0  0  0  0  0  0
  -26.0203  -31.6212   20.5871 H   0  0  0  0  0  0
  -26.8089  -30.9082   21.9672 H   0  0  0  0  0  0
  -28.0958  -29.1660   21.1280 H   0  0  0  0  0  0
  -26.0701  -25.9870   19.0281 H   0  0  0  0  0  0
  -23.9730  -27.2813   19.0601 H   0  0  0  0  0  0
  -23.6979  -30.5989   19.4035 H   0  0  0  0  0  0
  -22.7246  -29.2378   19.8773 H   0  0  0  0  0  0
  -25.1263  -36.1974   25.0842 H   0  0  0  0  0  0
  -20.9961  -28.3183   24.1456 H   0  0  0  0  0  0
  -20.5651  -26.2242   23.3596 H   0  0  0  0  0  0
  -21.6626  -26.7417   22.1217 H   0  0  0  0  0  0
  -19.6884  -25.6294   21.1229 H   0  0  0  0  0  0
  -19.6678  -27.3204   20.6757 H   0  0  0  0  0  0
  -17.4192  -26.6685   21.4025 H   0  0  0  0  0  0
  -18.0305  -26.0042   22.9011 H   0  0  0  0  0  0
  -19.7931  -30.7245   24.2269 H   0  0  0  0  0  0
  -17.5019  -31.6250   24.5172 H   0  0  0  0  0  0
  -15.5346  -30.2985   23.7636 H   0  0  0  0  0  0
  -15.8668  -28.0821   22.7032 H   0  0  0  0  0  0
  -24.5884  -30.7091   25.7853 H   0  0  0  0  0  0
  -24.9004  -32.2871   26.5001 H   0  0  0  0  0  0
  -25.8133  -30.8834   27.0215 H   0  0  0  0  0  0
  -26.2759  -29.6832   24.1123 H   0  0  0  0  0  0
  -27.4103  -29.7253   25.4435 H   0  0  0  0  0  0
  -27.8573  -30.4392   23.9102 H   0  0  0  0  0  0
  -27.2680  -33.3608   26.2052 H   0  0  0  0  0  0
  -28.3855  -32.6842   25.0284 H   0  0  0  0  0  0
  -28.0717  -31.8417   26.5378 H   0  0  0  0  0  0
  -28.2563  -38.0127   24.7572 H   0  0  0  0  0  0
  -28.1118  -36.2665   24.6185 H   0  0  0  0  0  0
  -27.2327  -37.1323   25.8863 H   0  0  0  0  0  0
  -20.9242  -29.8763   21.7004 H   0  0  0  0  0  0
  -26.0169  -38.2870   24.1478 H   0  0  0  0  0  0
  -28.4227  -18.1014   20.7729 H   0  0  0  0  0  0
  -27.5955  -17.6256   19.3175 H   0  0  0  0  0  0
  -28.7745  -15.6563   19.0907 H   0  0  0  0  0  0
  -28.2355  -15.7335   20.7980 H   0  0  0  0  0  0
  -31.9073  -16.9587   21.2142 H   0  0  0  0  0  0
  -32.0615  -16.5986   19.5226 H   0  0  0  0  0  0
  -30.6191  -18.8331   20.7994 H   0  0  0  0  0  0
  -29.8831  -17.6189   18.1368 H   0  0  0  0  0  0
  -32.9530  -19.6663   21.2148 H   0  0  0  0  0  0
  -34.0024  -20.0190   19.8529 H   0  0  0  0  0  0
  -33.7776  -18.3579   20.3709 H   0  0  0  0  0  0
  -31.7524  -18.6470   17.1529 H   0  0  0  0  0  0
  -33.0587  -17.7542   17.9184 H   0  0  0  0  0  0
  -33.2831  -19.4304   17.4706 H   0  0  0  0  0  0
  -28.7542  -18.6943   16.5043 H   0  0  0  0  0  0
  -28.2051  -20.3419   16.6710 H   0  0  0  0  0  0
  -27.3377  -19.0498   17.4922 H   0  0  0  0  0  0
  -29.1666  -22.8747   20.7637 H   0  0  0  0  0  0
  -27.4581  -22.8589   20.3976 H   0  0  0  0  0  0
  -29.6578  -22.1943   18.3936 H   0  0  0  0  0  0
  -27.9390  -22.1196   18.0733 H   0  0  0  0  0  0
  -27.8155  -24.6271   18.6629 H   0  0  0  0  0  0
  -29.5288  -24.6266   18.9975 H   0  0  0  0  0  0
  -27.6491  -20.2717   19.6827 H   0  0  0  0  0  0
  -29.2596  -20.5162   20.2994 H   0  0  0  0  0  0
  -29.1353  -25.3486   21.3271 H   0  0  0  0  0  0
  -27.4083  -25.2711   21.1105 H   0  0  0  0  0  0
  -31.7008  -20.2031   19.1427 H   0  0  0  0  0  0
  -30.0512  -19.9928   18.0462 H   0  0  0  0  0  0
  1 25  1  0  0  0
  1 30  2  0  0  0
  1 85  1  0  0  0
  2  3  1  0  0  0
  2 25  1  0  0  0
  2 87  1  0  0  0
  2 88  1  0  0  0
  3  4  1  0  0  0
  3 89  1  0  0  0
  3 90  1  0  0  0
  4  5  1  0  0  0
  4 91  1  0  0  0
  4 92  1  0  0  0
  5  6  1  0  0  0
  5 26  1  0  0  0
  5 93  1  0  0  0
  6 25  1  0  0  0
  6 94  1  0  0  0
  6 95  1  0  0  0
  7  8  2  0  0  0
  7 26  1  0  0  0
  7 29  1  0  0  0
  8  9  1  0  0  0
  8 22  1  0  0  0
  9 10  1  0  0  0
  9 27  2  0  0  0
 10 11  2  0  0  0
 10 15  1  0  0  0
 11 12  1  0  0  0
 11 96  1  0  0  0
 12 13  2  0  0  0
 12 97  1  0  0  0
 13 14  1  0  0  0
 13 31  1  0  0  0
 14 15  2  0  0  0
 14 98  1  0  0  0
 15 99  1  0  0  0
 16 17  2  0  0  0
 16 21  1  0  0  0
 16 31  1  0  0  0
 17 18  1  0  0  0
 17100  1  0  0  0
 18 19  2  0  0  0
 18101  1  0  0  0
 19 20  1  0  0  0
 19 24  1  0  0  0
 20 21  2  0  0  0
 20102  1  0  0  0
 21 23  1  0  0  0
 22 28  1  0  0  0
 22 32  2  0  0  0
 26 27  1  0  0  0
 28103  1  0  0  0
 28104  1  0  0  0
 29105  1  0  0  0
 29106  1  0  0  0
 33 34  1  0  0  0
 33 66  1  0  0  0
 33 70  2  0  0  0
 34 36  1  0  0  0
 34 59  1  0  0  0
 34107  1  0  0  0
 35 44  2  0  0  0
 35 45  1  0  0  0
 35 68  1  0  0  0
 36 56  1  0  0  0
 36108  1  0  0  0
 37 39  1  0  0  0
 37 47  1  0  0  0
 37 66  1  0  0  0
 37109  1  0  0  0
 38 43  2  0  0  0
 38 46  1  0  0  0
 38 47  1  0  0  0
 39 64  1  0  0  0
 39 67  2  0  0  0
 40 52  1  0  0  0
 40 53  2  0  0  0
 40 58  1  0  0  0
 41110  1  0  0  0
 41111  1  0  0  0
 41112  1  0  0  0
 41 48  1  0  0  0
 42 43  1  0  0  0
 42 66  1  0  0  0
 42113  1  0  0  0
 42114  1  0  0  0
 43 44  1  0  0  0
 44115  1  0  0  0
 45 46  2  0  0  0
 45116  1  0  0  0
 46117  1  0  0  0
 47118  1  0  0  0
 47119  1  0  0  0
 48 56  1  0  0  0
 48 65  1  0  0  0
 48120  1  0  0  0
 49 50  1  0  0  0
 49 53  1  0  0  0
 49 64  1  0  0  0
 49121  1  0  0  0
 50 51  1  0  0  0
 50122  1  0  0  0
 50123  1  0  0  0
 51 52  1  0  0  0
 51124  1  0  0  0
 51125  1  0  0  0
 52126  1  0  0  0
 52127  1  0  0  0
 53 54  1  0  0  0
 54 55  2  0  0  0
 54128  1  0  0  0
 55 57  1  0  0  0
 55129  1  0  0  0
 56 69  2  0  0  0
 57 58  2  0  0  0
 57130  1  0  0  0
 58131  1  0  0  0
 59 60  1  0  0  0
 59 61  1  0  0  0
 59 62  1  0  0  0
 60132  1  0  0  0
 60133  1  0  0  0
 60134  1  0  0  0
 61135  1  0  0  0
 61136  1  0  0  0
 61137  1  0  0  0
 62138  1  0  0  0
 62139  1  0  0  0
 62140  1  0  0  0
 63 65  1  0  0  0
 63141  1  0  0  0
 63142  1  0  0  0
 63143  1  0  0  0
 64144  1  0  0  0
 65145  1  0  0  0
 68 83  1  0  0  0
 71 72  1  0  0  0
 71146  1  0  0  0
 71147  1  0  0  0
 71 75  1  0  0  0
 72 85  1  0  0  0
 72148  1  0  0  0
 72149  1  0  0  0
 73 85  1  0  0  0
 73150  1  0  0  0
 73151  1  0  0  0
 73 74  1  0  0  0
 74 75  1  0  0  0
 74 84  1  0  0  0
 74152  1  0  0  0
 75 86  1  0  0  0
 75153  1  0  0  0
 76154  1  0  0  0
 76155  1  0  0  0
 76156  1  0  0  0
 76 84  1  0  0  0
 77 84  1  0  0  0
 77157  1  0  0  0
 77158  1  0  0  0
 77159  1  0  0  0
 78160  1  0  0  0
 78161  1  0  0  0
 78162  1  0  0  0
 78 86  1  0  0  0
 79 80  1  0  0  0
 79 81  1  0  0  0
 79163  1  0  0  0
 79164  1  0  0  0
 80 82  1  0  0  0
 80165  1  0  0  0
 80166  1  0  0  0
 81 83  1  0  0  0
 81167  1  0  0  0
 81168  1  0  0  0
 82 86  1  0  0  0
 82169  1  0  0  0
 82170  1  0  0  0
 83171  1  0  0  0
 83172  1  0  0  0
 84173  1  0  0  0
 86174  1  0  0  0
M  CHG  1  86   1
M  ISO  4   1 100  68 101  83 101  85 100
M  END
> <chiral flag>
0

> <version>
0

> <s_m_source_file>
/data/baiqing/PycharmProjects/Reinvent-master-3.2/result/LINK_invent/BTK/process_docking_weight1_custom_sum_contain_oxygen_bond_distance_aromatic_linkinvent_7_9_3/rearranged_h_0099.sdf

> <i_m_source_file_index>
56

> <r_mmod_Potential_Energy-OPLS-2005>
216.857192993164

> <r_mmod_Stretch_Energy-OPLS-2005>
42.7615013122559

> <r_mmod_Bend_Energy-OPLS-2005>
146.094802856445

> <r_mmod_Torsional_Energy-OPLS-2005>
353.882537841797

> <r_mmod_Improper_Torsional_Energy-OPLS-2005>
8.64238452911377

> <r_mmod_Van_der_Waal_Energy-OPLS-2005>
166.202270507812

> <r_mmod_Electrostatic_Energy-OPLS-2005>
-126.851654052734

> <r_mmod_Solvation_Energy-OPLS-2005>
-423.794586181641

> <b_mmod_Minimization_Converged-OPLS-2005>
0

> <r_mmod_RMS_Derivative-OPLS-2005>
1.81727302074432

$$$$
56
                    3D
 Structure written by MMmdl.
174182  0  0  1  0            999 V2000
  -30.7370  -14.6119   20.5413 C   0  0  0  0  0  0
  -30.4171  -12.4118   19.4220 C   0  0  0  0  0  0
  -29.4855  -12.4958   18.1963 C   0  0  0  0  0  0
  -28.0176  -12.3051   18.6268 C   0  0  0  0  0  0
  -27.6406  -13.1919   19.8397 C   0  0  2  0  0  0
  -28.6985  -13.0723   20.9620 C   0  0  0  0  0  0
  -25.2539  -13.8082   20.5635 C   0  0  0  0  0  0
  -24.1820  -13.0383   20.9217 C   0  0  0  0  0  0
  -24.6375  -11.6854   20.8779 C   0  0  0  0  0  0
  -23.9042  -10.4269   21.0477 C   0  0  0  0  0  0
  -24.3612   -9.4187   21.9245 C   0  0  0  0  0  0
  -23.6310   -8.2215   22.0779 C   0  0  0  0  0  0
  -22.4296   -8.0276   21.3547 C   0  0  0  0  0  0
  -21.9913   -9.0242   20.4652 C   0  0  0  0  0  0
  -22.7225  -10.2136   20.3106 C   0  0  0  0  0  0
  -21.6853   -6.0772   22.5288 C   0  0  0  0  0  0
  -21.4005   -6.5674   23.8219 C   0  0  0  0  0  0
  -21.3650   -5.6818   24.9164 C   0  0  0  0  0  0
  -21.6053   -4.3084   24.7210 C   0  0  0  0  0  0
  -21.8826   -3.8182   23.4324 C   0  0  0  0  0  0
  -21.9189   -4.7008   22.3379 C   0  0  0  0  0  0
  -22.7841  -13.5193   21.1852 C   0  0  0  0  0  0
  -22.1656   -4.2209   21.0963 F   0  0  0  0  0  0
  -21.5615   -3.4550   25.7697 F   0  0  0  0  0  0
  -29.9898  -13.4653   20.3736 N   0  0  0  0  0  0
  -26.2934  -12.9222   20.3250 N   0  0  0  0  0  0
  -25.9282  -11.6401   20.5744 N   0  0  0  0  0  0
  -22.0485  -12.8204   22.0419 N   0  0  0  0  0  0
  -25.4146  -15.1791   20.3947 N   0  0  0  0  0  0
  -31.9384  -14.5482   20.2851 O   0  0  0  0  0  0
  -21.6652   -6.8887   21.4249 O   0  0  0  0  0  0
  -22.3533  -14.5500   20.6686 O   0  0  0  0  0  0
  -24.6188  -31.8658   23.2086 C   0  0  0  0  0  0
  -25.9058  -32.4827   23.8411 C   0  0  1  0  0  0
  -27.2478  -27.4075   20.1214 C   0  0  0  0  0  0
  -25.5915  -33.8616   24.2334 N   0  0  0  0  0  0
  -23.4122  -30.4831   21.5473 C   0  0  2  0  0  0
  -24.8650  -28.9361   20.1259 C   0  0  0  0  0  0
  -22.7425  -29.4632   22.4982 C   0  0  0  0  0  0
  -18.0279  -28.1389   22.8477 C   0  0  0  0  0  0
  -24.1501  -36.7309   23.2638 C   0  0  0  0  0  0
  -25.9396  -30.8228   21.3666 C   0  0  0  0  0  0
  -26.0227  -29.4487   20.7248 C   0  0  0  0  0  0
  -27.2186  -28.6931   20.7179 C   0  0  0  0  0  0
  -26.0769  -26.9065   19.5263 C   0  0  0  0  0  0
  -24.8858  -27.6629   19.5258 C   0  0  0  0  0  0
  -23.6283  -29.8053   20.1666 C   0  0  0  0  0  0
  -25.4129  -36.3110   24.0319 C   0  0  1  0  0  0
  -20.5865  -28.3680   23.1334 C   0  0  2  0  0  0
  -20.6781  -26.9416   22.5441 C   0  0  0  0  0  0
  -19.5762  -26.6396   21.5241 C   0  0  0  0  0  0
  -18.1924  -26.7931   22.1622 C   0  0  0  0  0  0
  -19.1528  -28.8843   23.2903 C   0  0  0  0  0  0
  -18.9461  -30.1452   23.8917 C   0  0  0  0  0  0
  -17.6468  -30.6593   24.0556 C   0  0  0  0  0  0
  -25.9066  -34.9467   23.5132 C   0  0  0  0  0  0
  -16.5352  -29.9103   23.6321 C   0  0  0  0  0  0
  -16.7270  -28.6518   23.0334 C   0  0  0  0  0  0
  -26.4481  -31.6603   25.0742 C   0  0  0  0  0  0
  -25.3739  -31.3710   26.1484 C   0  0  0  0  0  0
  -27.0336  -30.3055   24.6121 C   0  0  0  0  0  0
  -27.6082  -32.4328   25.7468 C   0  0  0  0  0  0
  -27.5569  -37.1804   24.8450 C   0  0  0  0  0  0
  -21.4149  -29.3048   22.3724 N   0  0  0  0  0  0
  -26.4292  -37.3799   23.9404 N   0  0  0  0  0  0
  -24.6744  -31.0718   22.1016 N   0  0  0  0  0  0
  -23.4160  -28.8130   23.3023 O   0  0  0  0  0  0
  -28.4198  -26.6825   20.0447 O   0  0  0  0  0  0
  -26.5624  -34.8904   22.4693 O   0  0  0  0  0  0
  -23.5364  -32.1437   23.7461 O   0  0  0  0  0  0
  -29.7602  -19.3885   20.4645 C   0  0  0  0  0  0
  -30.5490  -21.0707   18.9468 C   0  0  0  0  0  0
  -30.7314  -18.4621   19.9726 C   0  0  0  0  0  0
  -29.6577  -20.7175   19.9702 C   0  0  0  0  0  0
  -31.5643  -18.9461   18.8988 C   0  0  0  0  0  0
  -34.4248  -18.2083   16.1643 C   0  0  0  0  0  0
  -30.8880  -16.6587   17.0293 C   0  0  0  0  0  0
  -33.9538  -18.0967   19.1298 C   0  0  0  0  0  0
  -28.8803  -16.0927   21.3991 C   0  0  0  0  0  0
  -31.0086  -17.1338   20.7832 C   0  0  0  0  0  0
  -33.2093  -18.8474   16.8793 C   0  0  0  0  0  0
  -32.2353  -16.7362   17.7748 C   0  0  0  0  0  0
  -28.3882  -24.1269   20.1335 C   0  0  0  0  0  0
  -28.5431  -25.5018   20.8658 C   0  0  0  0  0  0
  -29.1546  -22.9503   20.8208 C   0  0  0  0  0  0
  -32.7138  -18.1499   18.1990 C   0  0  0  0  0  0
  -31.4557  -20.2194   18.4446 N   0  0  0  0  0  0
  -30.1616  -15.8742   20.7207 N   0  0  0  0  0  0
  -28.7198  -21.6141   20.4685 O   0  0  0  0  0  0
  -31.4558  -12.5131   19.1009 H   0  0  0  0  0  0
  -30.3485  -11.4243   19.8781 H   0  0  0  0  0  0
  -29.7615  -11.7320   17.4680 H   0  0  0  0  0  0
  -29.6049  -13.4554   17.6906 H   0  0  0  0  0  0
  -27.8821  -11.2513   18.8781 H   0  0  0  0  0  0
  -27.3490  -12.5105   17.7895 H   0  0  0  0  0  0
  -27.6374  -14.2020   19.4381 H   0  0  0  0  0  0
  -28.7443  -12.0388   21.3075 H   0  0  0  0  0  0
  -28.4344  -13.6336   21.8551 H   0  0  0  0  0  0
  -25.2760   -9.5669   22.4819 H   0  0  0  0  0  0
  -24.0042   -7.4584   22.7464 H   0  0  0  0  0  0
  -21.0862   -8.8747   19.8912 H   0  0  0  0  0  0
  -22.3698  -10.9692   19.6226 H   0  0  0  0  0  0
  -21.2020   -7.6183   23.9732 H   0  0  0  0  0  0
  -21.1457   -6.0545   25.9072 H   0  0  0  0  0  0
  -22.0622   -2.7653   23.2798 H   0  0  0  0  0  0
  -22.4086  -11.9884   22.4857 H   0  0  0  0  0  0
  -21.1086  -13.1202   22.2571 H   0  0  0  0  0  0
  -24.6364  -15.8193   20.5074 H   0  0  0  0  0  0
  -26.2489  -15.6287   20.0439 H   0  0  0  0  0  0
  -26.7091  -32.5525   23.1147 H   0  0  0  0  0  0
  -25.0075  -33.9813   25.0476 H   0  0  0  0  0  0
  -22.7054  -31.3025   21.3946 H   0  0  0  0  0  0
  -23.3780  -35.9636   23.3320 H   0  0  0  0  0  0
  -24.3600  -36.8932   22.2055 H   0  0  0  0  0  0
  -23.7249  -37.6504   23.6669 H   0  0  0  0  0  0
  -26.0523  -31.5773   20.5862 H   0  0  0  0  0  0
  -26.8291  -30.8877   21.9817 H   0  0  0  0  0  0
  -28.1163  -29.0847   21.1746 H   0  0  0  0  0  0
  -26.0921  -25.9339   19.0548 H   0  0  0  0  0  0
  -23.9972  -27.2601   19.0638 H   0  0  0  0  0  0
  -23.7455  -30.5766   19.4049 H   0  0  0  0  0  0
  -22.7552  -29.2273   19.8617 H   0  0  0  0  0  0
  -25.1305  -36.1967   25.0815 H   0  0  0  0  0  0
  -20.9969  -28.3249   24.1450 H   0  0  0  0  0  0
  -20.5752  -26.2265   23.3623 H   0  0  0  0  0  0
  -21.6635  -26.7489   22.1173 H   0  0  0  0  0  0
  -19.6950  -25.6332   21.1233 H   0  0  0  0  0  0
  -19.6708  -27.3228   20.6795 H   0  0  0  0  0  0
  -17.4211  -26.6700   21.4005 H   0  0  0  0  0  0
  -18.0285  -26.0074   22.9017 H   0  0  0  0  0  0
  -19.7939  -30.7260   24.2277 H   0  0  0  0  0  0
  -17.5025  -31.6263   24.5188 H   0  0  0  0  0  0
  -15.5358  -30.3014   23.7663 H   0  0  0  0  0  0
  -15.8652  -28.0868   22.7038 H   0  0  0  0  0  0
  -24.5927  -30.7044   25.7795 H   0  0  0  0  0  0
  -24.8906  -32.2865   26.4909 H   0  0  0  0  0  0
  -25.8060  -30.8875   27.0257 H   0  0  0  0  0  0
  -26.2875  -29.6783   24.1227 H   0  0  0  0  0  0
  -27.4178  -29.7307   25.4558 H   0  0  0  0  0  0
  -27.8660  -30.4394   23.9218 H   0  0  0  0  0  0
  -27.2746  -33.3648   26.2034 H   0  0  0  0  0  0
  -28.3865  -32.6866   25.0263 H   0  0  0  0  0  0
  -28.0784  -31.8474   26.5384 H   0  0  0  0  0  0
  -28.2584  -38.0102   24.7538 H   0  0  0  0  0  0
  -28.1052  -36.2636   24.6223 H   0  0  0  0  0  0
  -27.2275  -37.1386   25.8845 H   0  0  0  0  0  0
  -20.9331  -29.8752   21.6908 H   0  0  0  0  0  0
  -26.0170  -38.2868   24.1464 H   0  0  0  0  0  0
  -29.1290  -19.1238   21.2952 H   0  0  0  0  0  0
  -30.5373  -22.0552   18.5022 H   0  0  0  0  0  0
  -34.7346  -18.8240   15.3212 H   0  0  0  0  0  0
  -34.2186  -17.2166   15.7654 H   0  0  0  0  0  0
  -35.2895  -18.1235   16.8216 H   0  0  0  0  0  0
  -30.6632  -15.6257   16.7638 H   0  0  0  0  0  0
  -30.9042  -17.2357   16.1061 H   0  0  0  0  0  0
  -30.0559  -17.0194   17.6370 H   0  0  0  0  0  0
  -34.5276  -19.0230   19.0696 H   0  0  0  0  0  0
  -34.6207  -17.2774   18.8572 H   0  0  0  0  0  0
  -33.7163  -17.9756   20.1821 H   0  0  0  0  0  0
  -28.6005  -17.1363   21.4710 H   0  0  0  0  0  0
  -28.9140  -15.7027   22.4183 H   0  0  0  0  0  0
  -28.0559  -15.6443   20.8705 H   0  0  0  0  0  0
  -30.9579  -17.4605   21.8236 H   0  0  0  0  0  0
  -32.0581  -16.8852   20.7030 H   0  0  0  0  0  0
  -32.3889  -18.9432   16.1667 H   0  0  0  0  0  0
  -33.5114  -19.8717   17.1057 H   0  0  0  0  0  0
  -32.9966  -16.2162   17.2000 H   0  0  0  0  0  0
  -32.1579  -16.1308   18.6524 H   0  0  0  0  0  0
  -28.7325  -24.2148   19.1026 H   0  0  0  0  0  0
  -27.3261  -23.8907   20.0804 H   0  0  0  0  0  0
  -29.5482  -25.5555   21.2836 H   0  0  0  0  0  0
  -27.8726  -25.5576   21.7270 H   0  0  0  0  0  0
  -28.9982  -23.0227   21.8969 H   0  0  0  0  0  0
  -30.2285  -23.0873   20.6845 H   0  0  0  0  0  0
  1 25  1  0  0  0
  1 30  2  0  0  0
  1 88  1  0  0  0
  2  3  1  0  0  0
  2 25  1  0  0  0
  2 90  1  0  0  0
  2 91  1  0  0  0
  3  4  1  0  0  0
  3 92  1  0  0  0
  3 93  1  0  0  0
  4  5  1  0  0  0
  4 94  1  0  0  0
  4 95  1  0  0  0
  5  6  1  0  0  0
  5 26  1  0  0  0
  5 96  1  0  0  0
  6 25  1  0  0  0
  6 97  1  0  0  0
  6 98  1  0  0  0
  7  8  2  0  0  0
  7 26  1  0  0  0
  7 29  1  0  0  0
  8  9  1  0  0  0
  8 22  1  0  0  0
  9 10  1  0  0  0
  9 27  2  0  0  0
 10 11  2  0  0  0
 10 15  1  0  0  0
 11 12  1  0  0  0
 11 99  1  0  0  0
 12 13  2  0  0  0
 12100  1  0  0  0
 13 14  1  0  0  0
 13 31  1  0  0  0
 14 15  2  0  0  0
 14101  1  0  0  0
 15102  1  0  0  0
 16 17  2  0  0  0
 16 21  1  0  0  0
 16 31  1  0  0  0
 17 18  1  0  0  0
 17103  1  0  0  0
 18 19  2  0  0  0
 18104  1  0  0  0
 19 20  1  0  0  0
 19 24  1  0  0  0
 20 21  2  0  0  0
 20105  1  0  0  0
 21 23  1  0  0  0
 22 28  1  0  0  0
 22 32  2  0  0  0
 26 27  1  0  0  0
 28106  1  0  0  0
 28107  1  0  0  0
 29108  1  0  0  0
 29109  1  0  0  0
 33 34  1  0  0  0
 33 66  1  0  0  0
 33 70  2  0  0  0
 34 36  1  0  0  0
 34 59  1  0  0  0
 34110  1  0  0  0
 35 44  2  0  0  0
 35 45  1  0  0  0
 35 68  1  0  0  0
 36 56  1  0  0  0
 36111  1  0  0  0
 37 39  1  0  0  0
 37 47  1  0  0  0
 37 66  1  0  0  0
 37112  1  0  0  0
 38 43  2  0  0  0
 38 46  1  0  0  0
 38 47  1  0  0  0
 39 64  1  0  0  0
 39 67  2  0  0  0
 40 52  1  0  0  0
 40 53  2  0  0  0
 40 58  1  0  0  0
 41113  1  0  0  0
 41114  1  0  0  0
 41115  1  0  0  0
 41 48  1  0  0  0
 42 43  1  0  0  0
 42 66  1  0  0  0
 42116  1  0  0  0
 42117  1  0  0  0
 43 44  1  0  0  0
 44118  1  0  0  0
 45 46  2  0  0  0
 45119  1  0  0  0
 46120  1  0  0  0
 47121  1  0  0  0
 47122  1  0  0  0
 48 56  1  0  0  0
 48 65  1  0  0  0
 48123  1  0  0  0
 49 50  1  0  0  0
 49 53  1  0  0  0
 49 64  1  0  0  0
 49124  1  0  0  0
 50 51  1  0  0  0
 50125  1  0  0  0
 50126  1  0  0  0
 51 52  1  0  0  0
 51127  1  0  0  0
 51128  1  0  0  0
 52129  1  0  0  0
 52130  1  0  0  0
 53 54  1  0  0  0
 54 55  2  0  0  0
 54131  1  0  0  0
 55 57  1  0  0  0
 55132  1  0  0  0
 56 69  2  0  0  0
 57 58  2  0  0  0
 57133  1  0  0  0
 58134  1  0  0  0
 59 60  1  0  0  0
 59 61  1  0  0  0
 59 62  1  0  0  0
 60135  1  0  0  0
 60136  1  0  0  0
 60137  1  0  0  0
 61138  1  0  0  0
 61139  1  0  0  0
 61140  1  0  0  0
 62141  1  0  0  0
 62142  1  0  0  0
 62143  1  0  0  0
 63 65  1  0  0  0
 63144  1  0  0  0
 63145  1  0  0  0
 63146  1  0  0  0
 64147  1  0  0  0
 65148  1  0  0  0
 68 84  1  0  0  0
 71 73  2  0  0  0
 71 74  1  0  0  0
 71149  1  0  0  0
 72 74  2  0  0  0
 72 87  1  0  0  0
 72150  1  0  0  0
 73 75  1  0  0  0
 73 80  1  0  0  0
 74 89  1  0  0  0
 75 86  1  0  0  0
 75 87  2  0  0  0
 76 81  1  0  0  0
 76151  1  0  0  0
 76152  1  0  0  0
 76153  1  0  0  0
 77 82  1  0  0  0
 77154  1  0  0  0
 77155  1  0  0  0
 77156  1  0  0  0
 78157  1  0  0  0
 78158  1  0  0  0
 78159  1  0  0  0
 78 86  1  0  0  0
 79 88  1  0  0  0
 79160  1  0  0  0
 79161  1  0  0  0
 79162  1  0  0  0
 80 88  1  0  0  0
 80163  1  0  0  0
 80164  1  0  0  0
 81 86  1  0  0  0
 81165  1  0  0  0
 81166  1  0  0  0
 82 86  1  0  0  0
 82167  1  0  0  0
 82168  1  0  0  0
 83 84  1  0  0  0
 83 85  1  0  0  0
 83169  1  0  0  0
 83170  1  0  0  0
 84171  1  0  0  0
 84172  1  0  0  0
 85 89  1  0  0  0
 85173  1  0  0  0
 85174  1  0  0  0
M  ISO  4   1 100  68 101  84 101  88 100
M  END
> <chiral flag>
0

> <version>
0

> <s_m_source_file>
/data/baiqing/PycharmProjects/Reinvent-master-3.2/result/LINK_invent/BTK/process_docking_weight1_custom_sum_contain_oxygen_bond_distance_aromatic_linkinvent_7_9_3/rearranged_h_0099.sdf

> <i_m_source_file_index>
57

> <r_mmod_Potential_Energy-OPLS-2005>
208.281539916992

> <r_mmod_Stretch_Energy-OPLS-2005>
78.5281524658203

> <r_mmod_Bend_Energy-OPLS-2005>
180.676834106445

> <r_mmod_Torsional_Energy-OPLS-2005>
316.116760253906

> <r_mmod_Improper_Torsional_Energy-OPLS-2005>
9.6527738571167

> <r_mmod_Van_der_Waal_Energy-OPLS-2005>
185.785614013672

> <r_mmod_Electrostatic_Energy-OPLS-2005>
-405.446441650391

> <r_mmod_Solvation_Energy-OPLS-2005>
-196.647888183594

> <b_mmod_Minimization_Converged-OPLS-2005>
0

> <r_mmod_RMS_Derivative-OPLS-2005>
4.31089162826538

$$$$
57
                    3D
 Structure written by MMmdl.
165173  0  0  1  0            999 V2000
  -30.4364  -15.2842   20.3645 C   0  0  0  0  0  0
  -30.4399  -12.8192   19.5311 C   0  0  0  0  0  0
  -29.5382  -12.5885   18.2918 C   0  0  0  0  0  0
  -28.0870  -12.3083   18.7184 C   0  0  0  0  0  0
  -27.6142  -13.2804   19.8277 C   0  0  2  0  0  0
  -28.6483  -13.4614   20.9610 C   0  0  0  0  0  0
  -25.2389  -13.8257   20.5750 C   0  0  0  0  0  0
  -24.1751  -13.0438   20.9266 C   0  0  0  0  0  0
  -24.6415  -11.6937   20.8765 C   0  0  0  0  0  0
  -23.9110  -10.4295   21.0405 C   0  0  0  0  0  0
  -24.3651   -9.4205   21.9182 C   0  0  0  0  0  0
  -23.6311   -8.2246   22.0753 C   0  0  0  0  0  0
  -22.4288   -8.0291   21.3551 C   0  0  0  0  0  0
  -21.9939   -9.0265   20.4650 C   0  0  0  0  0  0
  -22.7281  -10.2137   20.3053 C   0  0  0  0  0  0
  -21.6857   -6.0743   22.5278 C   0  0  0  0  0  0
  -21.4022   -6.5646   23.8212 C   0  0  0  0  0  0
  -21.3657   -5.6795   24.9172 C   0  0  0  0  0  0
  -21.6043   -4.3055   24.7222 C   0  0  0  0  0  0
  -21.8820   -3.8151   23.4340 C   0  0  0  0  0  0
  -21.9198   -4.6970   22.3397 C   0  0  0  0  0  0
  -22.7764  -13.5183   21.1911 C   0  0  0  0  0  0
  -22.1663   -4.2156   21.0978 F   0  0  0  0  0  0
  -21.5625   -3.4539   25.7732 F   0  0  0  0  0  0
  -29.8807  -13.9702   20.3348 N   0  0  0  0  0  0
  -26.2835  -12.9544   20.3249 N   0  0  0  0  0  0
  -25.9361  -11.6640   20.5740 N   0  0  0  0  0  0
  -22.0436  -12.8150   22.0462 N   0  0  0  0  0  0
  -25.4000  -15.1993   20.4169 N   0  0  0  0  0  0
  -31.6545  -15.2876   20.1344 O   0  0  0  0  0  0
  -21.6651   -6.8888   21.4237 O   0  0  0  0  0  0
  -22.3434  -14.5483   20.6758 O   0  0  0  0  0  0
  -24.6641  -31.8230   23.1683 C   0  0  0  0  0  0
  -25.9318  -32.4589   23.8157 C   0  0  1  0  0  0
  -27.2289  -26.9232   20.1975 C   0  0  0  0  0  0
  -25.5980  -33.8400   24.2057 N   0  0  0  0  0  0
  -23.4804  -30.4332   21.5175 C   0  0  2  0  0  0
  -24.9352  -28.8130   20.1204 C   0  0  0  0  0  0
  -22.7682  -29.4436   22.4766 C   0  0  0  0  0  0
  -18.0330  -28.1421   22.8467 C   0  0  0  0  0  0
  -24.1494  -36.7209   23.2650 C   0  0  0  0  0  0
  -26.0493  -30.6301   21.3963 C   0  0  0  0  0  0
  -26.1199  -29.2159   20.7486 C   0  0  0  0  0  0
  -27.2650  -28.2957   20.7555 C   0  0  0  0  0  0
  -26.0101  -26.6690   19.5313 C   0  0  0  0  0  0
  -24.9040  -27.5587   19.4906 C   0  0  0  0  0  0
  -23.7246  -29.7456   20.1454 C   0  0  0  0  0  0
  -25.4134  -36.2963   24.0299 C   0  0  1  0  0  0
  -20.5956  -28.3764   23.1186 C   0  0  2  0  0  0
  -20.6811  -26.9447   22.5402 C   0  0  0  0  0  0
  -19.5780  -26.6375   21.5222 C   0  0  0  0  0  0
  -18.1959  -26.7953   22.1621 C   0  0  0  0  0  0
  -19.1592  -28.8909   23.2819 C   0  0  0  0  0  0
  -18.9506  -30.1497   23.8854 C   0  0  0  0  0  0
  -17.6503  -30.6609   24.0558 C   0  0  0  0  0  0
  -25.9096  -34.9352   23.4993 C   0  0  0  0  0  0
  -16.5392  -29.9100   23.6342 C   0  0  0  0  0  0
  -16.7312  -28.6523   23.0352 C   0  0  0  0  0  0
  -26.4547  -31.6541   25.0698 C   0  0  0  0  0  0
  -25.3667  -31.3818   26.1351 C   0  0  0  0  0  0
  -27.0437  -30.2899   24.6435 C   0  0  0  0  0  0
  -27.6025  -32.4362   25.7505 C   0  0  0  0  0  0
  -27.5557  -37.1769   24.8465 C   0  0  0  0  0  0
  -21.4344  -29.3059   22.3536 N   0  0  0  0  0  0
  -26.4267  -37.3702   23.9412 N   0  0  0  0  0  0
  -24.7530  -30.9893   22.0819 N   0  0  0  0  0  0
  -23.4229  -28.8002   23.3010 O   0  0  0  0  0  0
  -28.2535  -25.8324   20.1872 O   0  0  0  0  0  0
  -26.5700  -34.8892   22.4589 O   0  0  0  0  0  0
  -23.5707  -32.1177   23.6780 O   0  0  0  0  0  0
  -27.3862  -19.4371   23.0221 C   0  0  0  0  0  0
  -27.2146  -21.3089   21.5484 C   0  0  0  0  0  0
  -26.6792  -20.5499   22.5901 C   0  0  0  0  0  0
  -28.4940  -18.9626   22.3077 C   0  0  0  0  0  0
  -28.4236  -21.0307   20.8608 C   0  0  0  0  0  0
  -28.9243  -19.5143   21.0516 C   0  0  0  0  0  0
  -29.2300  -17.8347   23.0257 C   0  0  0  0  0  0
  -24.2348  -21.2289   22.4137 C   0  0  0  0  0  0
  -25.7286  -22.2603   24.1864 C   0  0  0  0  0  0
  -28.2911  -24.4085   22.1111 C   0  0  0  0  0  0
  -28.7870  -22.5969   20.1616 C   0  0  0  0  0  0
  -29.8065  -18.2256   20.2664 C   0  0  0  0  0  0
  -25.4367  -21.0085   23.3456 C   0  0  0  0  0  0
  -28.0717  -24.2381   20.5963 C   0  0  2  0  0  0
  -29.6572  -16.5492   20.4524 N   0  0  0  0  0  0
  -31.4604  -13.0186   19.2024 H   0  0  0  0  0  0
  -30.5019  -11.9139   20.1371 H   0  0  0  0  0  0
  -29.9202  -11.7638   17.6885 H   0  0  0  0  0  0
  -29.5665  -13.4740   17.6545 H   0  0  0  0  0  0
  -28.0440  -11.2830   19.0869 H   0  0  0  0  0  0
  -27.4183  -12.3538   17.8577 H   0  0  0  0  0  0
  -27.5268  -14.2477   19.3306 H   0  0  0  0  0  0
  -28.8180  -12.5305   21.5040 H   0  0  0  0  0  0
  -28.2854  -14.1850   21.6927 H   0  0  0  0  0  0
  -25.2791   -9.5678   22.4767 H   0  0  0  0  0  0
  -24.0016   -7.4636   22.7473 H   0  0  0  0  0  0
  -21.0872   -8.8797   19.8949 H   0  0  0  0  0  0
  -22.3746  -10.9683   19.6168 H   0  0  0  0  0  0
  -21.2018   -7.6155   23.9718 H   0  0  0  0  0  0
  -21.1476   -6.0524   25.9077 H   0  0  0  0  0  0
  -22.0601   -2.7612   23.2838 H   0  0  0  0  0  0
  -22.4076  -11.9809   22.4819 H   0  0  0  0  0  0
  -21.1054  -13.1152   22.2696 H   0  0  0  0  0  0
  -24.6236  -15.8434   20.5229 H   0  0  0  0  0  0
  -26.2354  -15.6440   20.0609 H   0  0  0  0  0  0
  -26.7396  -32.5121   23.0879 H   0  0  0  0  0  0
  -25.0121  -33.9484   25.0200 H   0  0  0  0  0  0
  -22.7961  -31.2658   21.3427 H   0  0  0  0  0  0
  -23.3753  -35.9543   23.3289 H   0  0  0  0  0  0
  -24.3561  -36.8867   22.2063 H   0  0  0  0  0  0
  -23.7249  -37.6392   23.6717 H   0  0  0  0  0  0
  -26.2272  -31.3690   20.6134 H   0  0  0  0  0  0
  -26.9101  -30.6892   22.0497 H   0  0  0  0  0  0
  -28.1692  -28.6123   21.2567 H   0  0  0  0  0  0
  -25.8916  -25.7128   19.0418 H   0  0  0  0  0  0
  -24.0045  -27.2408   18.9806 H   0  0  0  0  0  0
  -23.8903  -30.5123   19.3875 H   0  0  0  0  0  0
  -22.8336  -29.2050   19.8218 H   0  0  0  0  0  0
  -25.1334  -36.1743   25.0789 H   0  0  0  0  0  0
  -21.0047  -28.3369   24.1304 H   0  0  0  0  0  0
  -20.5697  -26.2391   23.3651 H   0  0  0  0  0  0
  -21.6679  -26.7424   22.1206 H   0  0  0  0  0  0
  -19.6954  -25.6269   21.1287 H   0  0  0  0  0  0
  -19.6720  -27.3162   20.6739 H   0  0  0  0  0  0
  -17.4237  -26.6697   21.4018 H   0  0  0  0  0  0
  -18.0341  -26.0109   22.9027 H   0  0  0  0  0  0
  -19.7983  -30.7317   24.2203 H   0  0  0  0  0  0
  -17.5060  -31.6280   24.5178 H   0  0  0  0  0  0
  -15.5391  -30.2994   23.7700 H   0  0  0  0  0  0
  -15.8708  -28.0836   22.7086 H   0  0  0  0  0  0
  -24.5882  -30.7129   25.7665 H   0  0  0  0  0  0
  -24.8829  -32.3038   26.4596 H   0  0  0  0  0  0
  -25.7894  -30.9105   27.0237 H   0  0  0  0  0  0
  -26.3100  -29.6577   24.1424 H   0  0  0  0  0  0
  -27.3939  -29.7264   25.5093 H   0  0  0  0  0  0
  -27.9047  -30.4063   23.9855 H   0  0  0  0  0  0
  -27.2580  -33.3725   26.1914 H   0  0  0  0  0  0
  -28.3924  -32.6829   25.0399 H   0  0  0  0  0  0
  -28.0596  -31.8602   26.5560 H   0  0  0  0  0  0
  -28.2560  -38.0077   24.7489 H   0  0  0  0  0  0
  -28.1062  -36.2598   24.6309 H   0  0  0  0  0  0
  -27.2278  -37.1430   25.8870 H   0  0  0  0  0  0
  -20.9610  -29.8768   21.6673 H   0  0  0  0  0  0
  -26.0101  -38.2753   24.1427 H   0  0  0  0  0  0
  -27.0700  -18.9261   23.9217 H   0  0  0  0  0  0
  -26.6838  -22.2217   21.3438 H   0  0  0  0  0  0
  -29.2262  -18.0108   24.1025 H   0  0  0  0  0  0
  -30.2831  -17.7677   22.7509 H   0  0  0  0  0  0
  -28.7422  -16.8741   22.8640 H   0  0  0  0  0  0
  -23.9966  -20.3208   21.8594 H   0  0  0  0  0  0
  -24.4173  -22.0255   21.6922 H   0  0  0  0  0  0
  -23.3471  -21.5051   22.9833 H   0  0  0  0  0  0
  -26.5821  -22.0994   24.8465 H   0  0  0  0  0  0
  -24.8746  -22.5194   24.8120 H   0  0  0  0  0  0
  -25.9486  -23.1245   23.5598 H   0  0  0  0  0  0
  -28.0820  -23.5050   22.6778 H   0  0  0  0  0  0
  -27.6674  -25.2023   22.5234 H   0  0  0  0  0  0
  -29.3286  -24.6724   22.3154 H   0  0  0  0  0  0
  -28.6231  -22.4726   19.0913 H   0  0  0  0  0  0
  -29.8677  -22.7010   20.2618 H   0  0  0  0  0  0
  -30.8612  -18.4457   20.4365 H   0  0  0  0  0  0
  -29.6695  -18.4010   19.1988 H   0  0  0  0  0  0
  -25.1605  -20.2103   24.0363 H   0  0  0  0  0  0
  -27.0045  -24.1023   20.4307 H   0  0  0  0  0  0
  -28.6900  -16.3184   20.6221 H   0  0  0  0  0  0
  1 25  1  0  0  0
  1 30  2  0  0  0
  1 85  1  0  0  0
  2  3  1  0  0  0
  2 25  1  0  0  0
  2 86  1  0  0  0
  2 87  1  0  0  0
  3  4  1  0  0  0
  3 88  1  0  0  0
  3 89  1  0  0  0
  4  5  1  0  0  0
  4 90  1  0  0  0
  4 91  1  0  0  0
  5  6  1  0  0  0
  5 26  1  0  0  0
  5 92  1  0  0  0
  6 25  1  0  0  0
  6 93  1  0  0  0
  6 94  1  0  0  0
  7  8  2  0  0  0
  7 26  1  0  0  0
  7 29  1  0  0  0
  8  9  1  0  0  0
  8 22  1  0  0  0
  9 10  1  0  0  0
  9 27  2  0  0  0
 10 11  2  0  0  0
 10 15  1  0  0  0
 11 12  1  0  0  0
 11 95  1  0  0  0
 12 13  2  0  0  0
 12 96  1  0  0  0
 13 14  1  0  0  0
 13 31  1  0  0  0
 14 15  2  0  0  0
 14 97  1  0  0  0
 15 98  1  0  0  0
 16 17  2  0  0  0
 16 21  1  0  0  0
 16 31  1  0  0  0
 17 18  1  0  0  0
 17 99  1  0  0  0
 18 19  2  0  0  0
 18100  1  0  0  0
 19 20  1  0  0  0
 19 24  1  0  0  0
 20 21  2  0  0  0
 20101  1  0  0  0
 21 23  1  0  0  0
 22 28  1  0  0  0
 22 32  2  0  0  0
 26 27  1  0  0  0
 28102  1  0  0  0
 28103  1  0  0  0
 29104  1  0  0  0
 29105  1  0  0  0
 33 34  1  0  0  0
 33 66  1  0  0  0
 33 70  2  0  0  0
 34 36  1  0  0  0
 34 59  1  0  0  0
 34106  1  0  0  0
 35 44  2  0  0  0
 35 45  1  0  0  0
 35 68  1  0  0  0
 36 56  1  0  0  0
 36107  1  0  0  0
 37 39  1  0  0  0
 37 47  1  0  0  0
 37 66  1  0  0  0
 37108  1  0  0  0
 38 43  2  0  0  0
 38 46  1  0  0  0
 38 47  1  0  0  0
 39 64  1  0  0  0
 39 67  2  0  0  0
 40 52  1  0  0  0
 40 53  2  0  0  0
 40 58  1  0  0  0
 41109  1  0  0  0
 41110  1  0  0  0
 41111  1  0  0  0
 41 48  1  0  0  0
 42 43  1  0  0  0
 42 66  1  0  0  0
 42112  1  0  0  0
 42113  1  0  0  0
 43 44  1  0  0  0
 44114  1  0  0  0
 45 46  2  0  0  0
 45115  1  0  0  0
 46116  1  0  0  0
 47117  1  0  0  0
 47118  1  0  0  0
 48 56  1  0  0  0
 48 65  1  0  0  0
 48119  1  0  0  0
 49 50  1  0  0  0
 49 53  1  0  0  0
 49 64  1  0  0  0
 49120  1  0  0  0
 50 51  1  0  0  0
 50121  1  0  0  0
 50122  1  0  0  0
 51 52  1  0  0  0
 51123  1  0  0  0
 51124  1  0  0  0
 52125  1  0  0  0
 52126  1  0  0  0
 53 54  1  0  0  0
 54 55  2  0  0  0
 54127  1  0  0  0
 55 57  1  0  0  0
 55128  1  0  0  0
 56 69  2  0  0  0
 57 58  2  0  0  0
 57129  1  0  0  0
 58130  1  0  0  0
 59 60  1  0  0  0
 59 61  1  0  0  0
 59 62  1  0  0  0
 60131  1  0  0  0
 60132  1  0  0  0
 60133  1  0  0  0
 61134  1  0  0  0
 61135  1  0  0  0
 61136  1  0  0  0
 62137  1  0  0  0
 62138  1  0  0  0
 62139  1  0  0  0
 63 65  1  0  0  0
 63140  1  0  0  0
 63141  1  0  0  0
 63142  1  0  0  0
 64143  1  0  0  0
 65144  1  0  0  0
 68 84  1  0  0  0
 71 73  2  0  0  0
 71 74  1  0  0  0
 71145  1  0  0  0
 72 73  1  0  0  0
 72 75  2  0  0  0
 72146  1  0  0  0
 73 83  1  0  0  0
 74 76  2  0  0  0
 74 77  1  0  0  0
 75 76  1  0  0  0
 75 81  1  0  0  0
 76 82  1  0  0  0
 77147  1  0  0  0
 77148  1  0  0  0
 77149  1  0  0  0
 78150  1  0  0  0
 78151  1  0  0  0
 78152  1  0  0  0
 78 83  1  0  0  0
 79 83  1  0  0  0
 79153  1  0  0  0
 79154  1  0  0  0
 79155  1  0  0  0
 80156  1  0  0  0
 80157  1  0  0  0
 80158  1  0  0  0
 80 84  1  0  0  0
 81 84  1  0  0  0
 81159  1  0  0  0
 81160  1  0  0  0
 82 85  1  0  0  0
 82161  1  0  0  0
 82162  1  0  0  0
 83163  1  0  0  0
 84164  1  0  0  0
 85165  1  0  0  0
M  ISO  4   1 100  68 101  84 101  85 100
M  END
> <chiral flag>
0

> <version>
0

> <s_m_source_file>
/data/baiqing/PycharmProjects/Reinvent-master-3.2/result/LINK_invent/BTK/process_docking_weight1_custom_sum_contain_oxygen_bond_distance_aromatic_linkinvent_7_9_3/rearranged_h_0099.sdf

> <i_m_source_file_index>
58

> <r_mmod_Potential_Energy-OPLS-2005>
1479.92602539062

> <r_mmod_Stretch_Energy-OPLS-2005>
682.26416015625

> <r_mmod_Bend_Energy-OPLS-2005>
529.889770507812

> <r_mmod_Torsional_Energy-OPLS-2005>
282.664031982422

> <r_mmod_Improper_Torsional_Energy-OPLS-2005>
4.73808002471924

> <r_mmod_Van_der_Waal_Energy-OPLS-2005>
138.043563842773

> <r_mmod_Electrostatic_Energy-OPLS-2005>
-423.542510986328

> <r_mmod_Solvation_Energy-OPLS-2005>
-199.832473754883

> <b_mmod_Minimization_Converged-OPLS-2005>
0

> <r_mmod_RMS_Derivative-OPLS-2005>
1.60373818874359

$$$$
58
                    3D
 Structure written by MMmdl.
155162  0  0  1  0            999 V2000
  -30.3371  -15.5568   20.3815 C   0  0  0  0  0  0
  -30.4339  -13.0275   19.5405 C   0  0  0  0  0  0
  -29.5495  -12.6547   18.3148 C   0  0  0  0  0  0
  -28.1115  -12.3169   18.7405 C   0  0  0  0  0  0
  -27.6037  -13.2984   19.8217 C   0  0  2  0  0  0
  -28.6315  -13.5419   20.9492 C   0  0  0  0  0  0
  -25.2316  -13.8252   20.5731 C   0  0  0  0  0  0
  -24.1708  -13.0415   20.9269 C   0  0  0  0  0  0
  -24.6411  -11.6928   20.8761 C   0  0  0  0  0  0
  -23.9112  -10.4283   21.0395 C   0  0  0  0  0  0
  -24.3648   -9.4197   21.9180 C   0  0  0  0  0  0
  -23.6309   -8.2243   22.0756 C   0  0  0  0  0  0
  -22.4289   -8.0281   21.3549 C   0  0  0  0  0  0
  -21.9935   -9.0254   20.4649 C   0  0  0  0  0  0
  -22.7275  -10.2125   20.3049 C   0  0  0  0  0  0
  -21.6859   -6.0737   22.5281 C   0  0  0  0  0  0
  -21.4016   -6.5640   23.8215 C   0  0  0  0  0  0
  -21.3659   -5.6792   24.9176 C   0  0  0  0  0  0
  -21.6042   -4.3053   24.7225 C   0  0  0  0  0  0
  -21.8816   -3.8148   23.4345 C   0  0  0  0  0  0
  -21.9193   -4.6964   22.3403 C   0  0  0  0  0  0
  -22.7724  -13.5158   21.1908 C   0  0  0  0  0  0
  -22.1658   -4.2151   21.0978 F   0  0  0  0  0  0
  -21.5631   -3.4536   25.7736 F   0  0  0  0  0  0
  -29.8133  -14.1903   20.3222 N   0  0  0  0  0  0
  -26.2787  -12.9580   20.3220 N   0  0  0  0  0  0
  -25.9365  -11.6663   20.5716 N   0  0  0  0  0  0
  -22.0385  -12.8153   22.0474 N   0  0  0  0  0  0
  -25.3842  -15.1984   20.4113 N   0  0  0  0  0  0
  -31.5505  -15.5137   20.1000 O   0  0  0  0  0  0
  -21.6648   -6.8882   21.4246 O   0  0  0  0  0  0
  -22.3394  -14.5452   20.6732 O   0  0  0  0  0  0
  -24.6794  -31.8046   23.1549 C   0  0  0  0  0  0
  -25.9393  -32.4493   23.8083 C   0  0  1  0  0  0
  -27.2295  -26.7456   20.2141 C   0  0  0  0  0  0
  -25.5992  -33.8319   24.1975 N   0  0  0  0  0  0
  -23.5038  -30.4076   21.5079 C   0  0  2  0  0  0
  -24.9628  -28.7567   20.1171 C   0  0  0  0  0  0
  -22.7744  -29.4343   22.4725 C   0  0  0  0  0  0
  -18.0338  -28.1415   22.8457 C   0  0  0  0  0  0
  -24.1494  -36.7162   23.2653 C   0  0  0  0  0  0
  -26.0825  -30.5515   21.4140 C   0  0  0  0  0  0
  -26.1499  -29.1209   20.7637 C   0  0  0  0  0  0
  -27.2702  -28.1426   20.7798 C   0  0  0  0  0  0
  -26.0115  -26.5818   19.5082 C   0  0  0  0  0  0
  -24.9306  -27.5118   19.4654 C   0  0  0  0  0  0
  -23.7557  -29.7062   20.1421 C   0  0  0  0  0  0
  -25.4145  -36.2914   24.0286 C   0  0  1  0  0  0
  -20.5969  -28.3779   23.1144 C   0  0  2  0  0  0
  -20.6804  -26.9442   22.5403 C   0  0  0  0  0  0
  -19.5782  -26.6369   21.5215 C   0  0  0  0  0  0
  -18.1964  -26.7943   22.1618 C   0  0  0  0  0  0
  -19.1602  -28.8921   23.2783 C   0  0  0  0  0  0
  -18.9508  -30.1503   23.8832 C   0  0  0  0  0  0
  -17.6500  -30.6600   24.0548 C   0  0  0  0  0  0
  -25.9122  -34.9302   23.4967 C   0  0  0  0  0  0
  -16.5390  -29.9082   23.6347 C   0  0  0  0  0  0
  -16.7319  -28.6502   23.0369 C   0  0  0  0  0  0
  -26.4587  -31.6507   25.0686 C   0  0  0  0  0  0
  -25.3659  -31.3811   26.1303 C   0  0  0  0  0  0
  -27.0512  -30.2848   24.6558 C   0  0  0  0  0  0
  -27.6044  -32.4357   25.7501 C   0  0  0  0  0  0
  -27.5567  -37.1740   24.8468 C   0  0  0  0  0  0
  -21.4398  -29.3034   22.3471 N   0  0  0  0  0  0
  -26.4275  -37.3668   23.9408 N   0  0  0  0  0  0
  -24.7781  -30.9530   22.0783 N   0  0  0  0  0  0
  -23.4205  -28.7945   23.3058 O   0  0  0  0  0  0
  -28.2037  -25.5481   20.2894 O   0  0  0  0  0  0
  -26.5760  -34.8872   22.4581 O   0  0  0  0  0  0
  -23.5822  -32.1105   23.6528 O   0  0  0  0  0  0
  -26.9436  -23.6935   21.3793 C   0  0  0  0  0  0
  -28.2820  -20.1064   18.7662 C   0  0  0  0  0  0
  -27.5219  -19.9920   21.1089 C   0  0  0  0  0  0
  -28.5802  -16.7771   21.6145 C   0  0  0  0  0  0
  -28.9841  -22.1687   20.3539 C   0  0  0  0  0  0
  -29.8101  -18.6632   20.4180 C   0  0  0  0  0  0
  -27.9819  -23.8162   20.2538 C   0  0  2  0  0  0
  -28.7462  -20.2574   20.2224 C   0  0  0  0  0  0
  -29.5863  -16.9132   20.5608 N   0  0  0  0  0  0
  -31.4295  -13.2851   19.1787 H   0  0  0  0  0  0
  -30.5919  -12.1580   20.1807 H   0  0  0  0  0  0
  -29.9880  -11.8181   17.7691 H   0  0  0  0  0  0
  -29.5306  -13.4961   17.6203 H   0  0  0  0  0  0
  -28.1104  -11.3017   19.1381 H   0  0  0  0  0  0
  -27.4451  -12.3108   17.8768 H   0  0  0  0  0  0
  -27.4900  -14.2484   19.2985 H   0  0  0  0  0  0
  -28.8835  -12.6112   21.4592 H   0  0  0  0  0  0
  -28.1945  -14.1721   21.7180 H   0  0  0  0  0  0
  -25.2789   -9.5673   22.4760 H   0  0  0  0  0  0
  -24.0010   -7.4633   22.7480 H   0  0  0  0  0  0
  -21.0865   -8.8773   19.8958 H   0  0  0  0  0  0
  -22.3732  -10.9660   19.6155 H   0  0  0  0  0  0
  -21.2011   -7.6149   23.9719 H   0  0  0  0  0  0
  -21.1486   -6.0523   25.9080 H   0  0  0  0  0  0
  -22.0597   -2.7610   23.2845 H   0  0  0  0  0  0
  -22.4026  -11.9842   22.4893 H   0  0  0  0  0  0
  -21.0986  -13.1149   22.2649 H   0  0  0  0  0  0
  -24.6100  -15.8432   20.5273 H   0  0  0  0  0  0
  -26.2233  -15.6452   20.0663 H   0  0  0  0  0  0
  -26.7473  -32.4982   23.0795 H   0  0  0  0  0  0
  -25.0053  -33.9365   25.0071 H   0  0  0  0  0  0
  -22.8271  -31.2441   21.3210 H   0  0  0  0  0  0
  -23.3778  -35.9469   23.3273 H   0  0  0  0  0  0
  -24.3561  -36.8863   22.2075 H   0  0  0  0  0  0
  -23.7230  -37.6323   23.6751 H   0  0  0  0  0  0
  -26.2824  -31.2798   20.6269 H   0  0  0  0  0  0
  -26.9339  -30.6169   22.0790 H   0  0  0  0  0  0
  -28.1642  -28.4274   21.3167 H   0  0  0  0  0  0
  -25.8579  -25.6361   19.0079 H   0  0  0  0  0  0
  -24.0358  -27.2238   18.9306 H   0  0  0  0  0  0
  -23.9253  -30.4674   19.3798 H   0  0  0  0  0  0
  -22.8615  -29.1690   19.8210 H   0  0  0  0  0  0
  -25.1352  -36.1686   25.0776 H   0  0  0  0  0  0
  -21.0057  -28.3408   24.1267 H   0  0  0  0  0  0
  -20.5662  -26.2410   23.3666 H   0  0  0  0  0  0
  -21.6666  -26.7386   22.1224 H   0  0  0  0  0  0
  -19.6937  -25.6260   21.1294 H   0  0  0  0  0  0
  -19.6718  -27.3136   20.6710 H   0  0  0  0  0  0
  -17.4232  -26.6688   21.4023 H   0  0  0  0  0  0
  -18.0355  -26.0100   22.9029 H   0  0  0  0  0  0
  -19.7986  -30.7331   24.2174 H   0  0  0  0  0  0
  -17.5053  -31.6275   24.5160 H   0  0  0  0  0  0
  -15.5386  -30.2963   23.7708 H   0  0  0  0  0  0
  -15.8721  -28.0794   22.7126 H   0  0  0  0  0  0
  -24.5857  -30.7156   25.7590 H   0  0  0  0  0  0
  -24.8835  -32.3031   26.4555 H   0  0  0  0  0  0
  -25.7833  -30.9074   27.0196 H   0  0  0  0  0  0
  -26.3220  -29.6470   24.1551 H   0  0  0  0  0  0
  -27.3953  -29.7283   25.5287 H   0  0  0  0  0  0
  -27.9198  -30.3981   24.0069 H   0  0  0  0  0  0
  -27.2590  -33.3717   26.1901 H   0  0  0  0  0  0
  -28.3945  -32.6823   25.0396 H   0  0  0  0  0  0
  -28.0616  -31.8606   26.5564 H   0  0  0  0  0  0
  -28.2560  -38.0059   24.7517 H   0  0  0  0  0  0
  -28.1088  -36.2583   24.6295 H   0  0  0  0  0  0
  -27.2285  -37.1379   25.8871 H   0  0  0  0  0  0
  -20.9692  -29.8694   21.6546 H   0  0  0  0  0  0
  -26.0111  -38.2721   24.1411 H   0  0  0  0  0  0
  -26.4320  -22.7365   21.3582 H   0  0  0  0  0  0
  -26.1666  -24.4522   21.3091 H   0  0  0  0  0  0
  -27.4169  -23.7954   22.3560 H   0  0  0  0  0  0
  -27.5049  -20.8281   18.5117 H   0  0  0  0  0  0
  -27.8832  -19.1097   18.5724 H   0  0  0  0  0  0
  -29.1131  -20.2641   18.0779 H   0  0  0  0  0  0
  -26.7104  -20.6812   20.8906 H   0  0  0  0  0  0
  -27.7682  -20.0852   22.1668 H   0  0  0  0  0  0
  -27.1090  -18.9995   20.9354 H   0  0  0  0  0  0
  -28.4080  -17.7046   22.1546 H   0  0  0  0  0  0
  -28.9001  -16.0867   22.3960 H   0  0  0  0  0  0
  -27.6305  -16.4410   21.2051 H   0  0  0  0  0  0
  -29.4901  -22.2697   21.3141 H   0  0  0  0  0  0
  -29.7840  -22.3486   19.6352 H   0  0  0  0  0  0
  -30.3969  -18.8716   21.3139 H   0  0  0  0  0  0
  -30.5548  -18.7368   19.6245 H   0  0  0  0  0  0
  -27.4446  -23.6967   19.3127 H   0  0  0  0  0  0
  1 25  1  0  0  0
  1 30  2  0  0  0
  1 79  1  0  0  0
  2  3  1  0  0  0
  2 25  1  0  0  0
  2 80  1  0  0  0
  2 81  1  0  0  0
  3  4  1  0  0  0
  3 82  1  0  0  0
  3 83  1  0  0  0
  4  5  1  0  0  0
  4 84  1  0  0  0
  4 85  1  0  0  0
  5  6  1  0  0  0
  5 26  1  0  0  0
  5 86  1  0  0  0
  6 25  1  0  0  0
  6 87  1  0  0  0
  6 88  1  0  0  0
  7  8  2  0  0  0
  7 26  1  0  0  0
  7 29  1  0  0  0
  8  9  1  0  0  0
  8 22  1  0  0  0
  9 10  1  0  0  0
  9 27  2  0  0  0
 10 11  2  0  0  0
 10 15  1  0  0  0
 11 12  1  0  0  0
 11 89  1  0  0  0
 12 13  2  0  0  0
 12 90  1  0  0  0
 13 14  1  0  0  0
 13 31  1  0  0  0
 14 15  2  0  0  0
 14 91  1  0  0  0
 15 92  1  0  0  0
 16 17  2  0  0  0
 16 21  1  0  0  0
 16 31  1  0  0  0
 17 18  1  0  0  0
 17 93  1  0  0  0
 18 19  2  0  0  0
 18 94  1  0  0  0
 19 20  1  0  0  0
 19 24  1  0  0  0
 20 21  2  0  0  0
 20 95  1  0  0  0
 21 23  1  0  0  0
 22 28  1  0  0  0
 22 32  2  0  0  0
 26 27  1  0  0  0
 28 96  1  0  0  0
 28 97  1  0  0  0
 29 98  1  0  0  0
 29 99  1  0  0  0
 33 34  1  0  0  0
 33 66  1  0  0  0
 33 70  2  0  0  0
 34 36  1  0  0  0
 34 59  1  0  0  0
 34100  1  0  0  0
 35 44  2  0  0  0
 35 45  1  0  0  0
 35 68  1  0  0  0
 36 56  1  0  0  0
 36101  1  0  0  0
 37 39  1  0  0  0
 37 47  1  0  0  0
 37 66  1  0  0  0
 37102  1  0  0  0
 38 43  2  0  0  0
 38 46  1  0  0  0
 38 47  1  0  0  0
 39 64  1  0  0  0
 39 67  2  0  0  0
 40 52  1  0  0  0
 40 53  2  0  0  0
 40 58  1  0  0  0
 41103  1  0  0  0
 41104  1  0  0  0
 41105  1  0  0  0
 41 48  1  0  0  0
 42 43  1  0  0  0
 42 66  1  0  0  0
 42106  1  0  0  0
 42107  1  0  0  0
 43 44  1  0  0  0
 44108  1  0  0  0
 45 46  2  0  0  0
 45109  1  0  0  0
 46110  1  0  0  0
 47111  1  0  0  0
 47112  1  0  0  0
 48 56  1  0  0  0
 48 65  1  0  0  0
 48113  1  0  0  0
 49 50  1  0  0  0
 49 53  1  0  0  0
 49 64  1  0  0  0
 49114  1  0  0  0
 50 51  1  0  0  0
 50115  1  0  0  0
 50116  1  0  0  0
 51 52  1  0  0  0
 51117  1  0  0  0
 51118  1  0  0  0
 52119  1  0  0  0
 52120  1  0  0  0
 53 54  1  0  0  0
 54 55  2  0  0  0
 54121  1  0  0  0
 55 57  1  0  0  0
 55122  1  0  0  0
 56 69  2  0  0  0
 57 58  2  0  0  0
 57123  1  0  0  0
 58124  1  0  0  0
 59 60  1  0  0  0
 59 61  1  0  0  0
 59 62  1  0  0  0
 60125  1  0  0  0
 60126  1  0  0  0
 60127  1  0  0  0
 61128  1  0  0  0
 61129  1  0  0  0
 61130  1  0  0  0
 62131  1  0  0  0
 62132  1  0  0  0
 62133  1  0  0  0
 63 65  1  0  0  0
 63134  1  0  0  0
 63135  1  0  0  0
 63136  1  0  0  0
 64137  1  0  0  0
 65138  1  0  0  0
 68 77  1  0  0  0
 71139  1  0  0  0
 71140  1  0  0  0
 71141  1  0  0  0
 71 77  1  0  0  0
 72142  1  0  0  0
 72143  1  0  0  0
 72144  1  0  0  0
 72 78  1  0  0  0
 73 78  1  0  0  0
 73145  1  0  0  0
 73146  1  0  0  0
 73147  1  0  0  0
 74 79  1  0  0  0
 74148  1  0  0  0
 74149  1  0  0  0
 74150  1  0  0  0
 75 77  1  0  0  0
 75 78  1  0  0  0
 75151  1  0  0  0
 75152  1  0  0  0
 76 78  1  0  0  0
 76 79  1  0  0  0
 76153  1  0  0  0
 76154  1  0  0  0
 77155  1  0  0  0
M  ISO  4   1 100  68 101  77 101  79 100
M  END
> <chiral flag>
0

> <version>
0

> <s_m_source_file>
/data/baiqing/PycharmProjects/Reinvent-master-3.2/result/LINK_invent/BTK/process_docking_weight1_custom_sum_contain_oxygen_bond_distance_aromatic_linkinvent_7_9_3/rearranged_h_0099.sdf

> <i_m_source_file_index>
59

> <r_mmod_Potential_Energy-OPLS-2005>
2458.08447265625

> <r_mmod_Stretch_Energy-OPLS-2005>
1130.24645996094

> <r_mmod_Bend_Energy-OPLS-2005>
631.828491210938

> <r_mmod_Torsional_Energy-OPLS-2005>
285.947906494141

> <r_mmod_Improper_Torsional_Energy-OPLS-2005>
5.61306142807007

> <r_mmod_Van_der_Waal_Energy-OPLS-2005>
116.312744140625

> <r_mmod_Electrostatic_Energy-OPLS-2005>
-303.280456542969

> <r_mmod_Solvation_Energy-OPLS-2005>
-193.597610473633

> <b_mmod_Minimization_Converged-OPLS-2005>
0

> <r_mmod_RMS_Derivative-OPLS-2005>
0.942930817604065

$$$$
59
                    3D
 Structure written by MMmdl.
166174  0  0  1  0            999 V2000
  -30.5817  -14.9354   20.5209 C   0  0  0  0  0  0
  -30.4324  -12.5921   19.5170 C   0  0  0  0  0  0
  -29.5210  -12.5676   18.2685 C   0  0  0  0  0  0
  -28.0544  -12.3458   18.6763 C   0  0  0  0  0  0
  -27.6387  -13.2548   19.8625 C   0  0  2  0  0  0
  -28.6795  -13.2430   21.0068 C   0  0  0  0  0  0
  -25.2402  -13.8219   20.5562 C   0  0  0  0  0  0
  -24.1761  -13.0436   20.9173 C   0  0  0  0  0  0
  -24.6416  -11.6935   20.8765 C   0  0  0  0  0  0
  -23.9096  -10.4297   21.0414 C   0  0  0  0  0  0
  -24.3640   -9.4207   21.9190 C   0  0  0  0  0  0
  -23.6303   -8.2246   22.0759 C   0  0  0  0  0  0
  -22.4285   -8.0286   21.3550 C   0  0  0  0  0  0
  -21.9930   -9.0261   20.4648 C   0  0  0  0  0  0
  -22.7267  -10.2137   20.3057 C   0  0  0  0  0  0
  -21.6858   -6.0741   22.5281 C   0  0  0  0  0  0
  -21.4014   -6.5642   23.8212 C   0  0  0  0  0  0
  -21.3657   -5.6794   24.9174 C   0  0  0  0  0  0
  -21.6043   -4.3057   24.7225 C   0  0  0  0  0  0
  -21.8817   -3.8151   23.4347 C   0  0  0  0  0  0
  -21.9191   -4.6968   22.3404 C   0  0  0  0  0  0
  -22.7779  -13.5196   21.1840 C   0  0  0  0  0  0
  -22.1661   -4.2155   21.0980 F   0  0  0  0  0  0
  -21.5628   -3.4541   25.7736 F   0  0  0  0  0  0
  -29.9645  -13.6769   20.4386 N   0  0  0  0  0  0
  -26.2919  -12.9495   20.3336 N   0  0  0  0  0  0
  -25.9373  -11.6616   20.5827 N   0  0  0  0  0  0
  -22.0461  -12.8188   22.0421 N   0  0  0  0  0  0
  -25.3927  -15.1917   20.3721 N   0  0  0  0  0  0
  -31.6729  -15.0126   19.9431 O   0  0  0  0  0  0
  -21.6642   -6.8887   21.4244 O   0  0  0  0  0  0
  -22.3442  -14.5501   20.6697 O   0  0  0  0  0  0
  -24.6443  -31.8417   23.1873 C   0  0  0  0  0  0
  -25.9208  -32.4676   23.8268 C   0  0  1  0  0  0
  -27.2149  -27.1185   20.1481 C   0  0  0  0  0  0
  -25.5963  -33.8489   24.2174 N   0  0  0  0  0  0
  -23.4487  -30.4606   21.5330 C   0  0  2  0  0  0
  -24.8983  -28.8884   20.1051 C   0  0  0  0  0  0
  -22.7586  -29.4513   22.4843 C   0  0  0  0  0  0
  -18.0314  -28.1384   22.8460 C   0  0  0  0  0  0
  -24.1498  -36.7247   23.2640 C   0  0  0  0  0  0
  -26.0064  -30.7065   21.3927 C   0  0  0  0  0  0
  -26.0735  -29.3183   20.7317 C   0  0  0  0  0  0
  -27.2282  -28.4473   20.7403 C   0  0  0  0  0  0
  -26.0190  -26.8025   19.4645 C   0  0  0  0  0  0
  -24.8850  -27.6459   19.4562 C   0  0  0  0  0  0
  -23.6756  -29.7919   20.1515 C   0  0  0  0  0  0
  -25.4125  -36.3013   24.0313 C   0  0  1  0  0  0
  -20.5925  -28.3711   23.1223 C   0  0  2  0  0  0
  -20.6794  -26.9409   22.5397 C   0  0  0  0  0  0
  -19.5765  -26.6361   21.5210 C   0  0  0  0  0  0
  -18.1944  -26.7916   22.1616 C   0  0  0  0  0  0
  -19.1570  -28.8869   23.2832 C   0  0  0  0  0  0
  -18.9487  -30.1467   23.8846 C   0  0  0  0  0  0
  -17.6482  -30.6573   24.0555 C   0  0  0  0  0  0
  -25.9081  -34.9396   23.5047 C   0  0  0  0  0  0
  -16.5377  -29.9050   23.6348 C   0  0  0  0  0  0
  -16.7297  -28.6487   23.0336 C   0  0  0  0  0  0
  -26.4533  -31.6554   25.0726 C   0  0  0  0  0  0
  -25.3708  -31.3742   26.1415 C   0  0  0  0  0  0
  -27.0414  -30.2946   24.6328 C   0  0  0  0  0  0
  -27.6055  -32.4340   25.7503 C   0  0  0  0  0  0
  -27.5570  -37.1775   24.8463 C   0  0  0  0  0  0
  -21.4277  -29.3031   22.3601 N   0  0  0  0  0  0
  -26.4279  -37.3733   23.9410 N   0  0  0  0  0  0
  -24.7196  -31.0247   22.0925 N   0  0  0  0  0  0
  -23.4230  -28.8057   23.2987 O   0  0  0  0  0  0
  -28.2706  -26.1339   20.2640 O   0  0  0  0  0  0
  -26.5668  -34.8898   22.4625 O   0  0  0  0  0  0
  -23.5558  -32.1312   23.7075 O   0  0  0  0  0  0
  -27.7605  -20.1981   21.5779 C   0  0  0  0  0  0
  -27.4840  -19.0596   22.3404 C   0  0  0  0  0  0
  -29.5839  -18.9425   20.5712 C   0  0  0  0  0  0
  -28.8585  -20.2520   20.7138 C   0  0  0  0  0  0
  -28.2803  -17.8884   22.3316 C   0  0  0  0  0  0
  -29.3049  -17.6793   21.3305 C   0  0  0  0  0  0
  -31.4364  -16.6163   22.2948 C   0  0  0  0  0  0
  -30.4029  -21.7586   19.2606 C   0  0  0  0  0  0
  -26.7755  -16.0969   23.3450 C   0  0  0  0  0  0
  -27.9310  -17.7315   24.8852 C   0  0  0  0  0  0
  -28.7150  -23.2359   20.6381 C   0  0  0  0  0  0
  -28.2026  -24.6301   19.8226 C   0  0  0  0  0  0
  -30.1855  -16.2527   21.4686 C   0  0  2  0  0  0
  -29.0338  -21.7100   19.9516 C   0  0  2  0  0  0
  -28.0199  -16.9649   23.5483 C   0  0  0  0  0  0
  -31.4721  -12.7205   19.2145 H   0  0  0  0  0  0
  -30.4050  -11.6276   20.0268 H   0  0  0  0  0  0
  -29.8440  -11.7881   17.5769 H   0  0  0  0  0  0
  -29.6130  -13.5137   17.7325 H   0  0  0  0  0  0
  -27.9434  -11.2981   18.9582 H   0  0  0  0  0  0
  -27.3947  -12.5057   17.8224 H   0  0  0  0  0  0
  -27.6156  -14.2696   19.4646 H   0  0  0  0  0  0
  -28.7642  -12.2476   21.4450 H   0  0  0  0  0  0
  -28.3624  -13.8932   21.8176 H   0  0  0  0  0  0
  -25.2787   -9.5683   22.4766 H   0  0  0  0  0  0
  -24.0009   -7.4642   22.7491 H   0  0  0  0  0  0
  -21.0858   -8.8790   19.8957 H   0  0  0  0  0  0
  -22.3732  -10.9676   19.6165 H   0  0  0  0  0  0
  -21.2007   -7.6151   23.9720 H   0  0  0  0  0  0
  -21.1478   -6.0523   25.9078 H   0  0  0  0  0  0
  -22.0596   -2.7613   23.2846 H   0  0  0  0  0  0
  -22.4102  -11.9852   22.4797 H   0  0  0  0  0  0
  -21.1079  -13.1204   22.2644 H   0  0  0  0  0  0
  -24.6279  -15.8422   20.5072 H   0  0  0  0  0  0
  -26.2543  -15.6484   20.1026 H   0  0  0  0  0  0
  -26.7277  -32.5276   23.0994 H   0  0  0  0  0  0
  -25.0135  -33.9633   25.0338 H   0  0  0  0  0  0
  -22.7522  -31.2873   21.3789 H   0  0  0  0  0  0
  -23.3767  -35.9570   23.3279 H   0  0  0  0  0  0
  -24.3577  -36.8899   22.2055 H   0  0  0  0  0  0
  -23.7259  -37.6435   23.6707 H   0  0  0  0  0  0
  -26.1686  -31.4599   20.6211 H   0  0  0  0  0  0
  -26.8760  -30.7541   22.0362 H   0  0  0  0  0  0
  -28.1191  -28.7699   21.2607 H   0  0  0  0  0  0
  -25.9091  -25.8679   18.9402 H   0  0  0  0  0  0
  -23.9920  -27.3173   18.9417 H   0  0  0  0  0  0
  -23.8098  -30.5699   19.3997 H   0  0  0  0  0  0
  -22.7925  -29.2322   19.8388 H   0  0  0  0  0  0
  -25.1302  -36.1832   25.0805 H   0  0  0  0  0  0
  -21.0021  -28.3298   24.1343 H   0  0  0  0  0  0
  -20.5685  -26.2322   23.3621 H   0  0  0  0  0  0
  -21.6658  -26.7393   22.1185 H   0  0  0  0  0  0
  -19.6928  -25.6265   21.1249 H   0  0  0  0  0  0
  -19.6701  -27.3171   20.6741 H   0  0  0  0  0  0
  -17.4214  -26.6677   21.4017 H   0  0  0  0  0  0
  -18.0330  -26.0053   22.9007 H   0  0  0  0  0  0
  -19.7962  -30.7309   24.2170 H   0  0  0  0  0  0
  -17.5026  -31.6246   24.5167 H   0  0  0  0  0  0
  -15.5376  -30.2930   23.7692 H   0  0  0  0  0  0
  -15.8701  -28.0812   22.7028 H   0  0  0  0  0  0
  -24.5921  -30.7050   25.7732 H   0  0  0  0  0  0
  -24.8866  -32.2924   26.4761 H   0  0  0  0  0  0
  -25.7982  -30.8976   27.0248 H   0  0  0  0  0  0
  -26.3046  -29.6656   24.1326 H   0  0  0  0  0  0
  -27.4008  -29.7258   25.4914 H   0  0  0  0  0  0
  -27.8950  -30.4172   23.9660 H   0  0  0  0  0  0
  -27.2651  -33.3686   26.1974 H   0  0  0  0  0  0
  -28.3907  -32.6826   25.0353 H   0  0  0  0  0  0
  -28.0678  -31.8545   26.5505 H   0  0  0  0  0  0
  -28.2550  -38.0103   24.7517 H   0  0  0  0  0  0
  -28.1104  -36.2632   24.6270 H   0  0  0  0  0  0
  -27.2299  -37.1375   25.8868 H   0  0  0  0  0  0
  -20.9497  -29.8767   21.6800 H   0  0  0  0  0  0
  -26.0137  -38.2791   24.1431 H   0  0  0  0  0  0
  -27.1194  -21.0592   21.6996 H   0  0  0  0  0  0
  -26.6540  -19.1385   23.0272 H   0  0  0  0  0  0
  -30.4183  -18.9155   19.8853 H   0  0  0  0  0  0
  -31.1585  -17.0589   23.2515 H   0  0  0  0  0  0
  -32.0527  -17.3411   21.7627 H   0  0  0  0  0  0
  -32.0612  -15.7493   22.5156 H   0  0  0  0  0  0
  -30.5479  -20.9018   18.6015 H   0  0  0  0  0  0
  -31.2128  -21.7597   19.9907 H   0  0  0  0  0  0
  -30.5043  -22.6552   18.6493 H   0  0  0  0  0  0
  -26.8941  -15.4601   22.4743 H   0  0  0  0  0  0
  -25.8817  -16.7043   23.1971 H   0  0  0  0  0  0
  -26.5971  -15.4464   24.2011 H   0  0  0  0  0  0
  -28.7966  -18.3803   25.0241 H   0  0  0  0  0  0
  -27.9154  -17.0360   25.7249 H   0  0  0  0  0  0
  -27.0339  -18.3426   24.9742 H   0  0  0  0  0  0
  -27.9570  -23.0840   21.4039 H   0  0  0  0  0  0
  -29.6026  -23.5057   21.2091 H   0  0  0  0  0  0
  -27.1802  -24.3902   19.5459 H   0  0  0  0  0  0
  -28.7397  -24.6238   18.8744 H   0  0  0  0  0  0
  -29.5820  -15.6336   22.1030 H   0  0  0  0  0  0
  -28.2991  -21.6317   19.1495 H   0  0  0  0  0  0
  -28.8588  -16.3146   23.7655 H   0  0  0  0  0  0
  1 25  1  0  0  0
  1 30  2  0  0  0
  1 83  1  0  0  0
  2  3  1  0  0  0
  2 25  1  0  0  0
  2 86  1  0  0  0
  2 87  1  0  0  0
  3  4  1  0  0  0
  3 88  1  0  0  0
  3 89  1  0  0  0
  4  5  1  0  0  0
  4 90  1  0  0  0
  4 91  1  0  0  0
  5  6  1  0  0  0
  5 26  1  0  0  0
  5 92  1  0  0  0
  6 25  1  0  0  0
  6 93  1  0  0  0
  6 94  1  0  0  0
  7  8  2  0  0  0
  7 26  1  0  0  0
  7 29  1  0  0  0
  8  9  1  0  0  0
  8 22  1  0  0  0
  9 10  1  0  0  0
  9 27  2  0  0  0
 10 11  2  0  0  0
 10 15  1  0  0  0
 11 12  1  0  0  0
 11 95  1  0  0  0
 12 13  2  0  0  0
 12 96  1  0  0  0
 13 14  1  0  0  0
 13 31  1  0  0  0
 14 15  2  0  0  0
 14 97  1  0  0  0
 15 98  1  0  0  0
 16 17  2  0  0  0
 16 21  1  0  0  0
 16 31  1  0  0  0
 17 18  1  0  0  0
 17 99  1  0  0  0
 18 19  2  0  0  0
 18100  1  0  0  0
 19 20  1  0  0  0
 19 24  1  0  0  0
 20 21  2  0  0  0
 20101  1  0  0  0
 21 23  1  0  0  0
 22 28  1  0  0  0
 22 32  2  0  0  0
 26 27  1  0  0  0
 28102  1  0  0  0
 28103  1  0  0  0
 29104  1  0  0  0
 29105  1  0  0  0
 33 34  1  0  0  0
 33 66  1  0  0  0
 33 70  2  0  0  0
 34 36  1  0  0  0
 34 59  1  0  0  0
 34106  1  0  0  0
 35 44  2  0  0  0
 35 45  1  0  0  0
 35 68  1  0  0  0
 36 56  1  0  0  0
 36107  1  0  0  0
 37 39  1  0  0  0
 37 47  1  0  0  0
 37 66  1  0  0  0
 37108  1  0  0  0
 38 43  2  0  0  0
 38 46  1  0  0  0
 38 47  1  0  0  0
 39 64  1  0  0  0
 39 67  2  0  0  0
 40 52  1  0  0  0
 40 53  2  0  0  0
 40 58  1  0  0  0
 41109  1  0  0  0
 41110  1  0  0  0
 41111  1  0  0  0
 41 48  1  0  0  0
 42 43  1  0  0  0
 42 66  1  0  0  0
 42112  1  0  0  0
 42113  1  0  0  0
 43 44  1  0  0  0
 44114  1  0  0  0
 45 46  2  0  0  0
 45115  1  0  0  0
 46116  1  0  0  0
 47117  1  0  0  0
 47118  1  0  0  0
 48 56  1  0  0  0
 48 65  1  0  0  0
 48119  1  0  0  0
 49 50  1  0  0  0
 49 53  1  0  0  0
 49 64  1  0  0  0
 49120  1  0  0  0
 50 51  1  0  0  0
 50121  1  0  0  0
 50122  1  0  0  0
 51 52  1  0  0  0
 51123  1  0  0  0
 51124  1  0  0  0
 52125  1  0  0  0
 52126  1  0  0  0
 53 54  1  0  0  0
 54 55  2  0  0  0
 54127  1  0  0  0
 55 57  1  0  0  0
 55128  1  0  0  0
 56 69  2  0  0  0
 57 58  2  0  0  0
 57129  1  0  0  0
 58130  1  0  0  0
 59 60  1  0  0  0
 59 61  1  0  0  0
 59 62  1  0  0  0
 60131  1  0  0  0
 60132  1  0  0  0
 60133  1  0  0  0
 61134  1  0  0  0
 61135  1  0  0  0
 61136  1  0  0  0
 62137  1  0  0  0
 62138  1  0  0  0
 62139  1  0  0  0
 63 65  1  0  0  0
 63140  1  0  0  0
 63141  1  0  0  0
 63142  1  0  0  0
 64143  1  0  0  0
 65144  1  0  0  0
 68 82  1  0  0  0
 71 72  2  0  0  0
 71 74  1  0  0  0
 71145  1  0  0  0
 72 75  1  0  0  0
 72146  1  0  0  0
 73 74  2  0  0  0
 73 76  1  0  0  0
 73147  1  0  0  0
 74 84  1  0  0  0
 75 76  2  0  0  0
 75 85  1  0  0  0
 76 83  1  0  0  0
 77148  1  0  0  0
 77149  1  0  0  0
 77150  1  0  0  0
 77 83  1  0  0  0
 78151  1  0  0  0
 78152  1  0  0  0
 78153  1  0  0  0
 78 84  1  0  0  0
 79154  1  0  0  0
 79155  1  0  0  0
 79156  1  0  0  0
 79 85  1  0  0  0
 80 85  1  0  0  0
 80157  1  0  0  0
 80158  1  0  0  0
 80159  1  0  0  0
 81 82  1  0  0  0
 81 84  1  0  0  0
 81160  1  0  0  0
 81161  1  0  0  0
 82162  1  0  0  0
 82163  1  0  0  0
 83164  1  0  0  0
 84165  1  0  0  0
 85166  1  0  0  0
M  ISO  4   1 100  68 101  82 101  83 100
M  END
> <chiral flag>
0

> <version>
0

> <s_m_source_file>
/data/baiqing/PycharmProjects/Reinvent-master-3.2/result/LINK_invent/BTK/process_docking_weight1_custom_sum_contain_oxygen_bond_distance_aromatic_linkinvent_7_9_3/rearranged_h_0099.sdf

> <i_m_source_file_index>
60

> <r_mmod_Potential_Energy-OPLS-2005>
722.765747070312

> <r_mmod_Stretch_Energy-OPLS-2005>
311.423217773438

> <r_mmod_Bend_Energy-OPLS-2005>
374.566284179688

> <r_mmod_Torsional_Energy-OPLS-2005>
191.998199462891

> <r_mmod_Improper_Torsional_Energy-OPLS-2005>
8.28994369506836

> <r_mmod_Van_der_Waal_Energy-OPLS-2005>
146.054870605469

> <r_mmod_Electrostatic_Energy-OPLS-2005>
-323.2587890625

> <r_mmod_Solvation_Energy-OPLS-2005>
-178.04704284668

> <b_mmod_Minimization_Converged-OPLS-2005>
0

> <r_mmod_RMS_Derivative-OPLS-2005>
1.67184031009674

$$$$
60
                    3D
 Structure written by MMmdl.
169178  0  0  1  0            999 V2000
  -30.6112  -14.7573   20.4526 C   0  0  0  0  0  0
  -30.4400  -12.4562   19.4711 C   0  0  0  0  0  0
  -29.5146  -12.5085   18.2352 C   0  0  0  0  0  0
  -28.0402  -12.3350   18.6481 C   0  0  0  0  0  0
  -27.6470  -13.2300   19.8516 C   0  0  2  0  0  0
  -28.6967  -13.1598   20.9857 C   0  0  0  0  0  0
  -25.2527  -13.8172   20.5641 C   0  0  0  0  0  0
  -24.1833  -13.0427   20.9196 C   0  0  0  0  0  0
  -24.6413  -11.6903   20.8728 C   0  0  0  0  0  0
  -23.9062  -10.4291   21.0384 C   0  0  0  0  0  0
  -24.3612   -9.4217   21.9159 C   0  0  0  0  0  0
  -23.6301   -8.2247   22.0733 C   0  0  0  0  0  0
  -22.4280   -8.0271   21.3542 C   0  0  0  0  0  0
  -21.9898   -9.0237   20.4639 C   0  0  0  0  0  0
  -22.7218  -10.2128   20.3048 C   0  0  0  0  0  0
  -21.6864   -6.0720   22.5261 C   0  0  0  0  0  0
  -21.4031   -6.5638   23.8192 C   0  0  0  0  0  0
  -21.3665   -5.6793   24.9147 C   0  0  0  0  0  0
  -21.6041   -4.3052   24.7201 C   0  0  0  0  0  0
  -21.8830   -3.8142   23.4323 C   0  0  0  0  0  0
  -21.9206   -4.6948   22.3379 C   0  0  0  0  0  0
  -22.7847  -13.5195   21.1852 C   0  0  0  0  0  0
  -22.1659   -4.2135   21.0949 F   0  0  0  0  0  0
  -21.5627   -3.4540   25.7715 F   0  0  0  0  0  0
  -29.9997  -13.5212   20.4032 N   0  0  0  0  0  0
  -26.2979  -12.9386   20.3284 N   0  0  0  0  0  0
  -25.9353  -11.6532   20.5757 N   0  0  0  0  0  0
  -22.0502  -12.8208   22.0422 N   0  0  0  0  0  0
  -25.4226  -15.1884   20.4001 N   0  0  0  0  0  0
  -31.7842  -14.8548   20.0995 O   0  0  0  0  0  0
  -21.6663   -6.8857   21.4228 O   0  0  0  0  0  0
  -22.3533  -14.5501   20.6675 O   0  0  0  0  0  0
  -24.6322  -31.8515   23.1946 C   0  0  0  0  0  0
  -25.9138  -32.4744   23.8293 C   0  0  1  0  0  0
  -27.2481  -27.2603   20.1366 C   0  0  0  0  0  0
  -25.5930  -33.8543   24.2223 N   0  0  0  0  0  0
  -23.4336  -30.4680   21.5373 C   0  0  2  0  0  0
  -24.8876  -28.9080   20.1174 C   0  0  0  0  0  0
  -22.7531  -29.4553   22.4904 C   0  0  0  0  0  0
  -18.0300  -28.1377   22.8523 C   0  0  0  0  0  0
  -24.1471  -36.7272   23.2648 C   0  0  0  0  0  0
  -25.9791  -30.7695   21.3723 C   0  0  0  0  0  0
  -26.0588  -29.3877   20.7184 C   0  0  0  0  0  0
  -27.2433  -28.5795   20.7063 C   0  0  0  0  0  0
  -26.0471  -26.8374   19.5271 C   0  0  0  0  0  0
  -24.8858  -27.6396   19.5129 C   0  0  0  0  0  0
  -23.6567  -29.7946   20.1569 C   0  0  0  0  0  0
  -25.4105  -36.3059   24.0329 C   0  0  1  0  0  0
  -20.5899  -28.3678   23.1279 C   0  0  2  0  0  0
  -20.6780  -26.9384   22.5424 C   0  0  0  0  0  0
  -19.5741  -26.6371   21.5237 C   0  0  0  0  0  0
  -18.1923  -26.7931   22.1648 C   0  0  0  0  0  0
  -19.1556  -28.8852   23.2902 C   0  0  0  0  0  0
  -18.9469  -30.1464   23.8901 C   0  0  0  0  0  0
  -17.6455  -30.6584   24.0553 C   0  0  0  0  0  0
  -25.9049  -34.9437   23.5078 C   0  0  0  0  0  0
  -16.5353  -29.9069   23.6319 C   0  0  0  0  0  0
  -16.7280  -28.6480   23.0370 C   0  0  0  0  0  0
  -26.4507  -31.6603   25.0709 C   0  0  0  0  0  0
  -25.3724  -31.3798   26.1437 C   0  0  0  0  0  0
  -27.0352  -30.3011   24.6220 C   0  0  0  0  0  0
  -27.6026  -32.4392   25.7500 C   0  0  0  0  0  0
  -27.5572  -37.1779   24.8469 C   0  0  0  0  0  0
  -21.4235  -29.3015   22.3663 N   0  0  0  0  0  0
  -26.4278  -37.3761   23.9422 N   0  0  0  0  0  0
  -24.7013  -31.0456   22.0931 N   0  0  0  0  0  0
  -23.4226  -28.8104   23.3010 O   0  0  0  0  0  0
  -28.3712  -26.3976   20.1050 O   0  0  0  0  0  0
  -26.5613  -34.8920   22.4640 O   0  0  0  0  0  0
  -23.5468  -32.1328   23.7231 O   0  0  0  0  0  0
  -33.0351  -22.0126   18.2607 C   0  0  0  0  0  0
  -34.1022  -21.1174   18.4420 C   0  0  0  0  0  0
  -31.7562  -21.6654   18.7237 C   0  0  0  0  0  0
  -32.6117  -19.5240   19.6019 C   0  0  0  0  0  0
  -33.8958  -19.8821   19.0924 C   0  0  0  0  0  0
  -32.0907  -18.4134   20.3504 C   0  0  0  0  0  0
  -31.5449  -20.4434   19.3977 C   0  0  0  0  0  0
  -30.7099  -18.5119   20.3505 C   0  0  0  0  0  0
  -35.0678  -18.9220   19.1916 C   0  0  0  0  0  0
  -32.9453  -17.3690   21.0051 C   0  0  0  0  0  0
  -27.9150  -23.4329   18.5872 C   0  0  0  0  0  0
  -29.7185  -17.3942   20.8549 C   0  0  0  0  0  0
  -29.0464  -22.2533   20.6153 C   0  0  0  0  0  0
  -29.1153  -20.7289   19.9854 C   0  0  0  0  0  0
  -28.2807  -24.9780   20.6136 C   0  0  0  0  0  0
  -28.8225  -23.6652   19.8012 C   0  0  2  0  0  0
  -30.3991  -19.8999   19.9771 N   0  0  0  0  0  0
  -29.7938  -15.8472   20.7203 N   0  0  0  0  0  0
  -31.4795  -12.5772   19.1636 H   0  0  0  0  0  0
  -30.3818  -11.4767   19.9492 H   0  0  0  0  0  0
  -29.7952  -11.7328   17.5212 H   0  0  0  0  0  0
  -29.6453  -13.4605   17.7185 H   0  0  0  0  0  0
  -27.8988  -11.2855   18.9118 H   0  0  0  0  0  0
  -27.3832  -12.5290   17.7980 H   0  0  0  0  0  0
  -27.6408  -14.2526   19.4764 H   0  0  0  0  0  0
  -28.7356  -12.1603   21.4210 H   0  0  0  0  0  0
  -28.4294  -13.8350   21.8005 H   0  0  0  0  0  0
  -25.2738   -9.5734   22.4745 H   0  0  0  0  0  0
  -24.0030   -7.4653   22.7453 H   0  0  0  0  0  0
  -21.0823   -8.8735   19.8939 H   0  0  0  0  0  0
  -22.3631  -10.9666   19.6180 H   0  0  0  0  0  0
  -21.2031   -7.6149   23.9680 H   0  0  0  0  0  0
  -21.1483   -6.0524   25.9053 H   0  0  0  0  0  0
  -22.0615   -2.7603   23.2817 H   0  0  0  0  0  0
  -22.4131  -11.9906   22.4867 H   0  0  0  0  0  0
  -21.1110  -13.1230   22.2595 H   0  0  0  0  0  0
  -24.6536  -15.8409   20.5014 H   0  0  0  0  0  0
  -26.2621  -15.6212   20.0362 H   0  0  0  0  0  0
  -26.7215  -32.5412   23.1044 H   0  0  0  0  0  0
  -25.0078  -33.9664   25.0373 H   0  0  0  0  0  0
  -22.7316  -31.2888   21.3824 H   0  0  0  0  0  0
  -23.3743  -35.9589   23.3299 H   0  0  0  0  0  0
  -24.3563  -36.8911   22.2065 H   0  0  0  0  0  0
  -23.7192  -37.6458   23.6679 H   0  0  0  0  0  0
  -26.1097  -31.5341   20.6044 H   0  0  0  0  0  0
  -26.8581  -30.8221   22.0025 H   0  0  0  0  0  0
  -28.1506  -28.9548   21.1604 H   0  0  0  0  0  0
  -26.0055  -25.8674   19.0565 H   0  0  0  0  0  0
  -23.9883  -27.2605   19.0449 H   0  0  0  0  0  0
  -23.7825  -30.5647   19.3943 H   0  0  0  0  0  0
  -22.7779  -29.2206   19.8551 H   0  0  0  0  0  0
  -25.1278  -36.1900   25.0815 H   0  0  0  0  0  0
  -21.0011  -28.3241   24.1388 H   0  0  0  0  0  0
  -20.5663  -26.2278   23.3630 H   0  0  0  0  0  0
  -21.6643  -26.7382   22.1204 H   0  0  0  0  0  0
  -19.6868  -25.6272   21.1276 H   0  0  0  0  0  0
  -19.6682  -27.3175   20.6759 H   0  0  0  0  0  0
  -17.4197  -26.6724   21.4042 H   0  0  0  0  0  0
  -18.0286  -26.0065   22.9024 H   0  0  0  0  0  0
  -19.7940  -30.7309   24.2265 H   0  0  0  0  0  0
  -17.4987  -31.6269   24.5145 H   0  0  0  0  0  0
  -15.5342  -30.2957   23.7631 H   0  0  0  0  0  0
  -15.8698  -28.0780   22.7081 H   0  0  0  0  0  0
  -24.5852  -30.7208   25.7770 H   0  0  0  0  0  0
  -24.8997  -32.3012   26.4857 H   0  0  0  0  0  0
  -25.8037  -30.8965   27.0215 H   0  0  0  0  0  0
  -26.2945  -29.6767   24.1223 H   0  0  0  0  0  0
  -27.3991  -29.7272   25.4750 H   0  0  0  0  0  0
  -27.8837  -30.4264   23.9491 H   0  0  0  0  0  0
  -27.2580  -33.3698   26.2024 H   0  0  0  0  0  0
  -28.3873  -32.6966   25.0374 H   0  0  0  0  0  0
  -28.0662  -31.8579   26.5480 H   0  0  0  0  0  0
  -28.2576  -38.0084   24.7508 H   0  0  0  0  0  0
  -28.1076  -36.2610   24.6296 H   0  0  0  0  0  0
  -27.2304  -37.1443   25.8876 H   0  0  0  0  0  0
  -20.9412  -29.8770   21.6906 H   0  0  0  0  0  0
  -26.0158  -38.2832   24.1441 H   0  0  0  0  0  0
  -33.1949  -22.9632   17.7642 H   0  0  0  0  0  0
  -35.0849  -21.3843   18.0713 H   0  0  0  0  0  0
  -30.9348  -22.3419   18.5509 H   0  0  0  0  0  0
  -35.9047  -19.2590   18.5794 H   0  0  0  0  0  0
  -34.7879  -17.9329   18.8308 H   0  0  0  0  0  0
  -35.4193  -18.8281   20.2185 H   0  0  0  0  0  0
  -33.4173  -16.7180   20.2708 H   0  0  0  0  0  0
  -32.3968  -16.7573   21.7196 H   0  0  0  0  0  0
  -33.7503  -17.8343   21.5736 H   0  0  0  0  0  0
  -27.6358  -24.3768   18.1193 H   0  0  0  0  0  0
  -26.9987  -22.9209   18.8820 H   0  0  0  0  0  0
  -28.4080  -22.8334   17.8226 H   0  0  0  0  0  0
  -28.7531  -17.6340   20.4082 H   0  0  0  0  0  0
  -29.5634  -17.5726   21.9192 H   0  0  0  0  0  0
  -29.8676  -22.3792   21.3192 H   0  0  0  0  0  0
  -28.1727  -22.2180   21.2661 H   0  0  0  0  0  0
  -28.7424  -20.7438   18.9614 H   0  0  0  0  0  0
  -28.3882  -20.1302   20.5338 H   0  0  0  0  0  0
  -28.8524  -24.9983   21.5431 H   0  0  0  0  0  0
  -27.2601  -24.7826   20.9432 H   0  0  0  0  0  0
  -29.7988  -23.9649   19.4196 H   0  0  0  0  0  0
  -28.8805  -15.4741   20.9304 H   0  0  0  0  0  0
  1 25  1  0  0  0
  1 30  2  0  0  0
  1 88  1  0  0  0
  2  3  1  0  0  0
  2 25  1  0  0  0
  2 89  1  0  0  0
  2 90  1  0  0  0
  3  4  1  0  0  0
  3 91  1  0  0  0
  3 92  1  0  0  0
  4  5  1  0  0  0
  4 93  1  0  0  0
  4 94  1  0  0  0
  5  6  1  0  0  0
  5 26  1  0  0  0
  5 95  1  0  0  0
  6 25  1  0  0  0
  6 96  1  0  0  0
  6 97  1  0  0  0
  7  8  2  0  0  0
  7 26  1  0  0  0
  7 29  1  0  0  0
  8  9  1  0  0  0
  8 22  1  0  0  0
  9 10  1  0  0  0
  9 27  2  0  0  0
 10 11  2  0  0  0
 10 15  1  0  0  0
 11 12  1  0  0  0
 11 98  1  0  0  0
 12 13  2  0  0  0
 12 99  1  0  0  0
 13 14  1  0  0  0
 13 31  1  0  0  0
 14 15  2  0  0  0
 14100  1  0  0  0
 15101  1  0  0  0
 16 17  2  0  0  0
 16 21  1  0  0  0
 16 31  1  0  0  0
 17 18  1  0  0  0
 17102  1  0  0  0
 18 19  2  0  0  0
 18103  1  0  0  0
 19 20  1  0  0  0
 19 24  1  0  0  0
 20 21  2  0  0  0
 20104  1  0  0  0
 21 23  1  0  0  0
 22 28  1  0  0  0
 22 32  2  0  0  0
 26 27  1  0  0  0
 28105  1  0  0  0
 28106  1  0  0  0
 29107  1  0  0  0
 29108  1  0  0  0
 33 34  1  0  0  0
 33 66  1  0  0  0
 33 70  2  0  0  0
 34 36  1  0  0  0
 34 59  1  0  0  0
 34109  1  0  0  0
 35 44  2  0  0  0
 35 45  1  0  0  0
 35 68  1  0  0  0
 36 56  1  0  0  0
 36110  1  0  0  0
 37 39  1  0  0  0
 37 47  1  0  0  0
 37 66  1  0  0  0
 37111  1  0  0  0
 38 43  2  0  0  0
 38 46  1  0  0  0
 38 47  1  0  0  0
 39 64  1  0  0  0
 39 67  2  0  0  0
 40 52  1  0  0  0
 40 53  2  0  0  0
 40 58  1  0  0  0
 41112  1  0  0  0
 41113  1  0  0  0
 41114  1  0  0  0
 41 48  1  0  0  0
 42 43  1  0  0  0
 42 66  1  0  0  0
 42115  1  0  0  0
 42116  1  0  0  0
 43 44  1  0  0  0
 44117  1  0  0  0
 45 46  2  0  0  0
 45118  1  0  0  0
 46119  1  0  0  0
 47120  1  0  0  0
 47121  1  0  0  0
 48 56  1  0  0  0
 48 65  1  0  0  0
 48122  1  0  0  0
 49 50  1  0  0  0
 49 53  1  0  0  0
 49 64  1  0  0  0
 49123  1  0  0  0
 50 51  1  0  0  0
 50124  1  0  0  0
 50125  1  0  0  0
 51 52  1  0  0  0
 51126  1  0  0  0
 51127  1  0  0  0
 52128  1  0  0  0
 52129  1  0  0  0
 53 54  1  0  0  0
 54 55  2  0  0  0
 54130  1  0  0  0
 55 57  1  0  0  0
 55131  1  0  0  0
 56 69  2  0  0  0
 57 58  2  0  0  0
 57132  1  0  0  0
 58133  1  0  0  0
 59 60  1  0  0  0
 59 61  1  0  0  0
 59 62  1  0  0  0
 60134  1  0  0  0
 60135  1  0  0  0
 60136  1  0  0  0
 61137  1  0  0  0
 61138  1  0  0  0
 61139  1  0  0  0
 62140  1  0  0  0
 62141  1  0  0  0
 62142  1  0  0  0
 63 65  1  0  0  0
 63143  1  0  0  0
 63144  1  0  0  0
 63145  1  0  0  0
 64146  1  0  0  0
 65147  1  0  0  0
 68 85  1  0  0  0
 71 72  2  0  0  0
 71 73  1  0  0  0
 71148  1  0  0  0
 72 75  1  0  0  0
 72149  1  0  0  0
 73 77  2  0  0  0
 73150  1  0  0  0
 74 75  2  0  0  0
 74 76  1  0  0  0
 74 77  1  0  0  0
 75 79  1  0  0  0
 76 78  2  0  0  0
 76 80  1  0  0  0
 77 87  1  0  0  0
 78 82  1  0  0  0
 78 87  1  0  0  0
 79151  1  0  0  0
 79152  1  0  0  0
 79153  1  0  0  0
 80154  1  0  0  0
 80155  1  0  0  0
 80156  1  0  0  0
 81157  1  0  0  0
 81158  1  0  0  0
 81159  1  0  0  0
 81 86  1  0  0  0
 82 88  1  0  0  0
 82160  1  0  0  0
 82161  1  0  0  0
 83 84  1  0  0  0
 83 86  1  0  0  0
 83162  1  0  0  0
 83163  1  0  0  0
 84 87  1  0  0  0
 84164  1  0  0  0
 84165  1  0  0  0
 85 86  1  0  0  0
 85166  1  0  0  0
 85167  1  0  0  0
 86168  1  0  0  0
 88169  1  0  0  0
M  ISO  4   1 100  68 101  85 101  88 100
M  END
> <chiral flag>
0

> <version>
0

> <s_m_source_file>
/data/baiqing/PycharmProjects/Reinvent-master-3.2/result/LINK_invent/BTK/process_docking_weight1_custom_sum_contain_oxygen_bond_distance_aromatic_linkinvent_7_9_3/rearranged_h_0099.sdf

> <i_m_source_file_index>
61

> <r_mmod_Potential_Energy-OPLS-2005>
312.657989501953

> <r_mmod_Stretch_Energy-OPLS-2005>
161.018310546875

> <r_mmod_Bend_Energy-OPLS-2005>
269.4697265625

> <r_mmod_Torsional_Energy-OPLS-2005>
260.603576660156

> <r_mmod_Improper_Torsional_Energy-OPLS-2005>
5.64313125610352

> <r_mmod_Van_der_Waal_Energy-OPLS-2005>
125.925300598145

> <r_mmod_Electrostatic_Energy-OPLS-2005>
-377.615661621094

> <r_mmod_Solvation_Energy-OPLS-2005>
-215.107635498047

> <b_mmod_Minimization_Converged-OPLS-2005>
0

> <r_mmod_RMS_Derivative-OPLS-2005>
3.79232096672058

$$$$
61
                    3D
 Structure written by MMmdl.
158165  0  0  1  0            999 V2000
  -30.5086  -14.9666   20.4543 C   0  0  0  0  0  0
  -30.4483  -12.6035   19.5123 C   0  0  0  0  0  0
  -29.5352  -12.5229   18.2654 C   0  0  0  0  0  0
  -28.0610  -12.3128   18.6765 C   0  0  0  0  0  0
  -27.6271  -13.2470   19.8379 C   0  0  2  0  0  0
  -28.6631  -13.2750   20.9765 C   0  0  0  0  0  0
  -25.2420  -13.8200   20.5711 C   0  0  0  0  0  0
  -24.1755  -13.0415   20.9270 C   0  0  0  0  0  0
  -24.6367  -11.6909   20.8805 C   0  0  0  0  0  0
  -23.9064  -10.4290   21.0492 C   0  0  0  0  0  0
  -24.3615   -9.4172   21.9213 C   0  0  0  0  0  0
  -23.6283   -8.2206   22.0727 C   0  0  0  0  0  0
  -22.4251   -8.0273   21.3554 C   0  0  0  0  0  0
  -21.9907   -9.0275   20.4667 C   0  0  0  0  0  0
  -22.7263  -10.2146   20.3116 C   0  0  0  0  0  0
  -21.6813   -6.0765   22.5322 C   0  0  0  0  0  0
  -21.4023   -6.5662   23.8274 C   0  0  0  0  0  0
  -21.3637   -5.6807   24.9226 C   0  0  0  0  0  0
  -21.6012   -4.3074   24.7262 C   0  0  0  0  0  0
  -21.8795   -3.8167   23.4382 C   0  0  0  0  0  0
  -21.9167   -4.6991   22.3436 C   0  0  0  0  0  0
  -22.7774  -13.5200   21.1930 C   0  0  0  0  0  0
  -22.1649   -4.2181   21.1014 F   0  0  0  0  0  0
  -21.5609   -3.4546   25.7754 F   0  0  0  0  0  0
  -29.9366  -13.6999   20.3804 N   0  0  0  0  0  0
  -26.2848  -12.9431   20.3208 N   0  0  0  0  0  0
  -25.9293  -11.6566   20.5727 N   0  0  0  0  0  0
  -22.0401  -12.8265   22.0514 N   0  0  0  0  0  0
  -25.3995  -15.1935   20.4145 N   0  0  0  0  0  0
  -31.7227  -15.0563   20.2490 O   0  0  0  0  0  0
  -21.6573   -6.8917   21.4292 O   0  0  0  0  0  0
  -22.3467  -14.5499   20.6738 O   0  0  0  0  0  0
  -24.6459  -31.8445   23.1858 C   0  0  0  0  0  0
  -25.9215  -32.4706   23.8247 C   0  0  1  0  0  0
  -27.2121  -27.1155   20.1849 C   0  0  0  0  0  0
  -25.5953  -33.8515   24.2153 N   0  0  0  0  0  0
  -23.4512  -30.4643   21.5278 C   0  0  2  0  0  0
  -24.9009  -28.8790   20.1175 C   0  0  0  0  0  0
  -22.7586  -29.4566   22.4814 C   0  0  0  0  0  0
  -18.0326  -28.1432   22.8481 C   0  0  0  0  0  0
  -24.1488  -36.7227   23.2641 C   0  0  0  0  0  0
  -26.0087  -30.7167   21.3860 C   0  0  0  0  0  0
  -26.0814  -29.3242   20.7332 C   0  0  0  0  0  0
  -27.2398  -28.4631   20.7405 C   0  0  0  0  0  0
  -26.0069  -26.7674   19.5426 C   0  0  0  0  0  0
  -24.8759  -27.6150   19.5100 C   0  0  0  0  0  0
  -23.6847  -29.7941   20.1484 C   0  0  0  0  0  0
  -25.4128  -36.3011   24.0296 C   0  0  1  0  0  0
  -20.5948  -28.3751   23.1221 C   0  0  2  0  0  0
  -20.6800  -26.9452   22.5403 C   0  0  0  0  0  0
  -19.5756  -26.6395   21.5231 C   0  0  0  0  0  0
  -18.1940  -26.7975   22.1639 C   0  0  0  0  0  0
  -19.1578  -28.8900   23.2853 C   0  0  0  0  0  0
  -18.9498  -30.1497   23.8896 C   0  0  0  0  0  0
  -17.6491  -30.6606   24.0575 C   0  0  0  0  0  0
  -25.9077  -34.9403   23.5024 C   0  0  0  0  0  0
  -16.5388  -29.9102   23.6348 C   0  0  0  0  0  0
  -16.7315  -28.6524   23.0366 C   0  0  0  0  0  0
  -26.4531  -31.6626   25.0727 C   0  0  0  0  0  0
  -25.3686  -31.3859   26.1405 C   0  0  0  0  0  0
  -27.0412  -30.3025   24.6342 C   0  0  0  0  0  0
  -27.6059  -32.4439   25.7497 C   0  0  0  0  0  0
  -27.5573  -37.1763   24.8459 C   0  0  0  0  0  0
  -21.4274  -29.3051   22.3559 N   0  0  0  0  0  0
  -26.4263  -37.3741   23.9425 N   0  0  0  0  0  0
  -24.7221  -31.0316   22.0873 N   0  0  0  0  0  0
  -23.4227  -28.8119   23.2973 O   0  0  0  0  0  0
  -28.2773  -26.1439   20.2006 O   0  0  0  0  0  0
  -26.5674  -34.8911   22.4612 O   0  0  0  0  0  0
  -23.5574  -32.1294   23.7085 O   0  0  0  0  0  0
  -28.1146  -22.9131   18.6241 C   0  0  0  0  0  0
  -30.2244  -23.8411   19.5547 C   0  0  0  0  0  0
  -27.2097  -20.3137   20.5123 C   0  0  0  0  0  0
  -29.7982  -17.6482   20.9959 C   0  0  0  0  0  0
  -29.3791  -19.0367   20.1115 C   0  0  0  0  0  0
  -29.2634  -21.8266   20.7826 C   0  0  0  0  0  0
  -28.0926  -24.6433   20.6157 C   0  0  0  0  0  0
  -28.8396  -23.2647   19.9424 C   0  0  0  0  0  0
  -29.6724  -16.1182   20.5654 N   0  0  0  0  0  0
  -28.6801  -20.3417   20.7274 N   0  3  1  0  0  0
  -31.4783  -12.7853   19.2055 H   0  0  0  0  0  0
  -30.4533  -11.6571   20.0546 H   0  0  0  0  0  0
  -29.8644  -11.7165   17.6074 H   0  0  0  0  0  0
  -29.6254  -13.4436   17.6914 H   0  0  0  0  0  0
  -27.9638  -11.2749   18.9870 H   0  0  0  0  0  0
  -27.3988  -12.4444   17.8214 H   0  0  0  0  0  0
  -27.5862  -14.2465   19.4061 H   0  0  0  0  0  0
  -28.7501  -12.2967   21.4473 H   0  0  0  0  0  0
  -28.3511  -13.9647   21.7624 H   0  0  0  0  0  0
  -25.2752   -9.5607   22.4775 H   0  0  0  0  0  0
  -23.9984   -7.4576   22.7383 H   0  0  0  0  0  0
  -21.0834   -8.8849   19.8948 H   0  0  0  0  0  0
  -22.3752  -10.9713   19.6236 H   0  0  0  0  0  0
  -21.2052   -7.6179   23.9815 H   0  0  0  0  0  0
  -21.1461   -6.0528   25.9144 H   0  0  0  0  0  0
  -22.0571   -2.7620   23.2873 H   0  0  0  0  0  0
  -22.3968  -11.9979   22.5062 H   0  0  0  0  0  0
  -21.0980  -13.1316   22.2585 H   0  0  0  0  0  0
  -24.6050  -15.8196   20.5009 H   0  0  0  0  0  0
  -26.2067  -15.6363   19.9946 H   0  0  0  0  0  0
  -26.7301  -32.5324   23.0999 H   0  0  0  0  0  0
  -25.0096  -33.9626   25.0290 H   0  0  0  0  0  0
  -22.7530  -31.2895   21.3700 H   0  0  0  0  0  0
  -23.3766  -35.9536   23.3269 H   0  0  0  0  0  0
  -24.3568  -36.8909   22.2059 H   0  0  0  0  0  0
  -23.7217  -37.6393   23.6722 H   0  0  0  0  0  0
  -26.1731  -31.4705   20.6151 H   0  0  0  0  0  0
  -26.8755  -30.7613   22.0359 H   0  0  0  0  0  0
  -28.1467  -28.8030   21.2206 H   0  0  0  0  0  0
  -25.9281  -25.7959   19.0752 H   0  0  0  0  0  0
  -23.9728  -27.2638   19.0336 H   0  0  0  0  0  0
  -23.8420  -30.5683   19.3956 H   0  0  0  0  0  0
  -22.7950  -29.2478   19.8283 H   0  0  0  0  0  0
  -25.1328  -36.1796   25.0778 H   0  0  0  0  0  0
  -21.0058  -28.3355   24.1335 H   0  0  0  0  0  0
  -20.5686  -26.2375   23.3626 H   0  0  0  0  0  0
  -21.6660  -26.7420   22.1213 H   0  0  0  0  0  0
  -19.6887  -25.6283   21.1298 H   0  0  0  0  0  0
  -19.6698  -27.3173   20.6738 H   0  0  0  0  0  0
  -17.4211  -26.6758   21.4048 H   0  0  0  0  0  0
  -18.0306  -26.0135   22.9040 H   0  0  0  0  0  0
  -19.7959  -30.7328   24.2271 H   0  0  0  0  0  0
  -17.5032  -31.6294   24.5168 H   0  0  0  0  0  0
  -15.5378  -30.3004   23.7656 H   0  0  0  0  0  0
  -15.8728  -28.0836   22.7085 H   0  0  0  0  0  0
  -24.5799  -30.7310   25.7691 H   0  0  0  0  0  0
  -24.8946  -32.3060   26.4823 H   0  0  0  0  0  0
  -25.7892  -30.8981   27.0190 H   0  0  0  0  0  0
  -26.3031  -29.6770   24.1301 H   0  0  0  0  0  0
  -27.3960  -29.7355   25.4952 H   0  0  0  0  0  0
  -27.8970  -30.4308   23.9716 H   0  0  0  0  0  0
  -27.2638  -33.3752   26.2030 H   0  0  0  0  0  0
  -28.3856  -32.7007   25.0317 H   0  0  0  0  0  0
  -28.0743  -31.8613   26.5434 H   0  0  0  0  0  0
  -28.2571  -38.0084   24.7522 H   0  0  0  0  0  0
  -28.1080  -36.2601   24.6247 H   0  0  0  0  0  0
  -27.2291  -37.1378   25.8862 H   0  0  0  0  0  0
  -20.9479  -29.8757   21.6733 H   0  0  0  0  0  0
  -26.0109  -38.2782   24.1491 H   0  0  0  0  0  0
  -28.5782  -22.0652   18.1079 H   0  0  0  0  0  0
  -28.1379  -23.7580   17.9334 H   0  0  0  0  0  0
  -27.0604  -22.6791   18.7869 H   0  0  0  0  0  0
  -30.8182  -23.1616   18.9401 H   0  0  0  0  0  0
  -30.8163  -24.0720   20.4422 H   0  0  0  0  0  0
  -30.1360  -24.7677   18.9883 H   0  0  0  0  0  0
  -26.8022  -19.3422   20.8039 H   0  0  0  0  0  0
  -26.9470  -20.4575   19.4661 H   0  0  0  0  0  0
  -26.6921  -21.0763   21.0969 H   0  0  0  0  0  0
  -29.2331  -17.7065   21.9248 H   0  0  0  0  0  0
  -30.8344  -17.7812   21.3247 H   0  0  0  0  0  0
  -28.7702  -18.7177   19.2647 H   0  0  0  0  0  0
  -30.2878  -19.3891   19.6291 H   0  0  0  0  0  0
  -29.1833  -22.0949   21.8382 H   0  0  0  0  0  0
  -30.3369  -21.6660   20.6604 H   0  0  0  0  0  0
  -28.3989  -24.6523   21.6640 H   0  0  0  0  0  0
  -27.0222  -24.4360   20.6730 H   0  0  0  0  0  0
  -28.7073  -15.8296   20.5511 H   0  0  0  0  0  0
  -28.7510  -20.1226   21.7104 H   0  0  0  0  0  0
  1 25  1  0  0  0
  1 30  2  0  0  0
  1 79  1  0  0  0
  2  3  1  0  0  0
  2 25  1  0  0  0
  2 81  1  0  0  0
  2 82  1  0  0  0
  3  4  1  0  0  0
  3 83  1  0  0  0
  3 84  1  0  0  0
  4  5  1  0  0  0
  4 85  1  0  0  0
  4 86  1  0  0  0
  5  6  1  0  0  0
  5 26  1  0  0  0
  5 87  1  0  0  0
  6 25  1  0  0  0
  6 88  1  0  0  0
  6 89  1  0  0  0
  7  8  2  0  0  0
  7 26  1  0  0  0
  7 29  1  0  0  0
  8  9  1  0  0  0
  8 22  1  0  0  0
  9 10  1  0  0  0
  9 27  2  0  0  0
 10 11  2  0  0  0
 10 15  1  0  0  0
 11 12  1  0  0  0
 11 90  1  0  0  0
 12 13  2  0  0  0
 12 91  1  0  0  0
 13 14  1  0  0  0
 13 31  1  0  0  0
 14 15  2  0  0  0
 14 92  1  0  0  0
 15 93  1  0  0  0
 16 17  2  0  0  0
 16 21  1  0  0  0
 16 31  1  0  0  0
 17 18  1  0  0  0
 17 94  1  0  0  0
 18 19  2  0  0  0
 18 95  1  0  0  0
 19 20  1  0  0  0
 19 24  1  0  0  0
 20 21  2  0  0  0
 20 96  1  0  0  0
 21 23  1  0  0  0
 22 28  1  0  0  0
 22 32  2  0  0  0
 26 27  1  0  0  0
 28 97  1  0  0  0
 28 98  1  0  0  0
 29 99  1  0  0  0
 29100  1  0  0  0
 33 34  1  0  0  0
 33 66  1  0  0  0
 33 70  2  0  0  0
 34 36  1  0  0  0
 34 59  1  0  0  0
 34101  1  0  0  0
 35 44  2  0  0  0
 35 45  1  0  0  0
 35 68  1  0  0  0
 36 56  1  0  0  0
 36102  1  0  0  0
 37 39  1  0  0  0
 37 47  1  0  0  0
 37 66  1  0  0  0
 37103  1  0  0  0
 38 43  2  0  0  0
 38 46  1  0  0  0
 38 47  1  0  0  0
 39 64  1  0  0  0
 39 67  2  0  0  0
 40 52  1  0  0  0
 40 53  2  0  0  0
 40 58  1  0  0  0
 41104  1  0  0  0
 41105  1  0  0  0
 41106  1  0  0  0
 41 48  1  0  0  0
 42 43  1  0  0  0
 42 66  1  0  0  0
 42107  1  0  0  0
 42108  1  0  0  0
 43 44  1  0  0  0
 44109  1  0  0  0
 45 46  2  0  0  0
 45110  1  0  0  0
 46111  1  0  0  0
 47112  1  0  0  0
 47113  1  0  0  0
 48 56  1  0  0  0
 48 65  1  0  0  0
 48114  1  0  0  0
 49 50  1  0  0  0
 49 53  1  0  0  0
 49 64  1  0  0  0
 49115  1  0  0  0
 50 51  1  0  0  0
 50116  1  0  0  0
 50117  1  0  0  0
 51 52  1  0  0  0
 51118  1  0  0  0
 51119  1  0  0  0
 52120  1  0  0  0
 52121  1  0  0  0
 53 54  1  0  0  0
 54 55  2  0  0  0
 54122  1  0  0  0
 55 57  1  0  0  0
 55123  1  0  0  0
 56 69  2  0  0  0
 57 58  2  0  0  0
 57124  1  0  0  0
 58125  1  0  0  0
 59 60  1  0  0  0
 59 61  1  0  0  0
 59 62  1  0  0  0
 60126  1  0  0  0
 60127  1  0  0  0
 60128  1  0  0  0
 61129  1  0  0  0
 61130  1  0  0  0
 61131  1  0  0  0
 62132  1  0  0  0
 62133  1  0  0  0
 62134  1  0  0  0
 63 65  1  0  0  0
 63135  1  0  0  0
 63136  1  0  0  0
 63137  1  0  0  0
 64138  1  0  0  0
 65139  1  0  0  0
 68 77  1  0  0  0
 71140  1  0  0  0
 71141  1  0  0  0
 71142  1  0  0  0
 71 78  1  0  0  0
 72 78  1  0  0  0
 72143  1  0  0  0
 72144  1  0  0  0
 72145  1  0  0  0
 73146  1  0  0  0
 73147  1  0  0  0
 73148  1  0  0  0
 73 80  1  0  0  0
 74 75  1  0  0  0
 74 79  1  0  0  0
 74149  1  0  0  0
 74150  1  0  0  0
 75 80  1  0  0  0
 75151  1  0  0  0
 75152  1  0  0  0
 76 78  1  0  0  0
 76 80  1  0  0  0
 76153  1  0  0  0
 76154  1  0  0  0
 77 78  1  0  0  0
 77155  1  0  0  0
 77156  1  0  0  0
 79157  1  0  0  0
 80158  1  0  0  0
M  CHG  1  80   1
M  ISO  4   1 100  68 101  77 101  79 100
M  END
> <chiral flag>
0

> <version>
0

> <s_m_source_file>
/data/baiqing/PycharmProjects/Reinvent-master-3.2/result/LINK_invent/BTK/process_docking_weight1_custom_sum_contain_oxygen_bond_distance_aromatic_linkinvent_7_9_3/rearranged_h_0099.sdf

> <i_m_source_file_index>
62

> <r_mmod_Potential_Energy-OPLS-2005>
546.951599121094

> <r_mmod_Stretch_Energy-OPLS-2005>
302.15771484375

> <r_mmod_Bend_Energy-OPLS-2005>
348.073516845703

> <r_mmod_Torsional_Energy-OPLS-2005>
300.311859130859

> <r_mmod_Improper_Torsional_Energy-OPLS-2005>
5.02730274200439

> <r_mmod_Van_der_Waal_Energy-OPLS-2005>
109.23592376709

> <r_mmod_Electrostatic_Energy-OPLS-2005>
-258.468048095703

> <r_mmod_Solvation_Energy-OPLS-2005>
-469.044250488281

> <b_mmod_Minimization_Converged-OPLS-2005>
0

> <r_mmod_RMS_Derivative-OPLS-2005>
6.30765390396118

$$$$
62
                    3D
 Structure written by MMmdl.
164172  0  0  1  0            999 V2000
  -30.6122  -14.7216   20.4412 C   0  0  0  0  0  0
  -30.4312  -12.4239   19.4757 C   0  0  0  0  0  0
  -29.5117  -12.5200   18.2363 C   0  0  0  0  0  0
  -28.0328  -12.3600   18.6388 C   0  0  0  0  0  0
  -27.6515  -13.2349   19.8630 C   0  0  2  0  0  0
  -28.6990  -13.1284   20.9957 C   0  0  0  0  0  0
  -25.2543  -13.8217   20.5703 C   0  0  0  0  0  0
  -24.1837  -13.0454   20.9207 C   0  0  0  0  0  0
  -24.6440  -11.6930   20.8744 C   0  0  0  0  0  0
  -23.9105  -10.4300   21.0377 C   0  0  0  0  0  0
  -24.3650   -9.4207   21.9161 C   0  0  0  0  0  0
  -23.6317   -8.2247   22.0734 C   0  0  0  0  0  0
  -22.4296   -8.0293   21.3538 C   0  0  0  0  0  0
  -21.9945   -9.0257   20.4631 C   0  0  0  0  0  0
  -22.7270  -10.2134   20.3023 C   0  0  0  0  0  0
  -21.6848   -6.0740   22.5285 C   0  0  0  0  0  0
  -21.4004   -6.5632   23.8210 C   0  0  0  0  0  0
  -21.3666   -5.6795   24.9183 C   0  0  0  0  0  0
  -21.6044   -4.3050   24.7228 C   0  0  0  0  0  0
  -21.8815   -3.8148   23.4348 C   0  0  0  0  0  0
  -21.9186   -4.6967   22.3400 C   0  0  0  0  0  0
  -22.7845  -13.5187   21.1860 C   0  0  0  0  0  0
  -22.1653   -4.2152   21.0983 F   0  0  0  0  0  0
  -21.5630   -3.4532   25.7738 F   0  0  0  0  0  0
  -30.0129  -13.4792   20.4324 N   0  0  0  0  0  0
  -26.2999  -12.9437   20.3337 N   0  0  0  0  0  0
  -25.9371  -11.6574   20.5785 N   0  0  0  0  0  0
  -22.0503  -12.8192   22.0429 N   0  0  0  0  0  0
  -25.4191  -15.1946   20.4078 N   0  0  0  0  0  0
  -31.7550  -14.8645   19.9973 O   0  0  0  0  0  0
  -21.6642   -6.8894   21.4244 O   0  0  0  0  0  0
  -22.3499  -14.5472   20.6670 O   0  0  0  0  0  0
  -24.6317  -31.8515   23.1949 C   0  0  0  0  0  0
  -25.9131  -32.4729   23.8314 C   0  0  1  0  0  0
  -27.2239  -27.2505   20.1295 C   0  0  0  0  0  0
  -25.5941  -33.8534   24.2238 N   0  0  0  0  0  0
  -23.4290  -30.4734   21.5399 C   0  0  2  0  0  0
  -24.8777  -28.9088   20.1160 C   0  0  0  0  0  0
  -22.7495  -29.4572   22.4903 C   0  0  0  0  0  0
  -18.0304  -28.1354   22.8472 C   0  0  0  0  0  0
  -24.1493  -36.7255   23.2647 C   0  0  0  0  0  0
  -25.9775  -30.7604   21.3757 C   0  0  0  0  0  0
  -26.0518  -29.3815   20.7179 C   0  0  0  0  0  0
  -27.2320  -28.5673   20.7038 C   0  0  0  0  0  0
  -26.0268  -26.8360   19.5138 C   0  0  0  0  0  0
  -24.8697  -27.6435   19.5061 C   0  0  0  0  0  0
  -23.6493  -29.8006   20.1591 C   0  0  0  0  0  0
  -25.4116  -36.3047   24.0331 C   0  0  1  0  0  0
  -20.5902  -28.3654   23.1261 C   0  0  2  0  0  0
  -20.6774  -26.9366   22.5397 C   0  0  0  0  0  0
  -19.5759  -26.6344   21.5190 C   0  0  0  0  0  0
  -18.1944  -26.7902   22.1604 C   0  0  0  0  0  0
  -19.1556  -28.8826   23.2864 C   0  0  0  0  0  0
  -18.9475  -30.1435   23.8864 C   0  0  0  0  0  0
  -17.6465  -30.6554   24.0541 C   0  0  0  0  0  0
  -25.9058  -34.9423   23.5088 C   0  0  0  0  0  0
  -16.5355  -29.9035   23.6334 C   0  0  0  0  0  0
  -16.7285  -28.6461   23.0346 C   0  0  0  0  0  0
  -26.4499  -31.6566   25.0712 C   0  0  0  0  0  0
  -25.3756  -31.3691   26.1458 C   0  0  0  0  0  0
  -27.0358  -30.2996   24.6192 C   0  0  0  0  0  0
  -27.6051  -32.4311   25.7502 C   0  0  0  0  0  0
  -27.5570  -37.1784   24.8466 C   0  0  0  0  0  0
  -21.4197  -29.3010   22.3653 N   0  0  0  0  0  0
  -26.4284  -37.3743   23.9420 N   0  0  0  0  0  0
  -24.6989  -31.0471   22.0931 N   0  0  0  0  0  0
  -23.4195  -28.8121   23.2996 O   0  0  0  0  0  0
  -28.3323  -26.3726   20.1056 O   0  0  0  0  0  0
  -26.5618  -34.8900   22.4648 O   0  0  0  0  0  0
  -23.5463  -32.1351   23.7234 O   0  0  0  0  0  0
  -32.0104  -19.9917   20.7767 C   0  0  0  0  0  0
  -31.4759  -18.7056   20.6399 C   0  0  0  0  0  0
  -31.1810  -21.1371   20.7228 C   0  0  0  0  0  0
  -30.1145  -18.5509   20.3706 C   0  0  0  0  0  0
  -29.7840  -20.9807   20.4972 C   0  0  0  0  0  0
  -32.8318  -22.8317   19.8505 C   0  0  0  0  0  0
  -32.5352  -22.5160   22.3548 C   0  0  0  0  0  0
  -29.6874  -23.8577   18.7962 C   0  0  0  0  0  0
  -28.7706  -22.2128   20.7305 C   0  0  0  0  0  0
  -29.6135  -17.1064   19.9512 C   0  0  0  0  0  0
  -28.2207  -24.9724   20.6560 C   0  0  0  0  0  0
  -31.8448  -22.4878   20.9801 C   0  0  0  0  0  0
  -28.6105  -23.6016   19.8603 C   0  0  1  0  0  0
  -29.2942  -19.6829   20.3070 N   0  0  0  0  0  0
  -29.8306  -15.8182   20.7458 N   0  0  0  0  0  0
  -31.4776  -12.5189   19.1821 H   0  0  0  0  0  0
  -30.3464  -11.4372   19.9328 H   0  0  0  0  0  0
  -29.7833  -11.7676   17.4929 H   0  0  0  0  0  0
  -29.6511  -13.4889   17.7570 H   0  0  0  0  0  0
  -27.8634  -11.3074   18.8679 H   0  0  0  0  0  0
  -27.3833  -12.5915   17.7932 H   0  0  0  0  0  0
  -27.6554  -14.2673   19.5114 H   0  0  0  0  0  0
  -28.7195  -12.1119   21.3925 H   0  0  0  0  0  0
  -28.4383  -13.7755   21.8327 H   0  0  0  0  0  0
  -25.2783   -9.5671   22.4763 H   0  0  0  0  0  0
  -24.0012   -7.4620   22.7444 H   0  0  0  0  0  0
  -21.0868   -8.8748   19.8948 H   0  0  0  0  0  0
  -22.3689  -10.9673   19.6141 H   0  0  0  0  0  0
  -21.1977   -7.6139   23.9717 H   0  0  0  0  0  0
  -21.1508   -6.0523   25.9089 H   0  0  0  0  0  0
  -22.0595   -2.7613   23.2839 H   0  0  0  0  0  0
  -22.4119  -11.9866   22.4861 H   0  0  0  0  0  0
  -21.1104  -13.1194   22.2583 H   0  0  0  0  0  0
  -24.6388  -15.8391   20.4760 H   0  0  0  0  0  0
  -26.2576  -15.6336   20.0488 H   0  0  0  0  0  0
  -26.7187  -32.5352   23.1044 H   0  0  0  0  0  0
  -25.0151  -33.9668   25.0432 H   0  0  0  0  0  0
  -22.7250  -31.2952   21.3890 H   0  0  0  0  0  0
  -23.3762  -35.9579   23.3300 H   0  0  0  0  0  0
  -24.3583  -36.8882   22.2061 H   0  0  0  0  0  0
  -23.7231  -37.6453   23.6667 H   0  0  0  0  0  0
  -26.1238  -31.5212   20.6088 H   0  0  0  0  0  0
  -26.8514  -30.8037   22.0128 H   0  0  0  0  0  0
  -28.1399  -28.9283   21.1679 H   0  0  0  0  0  0
  -25.9832  -25.8664   19.0378 H   0  0  0  0  0  0
  -23.9686  -27.2714   19.0367 H   0  0  0  0  0  0
  -23.7722  -30.5753   19.4011 H   0  0  0  0  0  0
  -22.7657  -29.2366   19.8548 H   0  0  0  0  0  0
  -25.1298  -36.1891   25.0821 H   0  0  0  0  0  0
  -21.0004  -28.3210   24.1376 H   0  0  0  0  0  0
  -20.5626  -26.2251   23.3593 H   0  0  0  0  0  0
  -21.6648  -26.7351   22.1214 H   0  0  0  0  0  0
  -19.6908  -25.6250   21.1229 H   0  0  0  0  0  0
  -19.6719  -27.3146   20.6719 H   0  0  0  0  0  0
  -17.4208  -26.6651   21.4015 H   0  0  0  0  0  0
  -18.0348  -26.0045   22.9004 H   0  0  0  0  0  0
  -19.7956  -30.7269   24.2195 H   0  0  0  0  0  0
  -17.5020  -31.6244   24.5125 H   0  0  0  0  0  0
  -15.5352  -30.2910   23.7677 H   0  0  0  0  0  0
  -15.8697  -28.0761   22.7054 H   0  0  0  0  0  0
  -24.5950  -30.7000   25.7813 H   0  0  0  0  0  0
  -24.8931  -32.2842   26.4902 H   0  0  0  0  0  0
  -25.8135  -30.8891   27.0221 H   0  0  0  0  0  0
  -26.2934  -29.6736   24.1222 H   0  0  0  0  0  0
  -27.4071  -29.7253   25.4688 H   0  0  0  0  0  0
  -27.8799  -30.4296   23.9417 H   0  0  0  0  0  0
  -27.2657  -33.3622   26.2050 H   0  0  0  0  0  0
  -28.3894  -32.6841   25.0357 H   0  0  0  0  0  0
  -28.0676  -31.8449   26.5452 H   0  0  0  0  0  0
  -28.2571  -38.0095   24.7510 H   0  0  0  0  0  0
  -28.1084  -36.2619   24.6299 H   0  0  0  0  0  0
  -27.2289  -37.1431   25.8870 H   0  0  0  0  0  0
  -20.9351  -29.8758   21.6905 H   0  0  0  0  0  0
  -26.0158  -38.2819   24.1421 H   0  0  0  0  0  0
  -33.0741  -20.0892   20.9437 H   0  0  0  0  0  0
  -32.1267  -17.8433   20.6923 H   0  0  0  0  0  0
  -32.3474  -22.8235   18.8724 H   0  0  0  0  0  0
  -33.6601  -22.1265   19.8010 H   0  0  0  0  0  0
  -33.2555  -23.8242   19.9971 H   0  0  0  0  0  0
  -31.8494  -22.2189   23.1502 H   0  0  0  0  0  0
  -32.9111  -23.5117   22.5947 H   0  0  0  0  0  0
  -33.3873  -21.8404   22.3931 H   0  0  0  0  0  0
  -30.0346  -22.9282   18.3443 H   0  0  0  0  0  0
  -30.5408  -24.4021   19.1973 H   0  0  0  0  0  0
  -29.2787  -24.4663   17.9880 H   0  0  0  0  0  0
  -28.9440  -22.5126   21.7661 H   0  0  0  0  0  0
  -27.7785  -21.7655   20.7724 H   0  0  0  0  0  0
  -30.0215  -16.9296   18.9536 H   0  0  0  0  0  0
  -28.5401  -17.1950   19.7920 H   0  0  0  0  0  0
  -28.8659  -24.9930   21.5348 H   0  0  0  0  0  0
  -27.2197  -24.8354   21.0710 H   0  0  0  0  0  0
  -31.0979  -23.2747   21.0132 H   0  0  0  0  0  0
  -27.7310  -23.3927   19.2510 H   0  0  0  0  0  0
  -29.0277  -15.5738   21.3045 H   0  0  0  0  0  0
  1 25  1  0  0  0
  1 30  2  0  0  0
  1 85  1  0  0  0
  2  3  1  0  0  0
  2 25  1  0  0  0
  2 86  1  0  0  0
  2 87  1  0  0  0
  3  4  1  0  0  0
  3 88  1  0  0  0
  3 89  1  0  0  0
  4  5  1  0  0  0
  4 90  1  0  0  0
  4 91  1  0  0  0
  5  6  1  0  0  0
  5 26  1  0  0  0
  5 92  1  0  0  0
  6 25  1  0  0  0
  6 93  1  0  0  0
  6 94  1  0  0  0
  7  8  2  0  0  0
  7 26  1  0  0  0
  7 29  1  0  0  0
  8  9  1  0  0  0
  8 22  1  0  0  0
  9 10  1  0  0  0
  9 27  2  0  0  0
 10 11  2  0  0  0
 10 15  1  0  0  0
 11 12  1  0  0  0
 11 95  1  0  0  0
 12 13  2  0  0  0
 12 96  1  0  0  0
 13 14  1  0  0  0
 13 31  1  0  0  0
 14 15  2  0  0  0
 14 97  1  0  0  0
 15 98  1  0  0  0
 16 17  2  0  0  0
 16 21  1  0  0  0
 16 31  1  0  0  0
 17 18  1  0  0  0
 17 99  1  0  0  0
 18 19  2  0  0  0
 18100  1  0  0  0
 19 20  1  0  0  0
 19 24  1  0  0  0
 20 21  2  0  0  0
 20101  1  0  0  0
 21 23  1  0  0  0
 22 28  1  0  0  0
 22 32  2  0  0  0
 26 27  1  0  0  0
 28102  1  0  0  0
 28103  1  0  0  0
 29104  1  0  0  0
 29105  1  0  0  0
 33 34  1  0  0  0
 33 66  1  0  0  0
 33 70  2  0  0  0
 34 36  1  0  0  0
 34 59  1  0  0  0
 34106  1  0  0  0
 35 44  2  0  0  0
 35 45  1  0  0  0
 35 68  1  0  0  0
 36 56  1  0  0  0
 36107  1  0  0  0
 37 39  1  0  0  0
 37 47  1  0  0  0
 37 66  1  0  0  0
 37108  1  0  0  0
 38 43  2  0  0  0
 38 46  1  0  0  0
 38 47  1  0  0  0
 39 64  1  0  0  0
 39 67  2  0  0  0
 40 52  1  0  0  0
 40 53  2  0  0  0
 40 58  1  0  0  0
 41109  1  0  0  0
 41110  1  0  0  0
 41111  1  0  0  0
 41 48  1  0  0  0
 42 43  1  0  0  0
 42 66  1  0  0  0
 42112  1  0  0  0
 42113  1  0  0  0
 43 44  1  0  0  0
 44114  1  0  0  0
 45 46  2  0  0  0
 45115  1  0  0  0
 46116  1  0  0  0
 47117  1  0  0  0
 47118  1  0  0  0
 48 56  1  0  0  0
 48 65  1  0  0  0
 48119  1  0  0  0
 49 50  1  0  0  0
 49 53  1  0  0  0
 49 64  1  0  0  0
 49120  1  0  0  0
 50 51  1  0  0  0
 50121  1  0  0  0
 50122  1  0  0  0
 51 52  1  0  0  0
 51123  1  0  0  0
 51124  1  0  0  0
 52125  1  0  0  0
 52126  1  0  0  0
 53 54  1  0  0  0
 54 55  2  0  0  0
 54127  1  0  0  0
 55 57  1  0  0  0
 55128  1  0  0  0
 56 69  2  0  0  0
 57 58  2  0  0  0
 57129  1  0  0  0
 58130  1  0  0  0
 59 60  1  0  0  0
 59 61  1  0  0  0
 59 62  1  0  0  0
 60131  1  0  0  0
 60132  1  0  0  0
 60133  1  0  0  0
 61134  1  0  0  0
 61135  1  0  0  0
 61136  1  0  0  0
 62137  1  0  0  0
 62138  1  0  0  0
 62139  1  0  0  0
 63 65  1  0  0  0
 63140  1  0  0  0
 63141  1  0  0  0
 63142  1  0  0  0
 64143  1  0  0  0
 65144  1  0  0  0
 68 81  1  0  0  0
 71 72  2  0  0  0
 71 73  1  0  0  0
 71145  1  0  0  0
 72 74  1  0  0  0
 72146  1  0  0  0
 73 75  2  0  0  0
 73 82  1  0  0  0
 74 80  1  0  0  0
 74 84  2  0  0  0
 75 79  1  0  0  0
 75 84  1  0  0  0
 76147  1  0  0  0
 76148  1  0  0  0
 76149  1  0  0  0
 76 82  1  0  0  0
 77 82  1  0  0  0
 77150  1  0  0  0
 77151  1  0  0  0
 77152  1  0  0  0
 78153  1  0  0  0
 78154  1  0  0  0
 78155  1  0  0  0
 78 83  1  0  0  0
 79 83  1  0  0  0
 79156  1  0  0  0
 79157  1  0  0  0
 80 85  1  0  0  0
 80158  1  0  0  0
 80159  1  0  0  0
 81 83  1  0  0  0
 81160  1  0  0  0
 81161  1  0  0  0
 82162  1  0  0  0
 83163  1  0  0  0
 85164  1  0  0  0
M  ISO  4   1 100  68 101  81 101  85 100
M  END
> <chiral flag>
0

> <version>
0

> <s_m_source_file>
/data/baiqing/PycharmProjects/Reinvent-master-3.2/result/LINK_invent/BTK/process_docking_weight1_custom_sum_contain_oxygen_bond_distance_aromatic_linkinvent_7_9_3/rearranged_h_0099.sdf

> <i_m_source_file_index>
63

> <r_mmod_Potential_Energy-OPLS-2005>
-12.4483089447021

> <r_mmod_Stretch_Energy-OPLS-2005>
136.907073974609

> <r_mmod_Bend_Energy-OPLS-2005>
208.677139282227

> <r_mmod_Torsional_Energy-OPLS-2005>
258.274780273438

> <r_mmod_Improper_Torsional_Energy-OPLS-2005>
9.67965412139893

> <r_mmod_Van_der_Waal_Energy-OPLS-2005>
131.779724121094

> <r_mmod_Electrostatic_Energy-OPLS-2005>
-613.465026855469

> <r_mmod_Solvation_Energy-OPLS-2005>
-222.912368774414

> <b_mmod_Minimization_Converged-OPLS-2005>
0

> <r_mmod_RMS_Derivative-OPLS-2005>
3.70125341415405

$$$$
63
                    3D
 Structure written by MMmdl.
160168  0  0  1  0            999 V2000
  -30.6286  -14.7349   20.4529 C   0  0  0  0  0  0
  -30.4282  -12.4434   19.4801 C   0  0  0  0  0  0
  -29.5155  -12.5006   18.2372 C   0  0  0  0  0  0
  -28.0397  -12.3288   18.6504 C   0  0  0  0  0  0
  -27.6416  -13.2359   19.8473 C   0  0  2  0  0  0
  -28.6830  -13.1818   20.9849 C   0  0  0  0  0  0
  -25.2504  -13.8199   20.5663 C   0  0  0  0  0  0
  -24.1808  -13.0438   20.9184 C   0  0  0  0  0  0
  -24.6392  -11.6915   20.8735 C   0  0  0  0  0  0
  -23.9074  -10.4293   21.0405 C   0  0  0  0  0  0
  -24.3623   -9.4214   21.9188 C   0  0  0  0  0  0
  -23.6289   -8.2250   22.0774 C   0  0  0  0  0  0
  -22.4278   -8.0283   21.3554 C   0  0  0  0  0  0
  -21.9903   -9.0255   20.4656 C   0  0  0  0  0  0
  -22.7238  -10.2132   20.3054 C   0  0  0  0  0  0
  -21.6850   -6.0729   22.5279 C   0  0  0  0  0  0
  -21.4021   -6.5637   23.8217 C   0  0  0  0  0  0
  -21.3665   -5.6791   24.9173 C   0  0  0  0  0  0
  -21.6038   -4.3057   24.7229 C   0  0  0  0  0  0
  -21.8815   -3.8144   23.4357 C   0  0  0  0  0  0
  -21.9196   -4.6952   22.3407 C   0  0  0  0  0  0
  -22.7826  -13.5229   21.1847 C   0  0  0  0  0  0
  -22.1657   -4.2135   21.0986 F   0  0  0  0  0  0
  -21.5626   -3.4542   25.7748 F   0  0  0  0  0  0
  -29.9886  -13.5177   20.4014 N   0  0  0  0  0  0
  -26.2939  -12.9410   20.3239 N   0  0  0  0  0  0
  -25.9327  -11.6555   20.5726 N   0  0  0  0  0  0
  -22.0461  -12.8234   22.0405 N   0  0  0  0  0  0
  -25.4150  -15.1924   20.4077 N   0  0  0  0  0  0
  -31.8189  -14.8113   20.1353 O   0  0  0  0  0  0
  -21.6647   -6.8877   21.4246 O   0  0  0  0  0  0
  -22.3513  -14.5523   20.6686 O   0  0  0  0  0  0
  -24.6322  -31.8564   23.1939 C   0  0  0  0  0  0
  -25.9160  -32.4744   23.8307 C   0  0  1  0  0  0
  -27.2187  -27.2653   20.1509 C   0  0  0  0  0  0
  -25.5946  -33.8548   24.2244 N   0  0  0  0  0  0
  -23.4279  -30.4794   21.5345 C   0  0  2  0  0  0
  -24.8764  -28.9145   20.1170 C   0  0  0  0  0  0
  -22.7478  -29.4665   22.4897 C   0  0  0  0  0  0
  -18.0284  -28.1348   22.8406 C   0  0  0  0  0  0
  -24.1502  -36.7283   23.2636 C   0  0  0  0  0  0
  -25.9719  -30.7751   21.3682 C   0  0  0  0  0  0
  -26.0466  -29.3931   20.7190 C   0  0  0  0  0  0
  -27.2264  -28.5835   20.7167 C   0  0  0  0  0  0
  -26.0266  -26.8445   19.5282 C   0  0  0  0  0  0
  -24.8691  -27.6484   19.5078 C   0  0  0  0  0  0
  -23.6482  -29.8007   20.1569 C   0  0  0  0  0  0
  -25.4125  -36.3058   24.0325 C   0  0  1  0  0  0
  -20.5886  -28.3760   23.1238 C   0  0  2  0  0  0
  -20.6758  -26.9485   22.5348 C   0  0  0  0  0  0
  -19.5780  -26.6536   21.5107 C   0  0  0  0  0  0
  -18.1988  -26.7911   22.1541 C   0  0  0  0  0  0
  -19.1518  -28.8861   23.2834 C   0  0  0  0  0  0
  -18.9387  -30.1458   23.8866 C   0  0  0  0  0  0
  -17.6356  -30.6519   24.0538 C   0  0  0  0  0  0
  -25.9069  -34.9434   23.5071 C   0  0  0  0  0  0
  -16.5296  -29.8999   23.6261 C   0  0  0  0  0  0
  -16.7256  -28.6465   23.0213 C   0  0  0  0  0  0
  -26.4523  -31.6558   25.0690 C   0  0  0  0  0  0
  -25.3735  -31.3692   26.1399 C   0  0  0  0  0  0
  -27.0372  -30.2985   24.6134 C   0  0  0  0  0  0
  -27.6071  -32.4306   25.7479 C   0  0  0  0  0  0
  -27.5581  -37.1794   24.8465 C   0  0  0  0  0  0
  -21.4193  -29.3101   22.3603 N   0  0  0  0  0  0
  -26.4296  -37.3757   23.9396 N   0  0  0  0  0  0
  -24.6960  -31.0558   22.0890 N   0  0  0  0  0  0
  -23.4169  -28.8267   23.3068 O   0  0  0  0  0  0
  -28.3129  -26.3808   20.1501 O   0  0  0  0  0  0
  -26.5648  -34.8916   22.4650 O   0  0  0  0  0  0
  -23.5478  -32.1389   23.7238 O   0  0  0  0  0  0
  -28.1014  -18.7203   20.8396 C   0  0  0  0  0  0
  -29.8845  -19.9823   20.5767 C   0  0  0  0  0  0
  -29.5036  -18.6332   20.6066 C   0  0  0  0  0  0
  -27.7127  -20.0316   21.0362 C   0  0  0  0  0  0
  -25.6086  -19.4926   22.3193 C   0  0  0  0  0  0
  -25.4895  -20.9352   20.2592 C   0  0  0  0  0  0
  -30.4005  -17.3229   20.4454 C   0  0  0  0  0  0
  -28.4414  -23.5941   20.1724 C   0  0  0  0  0  0
  -28.8989  -22.3889   21.1570 C   0  0  0  0  0  0
  -28.1945  -25.0571   20.8488 C   0  0  0  0  0  0
  -26.3542  -20.5273   21.4586 C   0  0  0  0  0  0
  -28.8161  -20.8784   20.8526 N   0  0  0  0  0  0
  -29.8905  -15.8949   20.6376 N   0  0  0  0  0  0
  -31.4719  -12.5480   19.1842 H   0  0  0  0  0  0
  -30.3533  -11.4703   19.9658 H   0  0  0  0  0  0
  -29.7981  -11.7232   17.5264 H   0  0  0  0  0  0
  -29.6520  -13.4529   17.7215 H   0  0  0  0  0  0
  -27.8990  -11.2810   18.9194 H   0  0  0  0  0  0
  -27.3855  -12.5136   17.7957 H   0  0  0  0  0  0
  -27.6331  -14.2540   19.4590 H   0  0  0  0  0  0
  -28.7102  -12.1938   21.4449 H   0  0  0  0  0  0
  -28.4202  -13.8852   21.7776 H   0  0  0  0  0  0
  -25.2758   -9.5691   22.4772 H   0  0  0  0  0  0
  -23.9981   -7.4657   22.7513 H   0  0  0  0  0  0
  -21.0825   -8.8773   19.8981 H   0  0  0  0  0  0
  -22.3687  -10.9666   19.6169 H   0  0  0  0  0  0
  -21.2021   -7.6146   23.9705 H   0  0  0  0  0  0
  -21.1485   -6.0532   25.9076 H   0  0  0  0  0  0
  -22.0592   -2.7600   23.2865 H   0  0  0  0  0  0
  -22.4046  -11.9885   22.4793 H   0  0  0  0  0  0
  -21.1090  -13.1290   22.2603 H   0  0  0  0  0  0
  -24.6374  -15.8360   20.5090 H   0  0  0  0  0  0
  -26.2508  -15.6365   20.0498 H   0  0  0  0  0  0
  -26.7221  -32.5432   23.1067 H   0  0  0  0  0  0
  -25.0094  -33.9671   25.0393 H   0  0  0  0  0  0
  -22.7239  -31.2997   21.3779 H   0  0  0  0  0  0
  -23.3760  -35.9612   23.3290 H   0  0  0  0  0  0
  -24.3589  -36.8919   22.2041 H   0  0  0  0  0  0
  -23.7263  -37.6485   23.6679 H   0  0  0  0  0  0
  -26.1081  -31.5307   20.5923 H   0  0  0  0  0  0
  -26.8509  -30.8326   21.9980 H   0  0  0  0  0  0
  -28.1318  -28.9474   21.1828 H   0  0  0  0  0  0
  -25.9896  -25.8677   19.0684 H   0  0  0  0  0  0
  -23.9723  -27.2712   19.0340 H   0  0  0  0  0  0
  -23.7781  -30.5690   19.3922 H   0  0  0  0  0  0
  -22.7679  -29.2318   19.8517 H   0  0  0  0  0  0
  -25.1300  -36.1890   25.0815 H   0  0  0  0  0  0
  -21.0019  -28.3375   24.1331 H   0  0  0  0  0  0
  -20.5608  -26.2366   23.3520 H   0  0  0  0  0  0
  -21.6587  -26.7523   22.1101 H   0  0  0  0  0  0
  -19.7016  -25.6523   21.0964 H   0  0  0  0  0  0
  -19.6675  -27.3497   20.6759 H   0  0  0  0  0  0
  -17.4286  -26.6621   21.3919 H   0  0  0  0  0  0
  -18.0442  -26.0003   22.8913 H   0  0  0  0  0  0
  -19.7801  -30.7341   24.2226 H   0  0  0  0  0  0
  -17.4832  -31.6140   24.5234 H   0  0  0  0  0  0
  -15.5280  -30.2862   23.7568 H   0  0  0  0  0  0
  -15.8679  -28.0815   22.6803 H   0  0  0  0  0  0
  -24.5925  -30.7034   25.7708 H   0  0  0  0  0  0
  -24.8917  -32.2855   26.4805 H   0  0  0  0  0  0
  -25.8040  -30.8871   27.0182 H   0  0  0  0  0  0
  -26.2939  -29.6724   24.1173 H   0  0  0  0  0  0
  -27.4107  -29.7237   25.4618 H   0  0  0  0  0  0
  -27.8797  -30.4282   23.9338 H   0  0  0  0  0  0
  -27.2673  -33.3613   26.2034 H   0  0  0  0  0  0
  -28.3900  -32.6849   25.0320 H   0  0  0  0  0  0
  -28.0732  -31.8450   26.5412 H   0  0  0  0  0  0
  -28.2576  -38.0107   24.7502 H   0  0  0  0  0  0
  -28.1097  -36.2628   24.6306 H   0  0  0  0  0  0
  -27.2295  -37.1449   25.8870 H   0  0  0  0  0  0
  -20.9450  -29.8716   21.6667 H   0  0  0  0  0  0
  -26.0172  -38.2828   24.1403 H   0  0  0  0  0  0
  -27.4333  -17.8738   20.9276 H   0  0  0  0  0  0
  -30.8757  -20.3999   20.4437 H   0  0  0  0  0  0
  -24.6741  -19.8999   22.7018 H   0  0  0  0  0  0
  -26.2133  -19.1924   23.1774 H   0  0  0  0  0  0
  -25.3654  -18.5928   21.7545 H   0  0  0  0  0  0
  -25.9550  -21.7390   19.6943 H   0  0  0  0  0  0
  -24.5131  -21.2972   20.5864 H   0  0  0  0  0  0
  -25.3214  -20.0999   19.5779 H   0  0  0  0  0  0
  -31.2476  -17.4467   21.1215 H   0  0  0  0  0  0
  -30.8361  -17.3747   19.4460 H   0  0  0  0  0  0
  -27.5336  -23.3128   19.6429 H   0  0  0  0  0  0
  -29.2041  -23.6908   19.3999 H   0  0  0  0  0  0
  -28.3546  -22.5420   22.0873 H   0  0  0  0  0  0
  -29.9312  -22.5908   21.4421 H   0  0  0  0  0  0
  -28.9237  -25.1402   21.6548 H   0  0  0  0  0  0
  -27.2373  -25.0210   21.3712 H   0  0  0  0  0  0
  -26.4762  -21.4026   22.0946 H   0  0  0  0  0  0
  -28.9117  -15.7816   20.8498 H   0  0  0  0  0  0
  1 25  1  0  0  0
  1 30  2  0  0  0
  1 83  1  0  0  0
  2  3  1  0  0  0
  2 25  1  0  0  0
  2 84  1  0  0  0
  2 85  1  0  0  0
  3  4  1  0  0  0
  3 86  1  0  0  0
  3 87  1  0  0  0
  4  5  1  0  0  0
  4 88  1  0  0  0
  4 89  1  0  0  0
  5  6  1  0  0  0
  5 26  1  0  0  0
  5 90  1  0  0  0
  6 25  1  0  0  0
  6 91  1  0  0  0
  6 92  1  0  0  0
  7  8  2  0  0  0
  7 26  1  0  0  0
  7 29  1  0  0  0
  8  9  1  0  0  0
  8 22  1  0  0  0
  9 10  1  0  0  0
  9 27  2  0  0  0
 10 11  2  0  0  0
 10 15  1  0  0  0
 11 12  1  0  0  0
 11 93  1  0  0  0
 12 13  2  0  0  0
 12 94  1  0  0  0
 13 14  1  0  0  0
 13 31  1  0  0  0
 14 15  2  0  0  0
 14 95  1  0  0  0
 15 96  1  0  0  0
 16 17  2  0  0  0
 16 21  1  0  0  0
 16 31  1  0  0  0
 17 18  1  0  0  0
 17 97  1  0  0  0
 18 19  2  0  0  0
 18 98  1  0  0  0
 19 20  1  0  0  0
 19 24  1  0  0  0
 20 21  2  0  0  0
 20 99  1  0  0  0
 21 23  1  0  0  0
 22 28  1  0  0  0
 22 32  2  0  0  0
 26 27  1  0  0  0
 28100  1  0  0  0
 28101  1  0  0  0
 29102  1  0  0  0
 29103  1  0  0  0
 33 34  1  0  0  0
 33 66  1  0  0  0
 33 70  2  0  0  0
 34 36  1  0  0  0
 34 59  1  0  0  0
 34104  1  0  0  0
 35 44  2  0  0  0
 35 45  1  0  0  0
 35 68  1  0  0  0
 36 56  1  0  0  0
 36105  1  0  0  0
 37 39  1  0  0  0
 37 47  1  0  0  0
 37 66  1  0  0  0
 37106  1  0  0  0
 38 43  2  0  0  0
 38 46  1  0  0  0
 38 47  1  0  0  0
 39 64  1  0  0  0
 39 67  2  0  0  0
 40 52  1  0  0  0
 40 53  2  0  0  0
 40 58  1  0  0  0
 41107  1  0  0  0
 41108  1  0  0  0
 41109  1  0  0  0
 41 48  1  0  0  0
 42 43  1  0  0  0
 42 66  1  0  0  0
 42110  1  0  0  0
 42111  1  0  0  0
 43 44  1  0  0  0
 44112  1  0  0  0
 45 46  2  0  0  0
 45113  1  0  0  0
 46114  1  0  0  0
 47115  1  0  0  0
 47116  1  0  0  0
 48 56  1  0  0  0
 48 65  1  0  0  0
 48117  1  0  0  0
 49 50  1  0  0  0
 49 53  1  0  0  0
 49 64  1  0  0  0
 49118  1  0  0  0
 50 51  1  0  0  0
 50119  1  0  0  0
 50120  1  0  0  0
 51 52  1  0  0  0
 51121  1  0  0  0
 51122  1  0  0  0
 52123  1  0  0  0
 52124  1  0  0  0
 53 54  1  0  0  0
 54 55  2  0  0  0
 54125  1  0  0  0
 55 57  1  0  0  0
 55126  1  0  0  0
 56 69  2  0  0  0
 57 58  2  0  0  0
 57127  1  0  0  0
 58128  1  0  0  0
 59 60  1  0  0  0
 59 61  1  0  0  0
 59 62  1  0  0  0
 60129  1  0  0  0
 60130  1  0  0  0
 60131  1  0  0  0
 61132  1  0  0  0
 61133  1  0  0  0
 61134  1  0  0  0
 62135  1  0  0  0
 62136  1  0  0  0
 62137  1  0  0  0
 63 65  1  0  0  0
 63138  1  0  0  0
 63139  1  0  0  0
 63140  1  0  0  0
 64141  1  0  0  0
 65142  1  0  0  0
 68 80  1  0  0  0
 71 73  1  0  0  0
 71 74  2  0  0  0
 71143  1  0  0  0
 72 73  2  0  0  0
 72 82  1  0  0  0
 72144  1  0  0  0
 73 77  1  0  0  0
 74 81  1  0  0  0
 74 82  1  0  0  0
 75145  1  0  0  0
 75146  1  0  0  0
 75147  1  0  0  0
 75 81  1  0  0  0
 76 81  1  0  0  0
 76148  1  0  0  0
 76149  1  0  0  0
 76150  1  0  0  0
 77 83  1  0  0  0
 77151  1  0  0  0
 77152  1  0  0  0
 78 79  1  0  0  0
 78 80  1  0  0  0
 78153  1  0  0  0
 78154  1  0  0  0
 79 82  1  0  0  0
 79155  1  0  0  0
 79156  1  0  0  0
 80157  1  0  0  0
 80158  1  0  0  0
 81159  1  0  0  0
 83160  1  0  0  0
M  ISO  4   1 100  68 101  80 101  83 100
M  END
> <chiral flag>
0

> <version>
0

> <s_m_source_file>
/data/baiqing/PycharmProjects/Reinvent-master-3.2/result/LINK_invent/BTK/process_docking_weight1_custom_sum_contain_oxygen_bond_distance_aromatic_linkinvent_7_9_3/rearranged_h_0099.sdf

> <i_m_source_file_index>
64

> <r_mmod_Potential_Energy-OPLS-2005>
95.7531280517578

> <r_mmod_Stretch_Energy-OPLS-2005>
120.075912475586

> <r_mmod_Bend_Energy-OPLS-2005>
181.785125732422

> <r_mmod_Torsional_Energy-OPLS-2005>
247.145523071289

> <r_mmod_Improper_Torsional_Energy-OPLS-2005>
7.05352020263672

> <r_mmod_Van_der_Waal_Energy-OPLS-2005>
108.866706848145

> <r_mmod_Electrostatic_Energy-OPLS-2005>
-444.360534667969

> <r_mmod_Solvation_Energy-OPLS-2005>
-206.594741821289

> <b_mmod_Minimization_Converged-OPLS-2005>
0

> <r_mmod_RMS_Derivative-OPLS-2005>
4.31967782974243

$$$$
64
                    3D
 Structure written by MMmdl.
173181  0  0  1  0            999 V2000
  -29.6288  -16.6143   20.4587 C   0  0  0  0  0  0
  -30.2397  -13.8605   19.6547 C   0  0  0  0  0  0
  -29.5659  -13.0056   18.4954 C   0  0  0  0  0  0
  -28.2365  -12.3856   18.9362 C   0  0  0  0  0  0
  -27.5369  -13.4031   19.8488 C   0  0  2  0  0  0
  -28.4097  -14.0623   20.9631 C   0  0  0  0  0  0
  -25.1926  -13.8379   20.5900 C   0  0  0  0  0  0
  -24.1455  -13.0398   20.9324 C   0  0  0  0  0  0
  -24.6335  -11.6956   20.8775 C   0  0  0  0  0  0
  -23.9127  -10.4268   21.0389 C   0  0  0  0  0  0
  -24.3677   -9.4191   21.9171 C   0  0  0  0  0  0
  -23.6329   -8.2241   22.0754 C   0  0  0  0  0  0
  -22.4310   -8.0290   21.3539 C   0  0  0  0  0  0
  -21.9956   -9.0263   20.4636 C   0  0  0  0  0  0
  -22.7309  -10.2118   20.3029 C   0  0  0  0  0  0
  -21.6877   -6.0768   22.5285 C   0  0  0  0  0  0
  -21.4038   -6.5659   23.8222 C   0  0  0  0  0  0
  -21.3642   -5.6798   24.9173 C   0  0  0  0  0  0
  -21.6040   -4.3064   24.7215 C   0  0  0  0  0  0
  -21.8821   -3.8167   23.4331 C   0  0  0  0  0  0
  -21.9197   -4.6995   22.3395 C   0  0  0  0  0  0
  -22.7469  -13.5057   21.1946 C   0  0  0  0  0  0
  -22.1665   -4.2181   21.0973 F   0  0  0  0  0  0
  -21.5607   -3.4540   25.7722 F   0  0  0  0  0  0
  -29.3628  -15.0499   20.3168 N   0  0  0  0  0  0
  -26.2443  -12.9855   20.3404 N   0  0  0  0  0  0
  -25.9303  -11.6832   20.5700 N   0  0  0  0  0  0
  -22.0208  -12.8020   22.0534 N   0  0  0  0  0  0
  -25.3359  -15.2147   20.4373 N   0  0  0  0  0  0
  -30.8956  -16.4857   20.3198 O   0  0  0  0  0  0
  -21.6651   -6.8907   21.4252 O   0  0  0  0  0  0
  -22.3127  -14.5356   20.6795 O   0  0  0  0  0  0
  -24.6641  -31.6791   23.1454 C   0  0  0  0  0  0
  -25.9177  -32.3804   23.7851 C   0  0  1  0  0  0
  -28.0297  -26.6659   19.6933 C   0  0  0  0  0  0
  -25.5639  -33.7824   24.1431 N   0  0  0  0  0  0
  -23.5442  -30.1112   21.5279 C   0  0  2  0  0  0
  -24.9218  -27.8946   20.4484 C   0  0  0  0  0  0
  -22.7362  -29.3350   22.5559 C   0  0  0  0  0  0
  -18.0120  -28.1400   22.8426 C   0  0  0  0  0  0
  -24.1453  -36.6943   23.2674 C   0  0  0  0  0  0
  -26.0339  -30.0001   21.7692 C   0  0  0  0  0  0
  -26.1450  -28.3905   21.3090 C   0  0  0  0  0  0
  -27.6324  -27.7007   21.0591 C   0  0  0  0  0  0
  -26.6149  -26.1488   18.6801 C   0  0  0  0  0  0
  -25.0845  -26.7607   19.2493 C   0  0  0  0  0  0
  -23.8242  -29.0784   20.3300 C   0  0  0  0  0  0
  -25.4123  -36.2557   24.0225 C   0  0  1  0  0  0
  -20.5619  -28.3551   23.1415 C   0  0  2  0  0  0
  -20.6495  -26.9252   22.5604 C   0  0  0  0  0  0
  -19.5605  -26.6328   21.5236 C   0  0  0  0  0  0
  -18.1746  -26.7947   22.1551 C   0  0  0  0  0  0
  -19.1369  -28.8827   23.2856 C   0  0  0  0  0  0
  -18.9372  -30.1426   23.8885 C   0  0  0  0  0  0
  -17.6392  -30.6608   24.0555 C   0  0  0  0  0  0
  -25.9112  -34.8945   23.4761 C   0  0  0  0  0  0
  -16.5265  -29.9151   23.6289 C   0  0  0  0  0  0
  -16.7129  -28.6574   23.0285 C   0  0  0  0  0  0
  -26.4571  -31.6529   25.0842 C   0  0  0  0  0  0
  -25.3553  -31.4055   26.1410 C   0  0  0  0  0  0
  -27.0967  -30.2789   24.7915 C   0  0  0  0  0  0
  -27.5753  -32.4941   25.7454 C   0  0  0  0  0  0
  -27.5490  -37.1563   24.8461 C   0  0  0  0  0  0
  -21.4130  -29.2649   22.3838 N   0  0  0  0  0  0
  -26.4189  -37.3401   23.9399 N   0  0  0  0  0  0
  -24.7627  -30.6612   22.1961 N   0  0  0  0  0  0
  -23.3324  -28.7381   23.4503 O   0  0  0  0  0  0
  -29.2537  -26.8043   19.2234 O   0  0  0  0  0  0
  -26.5980  -34.8624   22.4530 O   0  0  0  0  0  0
  -23.5626  -32.0855   23.5516 O   0  0  0  0  0  0
  -27.0395  -23.9319   20.3924 C   0  0  0  0  0  0
  -26.4280  -25.5870   20.8740 C   0  0  0  0  0  0
  -26.2709  -25.1863   22.2742 C   0  0  0  0  0  0
  -27.4675  -22.2974   20.9530 C   0  0  0  0  0  0
  -26.7524  -23.8774   22.8510 C   0  0  0  0  0  0
  -25.6131  -26.1872   23.2248 C   0  0  0  0  0  0
  -27.9116  -25.5534   26.1109 C   0  0  0  0  0  0
  -29.5141  -24.0613   24.8519 C   0  0  0  0  0  0
  -27.2258  -28.2490   16.3358 C   0  0  0  0  0  0
  -27.0018  -23.8671   24.3733 C   0  0  0  0  0  0
  -28.2853  -20.2673   20.4331 C   0  0  0  0  0  0
  -29.0634  -27.2569   17.8769 C   0  0  0  0  0  0
  -26.7472  -28.3641   19.0098 C   0  0  2  0  0  0
  -28.1767  -24.8024   24.7926 C   0  0  0  0  0  0
  -27.8666  -28.2967   17.7379 C   0  0  2  0  0  0
  -27.2273  -22.6374   22.2854 N   0  0  0  0  0  0
  -28.7171  -18.1701   20.5874 N   0  0  0  0  0  0
  -27.3459  -29.7111   19.3547 N   0  3  0  0  0  0
  -31.1388  -14.3063   19.2261 H   0  0  0  0  0  0
  -30.6252  -13.1917   20.4305 H   0  0  0  0  0  0
  -30.2472  -12.2388   18.1267 H   0  0  0  0  0  0
  -29.3821  -13.6749   17.6552 H   0  0  0  0  0  0
  -28.4295  -11.4687   19.4974 H   0  0  0  0  0  0
  -27.6146  -12.1141   18.0814 H   0  0  0  0  0  0
  -27.3043  -14.2153   19.1585 H   0  0  0  0  0  0
  -28.8875  -13.3124   21.5986 H   0  0  0  0  0  0
  -27.7743  -14.6312   21.6454 H   0  0  0  0  0  0
  -25.2826   -9.5681   22.4740 H   0  0  0  0  0  0
  -24.0050   -7.4640   22.7470 H   0  0  0  0  0  0
  -21.0887   -8.8797   19.8929 H   0  0  0  0  0  0
  -22.3787  -10.9666   19.6129 H   0  0  0  0  0  0
  -21.2061   -7.6173   23.9733 H   0  0  0  0  0  0
  -21.1447   -6.0528   25.9072 H   0  0  0  0  0  0
  -22.0613   -2.7634   23.2816 H   0  0  0  0  0  0
  -22.3938  -11.9723   22.4911 H   0  0  0  0  0  0
  -21.0814  -13.0953   22.2780 H   0  0  0  0  0  0
  -24.5585  -15.8546   20.5597 H   0  0  0  0  0  0
  -26.1751  -15.6657   20.1026 H   0  0  0  0  0  0
  -26.7150  -32.4020   23.0398 H   0  0  0  0  0  0
  -24.9367  -33.8919   24.9275 H   0  0  0  0  0  0
  -22.9311  -30.9400   21.1654 H   0  0  0  0  0  0
  -23.3708  -35.9260   23.3149 H   0  0  0  0  0  0
  -24.3539  -36.8809   22.2126 H   0  0  0  0  0  0
  -23.7199  -37.6046   23.6924 H   0  0  0  0  0  0
  -26.1591  -30.7163   20.9735 H   0  0  0  0  0  0
  -26.9001  -30.2366   22.3648 H   0  0  0  0  0  0
  -28.4678  -28.1474   21.5813 H   0  0  0  0  0  0
  -27.3039  -26.4737   19.3607 H   0  0  0  0  0  0
  -24.2244  -26.5495   18.6287 H   0  0  0  0  0  0
  -24.0725  -29.6734   19.4532 H   0  0  0  0  0  0
  -22.8881  -28.5898   20.0572 H   0  0  0  0  0  0
  -25.1372  -36.1180   25.0712 H   0  0  0  0  0  0
  -20.9471  -28.3100   24.1616 H   0  0  0  0  0  0
  -20.5186  -26.2171   23.3811 H   0  0  0  0  0  0
  -21.6397  -26.7086   22.1543 H   0  0  0  0  0  0
  -19.6782  -25.6236   21.1237 H   0  0  0  0  0  0
  -19.6706  -27.3158   20.6791 H   0  0  0  0  0  0
  -17.4079  -26.6746   21.3885 H   0  0  0  0  0  0
  -18.0060  -26.0080   22.8919 H   0  0  0  0  0  0
  -19.7879  -30.7179   24.2319 H   0  0  0  0  0  0
  -17.4987  -31.6301   24.5185 H   0  0  0  0  0  0
  -15.5291  -30.3117   23.7612 H   0  0  0  0  0  0
  -15.8500  -28.0949   22.6989 H   0  0  0  0  0  0
  -24.6125  -30.6846   25.7954 H   0  0  0  0  0  0
  -24.8315  -32.3287   26.3935 H   0  0  0  0  0  0
  -25.7732  -31.0119   27.0683 H   0  0  0  0  0  0
  -26.3843  -29.5599   24.3886 H   0  0  0  0  0  0
  -27.9781  -30.3433   24.1506 H   0  0  0  0  0  0
  -27.4542  -29.8443   25.7248 H   0  0  0  0  0  0
  -27.1916  -33.4326   26.1497 H   0  0  0  0  0  0
  -28.3633  -32.7398   25.0290 H   0  0  0  0  0  0
  -28.0441  -31.9774   26.5833 H   0  0  0  0  0  0
  -28.2426  -37.9922   24.7479 H   0  0  0  0  0  0
  -28.1053  -36.2439   24.6276 H   0  0  0  0  0  0
  -27.2248  -37.1139   25.8875 H   0  0  0  0  0  0
  -20.9805  -29.7865   21.6346 H   0  0  0  0  0  0
  -25.9944  -38.2424   24.1341 H   0  0  0  0  0  0
  -27.2951  -23.9158   19.3407 H   0  0  0  0  0  0
  -24.8041  -26.7029   22.7192 H   0  0  0  0  0  0
  -26.3127  -26.9317   23.6104 H   0  0  0  0  0  0
  -25.1029  -25.7235   24.0641 H   0  0  0  0  0  0
  -28.6973  -26.2851   26.3021 H   0  0  0  0  0  0
  -27.8709  -24.8865   26.9718 H   0  0  0  0  0  0
  -26.9704  -26.1032   26.0580 H   0  0  0  0  0  0
  -30.3313  -24.7507   25.0644 H   0  0  0  0  0  0
  -29.7211  -23.5864   23.8922 H   0  0  0  0  0  0
  -29.5034  -23.2859   25.6173 H   0  0  0  0  0  0
  -27.9525  -28.5366   15.5760 H   0  0  0  0  0  0
  -26.3978  -28.9550   16.2514 H   0  0  0  0  0  0
  -26.8601  -27.2600   16.0682 H   0  0  0  0  0  0
  -27.2216  -22.8544   24.7148 H   0  0  0  0  0  0
  -26.0972  -24.1174   24.9212 H   0  0  0  0  0  0
  -28.9849  -20.5668   19.6554 H   0  0  0  0  0  0
  -27.3813  -20.0530   19.8655 H   0  0  0  0  0  0
  -29.9928  -27.7131   17.5398 H   0  0  0  0  0  0
  -28.9141  -26.3893   17.2321 H   0  0  0  0  0  0
  -25.8792  -28.7449   18.4547 H   0  0  0  0  0  0
  -28.2888  -25.5830   24.0416 H   0  0  0  0  0  0
  -28.4508  -29.2129   17.5953 H   0  0  0  0  0  0
  -27.7830  -17.7868   20.6453 H   0  0  0  0  0  0
  -28.3007  -29.5945   19.6551 H   0  0  0  0  0  0
  -26.8117  -30.1176   20.0963 H   0  0  0  0  0  0
  -27.3279  -30.3208   18.5585 H   0  0  0  0  0  0
  1 25  1  0  0  0
  1 30  2  0  0  0
  1 87  1  0  0  0
  2  3  1  0  0  0
  2 25  1  0  0  0
  2 89  1  0  0  0
  2 90  1  0  0  0
  3  4  1  0  0  0
  3 91  1  0  0  0
  3 92  1  0  0  0
  4  5  1  0  0  0
  4 93  1  0  0  0
  4 94  1  0  0  0
  5  6  1  0  0  0
  5 26  1  0  0  0
  5 95  1  0  0  0
  6 25  1  0  0  0
  6 96  1  0  0  0
  6 97  1  0  0  0
  7  8  2  0  0  0
  7 26  1  0  0  0
  7 29  1  0  0  0
  8  9  1  0  0  0
  8 22  1  0  0  0
  9 10  1  0  0  0
  9 27  2  0  0  0
 10 11  2  0  0  0
 10 15  1  0  0  0
 11 12  1  0  0  0
 11 98  1  0  0  0
 12 13  2  0  0  0
 12 99  1  0  0  0
 13 14  1  0  0  0
 13 31  1  0  0  0
 14 15  2  0  0  0
 14100  1  0  0  0
 15101  1  0  0  0
 16 17  2  0  0  0
 16 21  1  0  0  0
 16 31  1  0  0  0
 17 18  1  0  0  0
 17102  1  0  0  0
 18 19  2  0  0  0
 18103  1  0  0  0
 19 20  1  0  0  0
 19 24  1  0  0  0
 20 21  2  0  0  0
 20104  1  0  0  0
 21 23  1  0  0  0
 22 28  1  0  0  0
 22 32  2  0  0  0
 26 27  1  0  0  0
 28105  1  0  0  0
 28106  1  0  0  0
 29107  1  0  0  0
 29108  1  0  0  0
 33 34  1  0  0  0
 33 66  1  0  0  0
 33 70  2  0  0  0
 34 36  1  0  0  0
 34 59  1  0  0  0
 34109  1  0  0  0
 35 44  2  0  0  0
 35 45  1  0  0  0
 35 68  1  0  0  0
 36 56  1  0  0  0
 36110  1  0  0  0
 37 39  1  0  0  0
 37 47  1  0  0  0
 37 66  1  0  0  0
 37111  1  0  0  0
 38 43  2  0  0  0
 38 46  1  0  0  0
 38 47  1  0  0  0
 39 64  1  0  0  0
 39 67  2  0  0  0
 40 52  1  0  0  0
 40 53  2  0  0  0
 40 58  1  0  0  0
 41112  1  0  0  0
 41113  1  0  0  0
 41114  1  0  0  0
 41 48  1  0  0  0
 42 43  1  0  0  0
 42 66  1  0  0  0
 42115  1  0  0  0
 42116  1  0  0  0
 43 44  1  0  0  0
 44117  1  0  0  0
 45 46  2  0  0  0
 45118  1  0  0  0
 46119  1  0  0  0
 47120  1  0  0  0
 47121  1  0  0  0
 48 56  1  0  0  0
 48 65  1  0  0  0
 48122  1  0  0  0
 49 50  1  0  0  0
 49 53  1  0  0  0
 49 64  1  0  0  0
 49123  1  0  0  0
 50 51  1  0  0  0
 50124  1  0  0  0
 50125  1  0  0  0
 51 52  1  0  0  0
 51126  1  0  0  0
 51127  1  0  0  0
 52128  1  0  0  0
 52129  1  0  0  0
 53 54  1  0  0  0
 54 55  2  0  0  0
 54130  1  0  0  0
 55 57  1  0  0  0
 55131  1  0  0  0
 56 69  2  0  0  0
 57 58  2  0  0  0
 57132  1  0  0  0
 58133  1  0  0  0
 59 60  1  0  0  0
 59 61  1  0  0  0
 59 62  1  0  0  0
 60134  1  0  0  0
 60135  1  0  0  0
 60136  1  0  0  0
 61137  1  0  0  0
 61138  1  0  0  0
 61139  1  0  0  0
 62140  1  0  0  0
 62141  1  0  0  0
 62142  1  0  0  0
 63 65  1  0  0  0
 63143  1  0  0  0
 63144  1  0  0  0
 63145  1  0  0  0
 64146  1  0  0  0
 65147  1  0  0  0
 68 82  1  0  0  0
 71 72  2  0  0  0
 71 74  1  0  0  0
 71148  1  0  0  0
 72 73  1  0  0  0
 72 83  1  0  0  0
 73 75  2  0  0  0
 73 76  1  0  0  0
 74 81  1  0  0  0
 74 86  2  0  0  0
 75 80  1  0  0  0
 75 86  1  0  0  0
 76149  1  0  0  0
 76150  1  0  0  0
 76151  1  0  0  0
 77152  1  0  0  0
 77153  1  0  0  0
 77154  1  0  0  0
 77 84  1  0  0  0
 78 84  1  0  0  0
 78155  1  0  0  0
 78156  1  0  0  0
 78157  1  0  0  0
 79158  1  0  0  0
 79159  1  0  0  0
 79160  1  0  0  0
 79 85  1  0  0  0
 80 84  1  0  0  0
 80161  1  0  0  0
 80162  1  0  0  0
 81 87  1  0  0  0
 81163  1  0  0  0
 81164  1  0  0  0
 82 85  1  0  0  0
 82165  1  0  0  0
 82166  1  0  0  0
 83 85  1  0  0  0
 83 88  1  0  0  0
 83167  1  0  0  0
 84168  1  0  0  0
 85169  1  0  0  0
 87170  1  0  0  0
 88171  1  0  0  0
 88172  1  0  0  0
 88173  1  0  0  0
M  CHG  1  88   1
M  ISO  4   1 100  68 101  82 101  87 100
M  END
> <chiral flag>
0

> <version>
0

> <s_m_source_file>
/data/baiqing/PycharmProjects/Reinvent-master-3.2/result/LINK_invent/BTK/process_docking_weight1_custom_sum_contain_oxygen_bond_distance_aromatic_linkinvent_7_9_3/rearranged_h_0099.sdf

> <i_m_source_file_index>
65

> <r_mmod_Potential_Energy-OPLS-2005>
15167.4853515625

> <r_mmod_Stretch_Energy-OPLS-2005>
8601.0234375

> <r_mmod_Bend_Energy-OPLS-2005>
1862.24743652344

> <r_mmod_Torsional_Energy-OPLS-2005>
364.954284667969

> <r_mmod_Improper_Torsional_Energy-OPLS-2005>
39.6614608764648

> <r_mmod_Van_der_Waal_Energy-OPLS-2005>
2277.98779296875

> <r_mmod_Electrostatic_Energy-OPLS-2005>
-543.393920898438

> <r_mmod_Solvation_Energy-OPLS-2005>
-541.987548828125

> <b_mmod_Minimization_Converged-OPLS-2005>
0

> <r_mmod_RMS_Derivative-OPLS-2005>
12.0359659194946

$$$$
65
                    3D
 Structure written by MMmdl.
168175  0  0  1  0            999 V2000
  -30.5900  -14.8794   20.5524 C   0  0  0  0  0  0
  -30.4340  -12.5580   19.5267 C   0  0  0  0  0  0
  -29.5292  -12.5709   18.2732 C   0  0  0  0  0  0
  -28.0567  -12.3562   18.6647 C   0  0  0  0  0  0
  -27.6420  -13.2456   19.8643 C   0  0  2  0  0  0
  -28.6712  -13.1828   21.0104 C   0  0  0  0  0  0
  -25.2515  -13.8292   20.5740 C   0  0  0  0  0  0
  -24.1786  -13.0494   20.9212 C   0  0  0  0  0  0
  -24.6395  -11.6975   20.8749 C   0  0  0  0  0  0
  -23.9049  -10.4319   21.0417 C   0  0  0  0  0  0
  -24.3590   -9.4207   21.9187 C   0  0  0  0  0  0
  -23.6283   -8.2229   22.0762 C   0  0  0  0  0  0
  -22.4275   -8.0282   21.3546 C   0  0  0  0  0  0
  -21.9892   -9.0267   20.4663 C   0  0  0  0  0  0
  -22.7215  -10.2158   20.3066 C   0  0  0  0  0  0
  -21.6855   -6.0736   22.5267 C   0  0  0  0  0  0
  -21.4035   -6.5632   23.8200 C   0  0  0  0  0  0
  -21.3639   -5.6771   24.9151 C   0  0  0  0  0  0
  -21.6035   -4.3037   24.7202 C   0  0  0  0  0  0
  -21.8811   -3.8133   23.4321 C   0  0  0  0  0  0
  -21.9181   -4.6962   22.3388 C   0  0  0  0  0  0
  -22.7808  -13.5283   21.1819 C   0  0  0  0  0  0
  -22.1675   -4.2161   21.0973 F   0  0  0  0  0  0
  -21.5599   -3.4508   25.7701 F   0  0  0  0  0  0
  -29.9667  -13.6265   20.4686 N   0  0  0  0  0  0
  -26.2921  -12.9480   20.3320 N   0  0  0  0  0  0
  -25.9340  -11.6597   20.5775 N   0  0  0  0  0  0
  -22.0429  -12.8275   22.0376 N   0  0  0  0  0  0
  -25.4256  -15.2009   20.4270 N   0  0  0  0  0  0
  -31.6983  -14.9366   20.0052 O   0  0  0  0  0  0
  -21.6658   -6.8884   21.4224 O   0  0  0  0  0  0
  -22.3454  -14.5567   20.6689 O   0  0  0  0  0  0
  -24.6394  -31.8469   23.1911 C   0  0  0  0  0  0
  -25.9177  -32.4725   23.8300 C   0  0  1  0  0  0
  -27.2176  -27.1844   20.1770 C   0  0  0  0  0  0
  -25.5936  -33.8524   24.2222 N   0  0  0  0  0  0
  -23.4401  -30.4686   21.5329 C   0  0  2  0  0  0
  -24.8931  -28.9045   20.1082 C   0  0  0  0  0  0
  -22.7526  -29.4573   22.4825 C   0  0  0  0  0  0
  -18.0297  -28.1394   22.8445 C   0  0  0  0  0  0
  -24.1487  -36.7255   23.2627 C   0  0  0  0  0  0
  -25.9913  -30.7431   21.3810 C   0  0  0  0  0  0
  -26.0654  -29.3592   20.7252 C   0  0  0  0  0  0
  -27.2326  -28.5162   20.7373 C   0  0  0  0  0  0
  -26.0281  -26.8175   19.5145 C   0  0  0  0  0  0
  -24.8883  -27.6495   19.4805 C   0  0  0  0  0  0
  -23.6658  -29.7982   20.1515 C   0  0  0  0  0  0
  -25.4125  -36.3030   24.0306 C   0  0  1  0  0  0
  -20.5901  -28.3716   23.1195 C   0  0  2  0  0  0
  -20.6810  -26.9447   22.5322 C   0  0  0  0  0  0
  -19.5798  -26.6487   21.5121 C   0  0  0  0  0  0
  -18.1954  -26.7989   22.1507 C   0  0  0  0  0  0
  -19.1551  -28.8871   23.2828 C   0  0  0  0  0  0
  -18.9455  -30.1414   23.8915 C   0  0  0  0  0  0
  -17.6481  -30.6564   24.0577 C   0  0  0  0  0  0
  -25.9073  -34.9410   23.5079 C   0  0  0  0  0  0
  -16.5362  -29.9076   23.6347 C   0  0  0  0  0  0
  -16.7282  -28.6498   23.0352 C   0  0  0  0  0  0
  -26.4547  -31.6557   25.0700 C   0  0  0  0  0  0
  -25.3732  -31.3721   26.1399 C   0  0  0  0  0  0
  -27.0369  -30.2947   24.6199 C   0  0  0  0  0  0
  -27.6091  -32.4313   25.7471 C   0  0  0  0  0  0
  -27.5582  -37.1790   24.8462 C   0  0  0  0  0  0
  -21.4229  -29.3044   22.3566 N   0  0  0  0  0  0
  -26.4291  -37.3757   23.9399 N   0  0  0  0  0  0
  -24.7084  -31.0384   22.0914 N   0  0  0  0  0  0
  -23.4146  -28.8114   23.2976 O   0  0  0  0  0  0
  -28.2855  -26.2353   20.2176 O   0  0  0  0  0  0
  -26.5646  -34.8914   22.4641 O   0  0  0  0  0  0
  -23.5521  -32.1341   23.7159 O   0  0  0  0  0  0
  -29.3153  -20.0141   17.6985 C   0  0  0  0  0  0
  -27.1826  -19.4250   18.9635 C   0  0  0  0  0  0
  -27.0742  -21.8594   21.5094 C   0  0  0  0  0  0
  -31.4123  -17.0136   21.7655 C   0  0  0  0  0  0
  -29.4591  -15.8265   22.6791 C   0  0  0  0  0  0
  -28.8214  -23.3971   20.3153 C   0  0  0  0  0  0
  -29.3890  -20.4828   20.9805 C   0  0  0  0  0  0
  -29.1355  -17.4999   20.7553 C   0  0  0  0  0  0
  -28.0289  -24.8066   20.7219 C   0  0  0  0  0  0
  -28.6779  -19.1136   18.7753 C   0  0  0  0  0  0
  -28.5804  -21.9720   21.1474 C   0  0  2  0  0  0
  -29.4615  -19.0274   20.1296 C   0  0  1  0  0  0
  -30.1160  -16.2759   21.3479 C   0  0  0  0  0  0
  -30.3928  -11.5832   20.0138 H   0  0  0  0  0  0
  -31.4771  -12.6845   19.2351 H   0  0  0  0  0  0
  -29.8541  -11.8054   17.5655 H   0  0  0  0  0  0
  -29.6335  -13.5317   17.7680 H   0  0  0  0  0  0
  -27.9203  -11.3049   18.9153 H   0  0  0  0  0  0
  -27.4081  -12.5444   17.8124 H   0  0  0  0  0  0
  -27.6382  -14.2742   19.4990 H   0  0  0  0  0  0
  -28.3018  -13.7857   21.8242 H   0  0  0  0  0  0
  -28.7488  -12.1774   21.4272 H   0  0  0  0  0  0
  -25.2751   -9.5672   22.4742 H   0  0  0  0  0  0
  -24.0004   -7.4608   22.7474 H   0  0  0  0  0  0
  -21.0828   -8.8793   19.8983 H   0  0  0  0  0  0
  -22.3685  -10.9709   19.6159 H   0  0  0  0  0  0
  -21.2110   -7.6156   23.9727 H   0  0  0  0  0  0
  -21.1468   -6.0506   25.9059 H   0  0  0  0  0  0
  -22.0626   -2.7603   23.2815 H   0  0  0  0  0  0
  -22.3992  -11.9964   22.4821 H   0  0  0  0  0  0
  -21.1062  -13.1342   22.2552 H   0  0  0  0  0  0
  -24.6847  -15.8700   20.6088 H   0  0  0  0  0  0
  -26.3023  -15.6434   20.1796 H   0  0  0  0  0  0
  -26.7222  -32.5359   23.1025 H   0  0  0  0  0  0
  -25.0059  -33.9681   25.0358 H   0  0  0  0  0  0
  -22.7382  -31.2909   21.3785 H   0  0  0  0  0  0
  -23.3781  -35.9564   23.3301 H   0  0  0  0  0  0
  -24.3546  -36.8888   22.2033 H   0  0  0  0  0  0
  -23.7249  -37.6454   23.6667 H   0  0  0  0  0  0
  -26.1347  -31.5022   20.6120 H   0  0  0  0  0  0
  -26.8665  -30.7909   22.0168 H   0  0  0  0  0  0
  -28.1324  -28.8644   21.2274 H   0  0  0  0  0  0
  -25.9659  -25.8580   19.0240 H   0  0  0  0  0  0
  -24.0011  -27.3091   18.9665 H   0  0  0  0  0  0
  -23.7857  -30.5707   19.3910 H   0  0  0  0  0  0
  -22.7886  -29.2221   19.8493 H   0  0  0  0  0  0
  -25.1327  -36.1880   25.0808 H   0  0  0  0  0  0
  -20.9949  -28.3287   24.1328 H   0  0  0  0  0  0
  -20.5763  -26.2305   23.3483 H   0  0  0  0  0  0
  -21.6677  -26.7576   22.1031 H   0  0  0  0  0  0
  -19.6932  -25.6424   21.1086 H   0  0  0  0  0  0
  -19.6812  -27.3372   20.6690 H   0  0  0  0  0  0
  -17.4295  -26.6815   21.3831 H   0  0  0  0  0  0
  -18.0238  -26.0077   22.8800 H   0  0  0  0  0  0
  -19.7934  -30.7187   24.2333 H   0  0  0  0  0  0
  -17.5065  -31.6246   24.5167 H   0  0  0  0  0  0
  -15.5370  -30.2988   23.7681 H   0  0  0  0  0  0
  -15.8680  -28.0819   22.7084 H   0  0  0  0  0  0
  -24.5928  -30.7057   25.7721 H   0  0  0  0  0  0
  -24.8914  -32.2869   26.4818 H   0  0  0  0  0  0
  -25.8035  -30.8900   27.0178 H   0  0  0  0  0  0
  -26.2917  -29.6708   24.1238 H   0  0  0  0  0  0
  -27.4022  -29.7241   25.4753 H   0  0  0  0  0  0
  -27.8841  -30.4220   23.9455 H   0  0  0  0  0  0
  -27.2702  -33.3646   26.2011 H   0  0  0  0  0  0
  -28.3918  -32.6841   25.0287 H   0  0  0  0  0  0
  -28.0728  -31.8439   26.5416 H   0  0  0  0  0  0
  -28.2613  -38.0086   24.7505 H   0  0  0  0  0  0
  -28.1078  -36.2606   24.6318 H   0  0  0  0  0  0
  -27.2254  -37.1449   25.8857 H   0  0  0  0  0  0
  -20.9436  -29.8753   21.6754 H   0  0  0  0  0  0
  -26.0167  -38.2819   24.1478 H   0  0  0  0  0  0
  -28.7827  -19.9200   16.7519 H   0  0  0  0  0  0
  -30.3465  -19.7133   17.5116 H   0  0  0  0  0  0
  -29.3030  -21.0712   17.9658 H   0  0  0  0  0  0
  -26.5889  -19.0503   18.1306 H   0  0  0  0  0  0
  -27.0128  -20.5008   19.0046 H   0  0  0  0  0  0
  -26.7795  -18.9772   19.8744 H   0  0  0  0  0  0
  -26.8518  -21.0146   22.1604 H   0  0  0  0  0  0
  -26.4338  -21.7780   20.6336 H   0  0  0  0  0  0
  -26.7378  -22.7391   22.0591 H   0  0  0  0  0  0
  -32.0877  -16.3585   22.3184 H   0  0  0  0  0  0
  -31.9600  -17.3951   20.9036 H   0  0  0  0  0  0
  -31.2034  -17.8688   22.4109 H   0  0  0  0  0  0
  -28.3735  -15.7984   22.5797 H   0  0  0  0  0  0
  -29.7868  -14.8400   23.0065 H   0  0  0  0  0  0
  -29.6642  -16.5005   23.5086 H   0  0  0  0  0  0
  -28.5877  -23.1958   19.2704 H   0  0  0  0  0  0
  -29.8898  -23.6111   20.3358 H   0  0  0  0  0  0
  -29.6961  -20.9306   20.0438 H   0  0  0  0  0  0
  -28.4525  -20.0186   21.2717 H   0  0  0  0  0  0
  -28.5038  -16.9701   20.0421 H   0  0  0  0  0  0
  -28.4161  -17.7344   21.5367 H   0  0  0  0  0  0
  -28.1607  -24.8964   21.8007 H   0  0  0  0  0  0
  -26.9692  -24.5934   20.5939 H   0  0  0  0  0  0
  -28.7305  -18.1280   18.3167 H   0  0  0  0  0  0
  -28.9949  -22.2678   22.1133 H   0  0  0  0  0  0
  -30.5084  -18.9460   19.8350 H   0  0  0  0  0  0
  1 25  1  0  0  0
  1 30  2  0  0  0
  1 83  1  0  0  0
  2  3  1  0  0  0
  2 25  1  0  0  0
  2 84  1  0  0  0
  2 85  1  0  0  0
  3  4  1  0  0  0
  3 86  1  0  0  0
  3 87  1  0  0  0
  4  5  1  0  0  0
  4 88  1  0  0  0
  4 89  1  0  0  0
  5  6  1  0  0  0
  5 26  1  0  0  0
  5 90  1  0  0  0
  6 25  1  0  0  0
  6 91  1  0  0  0
  6 92  1  0  0  0
  7  8  2  0  0  0
  7 26  1  0  0  0
  7 29  1  0  0  0
  8  9  1  0  0  0
  8 22  1  0  0  0
  9 10  1  0  0  0
  9 27  2  0  0  0
 10 11  2  0  0  0
 10 15  1  0  0  0
 11 12  1  0  0  0
 11 93  1  0  0  0
 12 13  2  0  0  0
 12 94  1  0  0  0
 13 14  1  0  0  0
 13 31  1  0  0  0
 14 15  2  0  0  0
 14 95  1  0  0  0
 15 96  1  0  0  0
 16 17  2  0  0  0
 16 21  1  0  0  0
 16 31  1  0  0  0
 17 18  1  0  0  0
 17 97  1  0  0  0
 18 19  2  0  0  0
 18 98  1  0  0  0
 19 20  1  0  0  0
 19 24  1  0  0  0
 20 21  2  0  0  0
 20 99  1  0  0  0
 21 23  1  0  0  0
 22 28  1  0  0  0
 22 32  2  0  0  0
 26 27  1  0  0  0
 28100  1  0  0  0
 28101  1  0  0  0
 29102  1  0  0  0
 29103  1  0  0  0
 33 34  1  0  0  0
 33 66  1  0  0  0
 33 70  2  0  0  0
 34 36  1  0  0  0
 34 59  1  0  0  0
 34104  1  0  0  0
 35 44  2  0  0  0
 35 45  1  0  0  0
 35 68  1  0  0  0
 36 56  1  0  0  0
 36105  1  0  0  0
 37 39  1  0  0  0
 37 47  1  0  0  0
 37 66  1  0  0  0
 37106  1  0  0  0
 38 43  2  0  0  0
 38 46  1  0  0  0
 38 47  1  0  0  0
 39 64  1  0  0  0
 39 67  2  0  0  0
 40 52  1  0  0  0
 40 53  2  0  0  0
 40 58  1  0  0  0
 41107  1  0  0  0
 41108  1  0  0  0
 41109  1  0  0  0
 41 48  1  0  0  0
 42 43  1  0  0  0
 42 66  1  0  0  0
 42110  1  0  0  0
 42111  1  0  0  0
 43 44  1  0  0  0
 44112  1  0  0  0
 45 46  2  0  0  0
 45113  1  0  0  0
 46114  1  0  0  0
 47115  1  0  0  0
 47116  1  0  0  0
 48 56  1  0  0  0
 48 65  1  0  0  0
 48117  1  0  0  0
 49 50  1  0  0  0
 49 53  1  0  0  0
 49 64  1  0  0  0
 49118  1  0  0  0
 50 51  1  0  0  0
 50119  1  0  0  0
 50120  1  0  0  0
 51 52  1  0  0  0
 51121  1  0  0  0
 51122  1  0  0  0
 52123  1  0  0  0
 52124  1  0  0  0
 53 54  1  0  0  0
 54 55  2  0  0  0
 54125  1  0  0  0
 55 57  1  0  0  0
 55126  1  0  0  0
 56 69  2  0  0  0
 57 58  2  0  0  0
 57127  1  0  0  0
 58128  1  0  0  0
 59 60  1  0  0  0
 59 61  1  0  0  0
 59 62  1  0  0  0
 60129  1  0  0  0
 60130  1  0  0  0
 60131  1  0  0  0
 61132  1  0  0  0
 61133  1  0  0  0
 61134  1  0  0  0
 62135  1  0  0  0
 62136  1  0  0  0
 62137  1  0  0  0
 63 65  1  0  0  0
 63138  1  0  0  0
 63139  1  0  0  0
 63140  1  0  0  0
 64141  1  0  0  0
 65142  1  0  0  0
 68 79  1  0  0  0
 71143  1  0  0  0
 71144  1  0  0  0
 71145  1  0  0  0
 71 80  1  0  0  0
 72 80  1  0  0  0
 72146  1  0  0  0
 72147  1  0  0  0
 72148  1  0  0  0
 73149  1  0  0  0
 73150  1  0  0  0
 73151  1  0  0  0
 73 81  1  0  0  0
 74152  1  0  0  0
 74153  1  0  0  0
 74154  1  0  0  0
 74 83  1  0  0  0
 75 83  1  0  0  0
 75155  1  0  0  0
 75156  1  0  0  0
 75157  1  0  0  0
 76 79  1  0  0  0
 76 81  1  0  0  0
 76158  1  0  0  0
 76159  1  0  0  0
 77 81  1  0  0  0
 77160  1  0  0  0
 77161  1  0  0  0
 77 82  1  0  0  0
 78 82  1  0  0  0
 78 83  1  0  0  0
 78162  1  0  0  0
 78163  1  0  0  0
 79164  1  0  0  0
 79165  1  0  0  0
 80 82  1  0  0  0
 80166  1  0  0  0
 81167  1  0  0  0
 82168  1  0  0  0
M  ISO  4   1 100  68 101  79 101  83 100
M  END
> <chiral flag>
0

> <version>
0

> <s_m_source_file>
/data/baiqing/PycharmProjects/Reinvent-master-3.2/result/LINK_invent/BTK/process_docking_weight1_custom_sum_contain_oxygen_bond_distance_aromatic_linkinvent_7_9_3/rearranged_h_0099.sdf

> <i_m_source_file_index>
66

> <r_mmod_Potential_Energy-OPLS-2005>
919.015625

> <r_mmod_Stretch_Energy-OPLS-2005>
270.060791015625

> <r_mmod_Bend_Energy-OPLS-2005>
567.923950195312

> <r_mmod_Torsional_Energy-OPLS-2005>
261.310272216797

> <r_mmod_Improper_Torsional_Energy-OPLS-2005>
2.02613520622253

> <r_mmod_Van_der_Waal_Energy-OPLS-2005>
148.814407348633

> <r_mmod_Electrostatic_Energy-OPLS-2005>
-304.350372314453

> <r_mmod_Solvation_Energy-OPLS-2005>
-167.749420166016

> <b_mmod_Minimization_Converged-OPLS-2005>
0

> <r_mmod_RMS_Derivative-OPLS-2005>
6.23148393630981

$$$$
66
                    3D
 Structure written by MMmdl.
160168  0  0  1  0            999 V2000
  -30.5406  -14.9794   20.4171 C   0  0  0  0  0  0
  -30.4386  -12.6125   19.5006 C   0  0  0  0  0  0
  -29.5218  -12.5222   18.2588 C   0  0  0  0  0  0
  -28.0562  -12.3031   18.6808 C   0  0  0  0  0  0
  -27.6248  -13.2489   19.8305 C   0  0  2  0  0  0
  -28.6645  -13.3026   20.9686 C   0  0  0  0  0  0
  -25.2425  -13.8196   20.5701 C   0  0  0  0  0  0
  -24.1753  -13.0421   20.9227 C   0  0  0  0  0  0
  -24.6365  -11.6908   20.8749 C   0  0  0  0  0  0
  -23.9048  -10.4284   21.0400 C   0  0  0  0  0  0
  -24.3603   -9.4207   21.9179 C   0  0  0  0  0  0
  -23.6287   -8.2239   22.0749 C   0  0  0  0  0  0
  -22.4279   -8.0261   21.3528 C   0  0  0  0  0  0
  -21.9900   -9.0233   20.4635 C   0  0  0  0  0  0
  -22.7219  -10.2117   20.3046 C   0  0  0  0  0  0
  -21.6852   -6.0725   22.5272 C   0  0  0  0  0  0
  -21.4015   -6.5629   23.8204 C   0  0  0  0  0  0
  -21.3668   -5.6783   24.9166 C   0  0  0  0  0  0
  -21.6042   -4.3042   24.7217 C   0  0  0  0  0  0
  -21.8825   -3.8138   23.4339 C   0  0  0  0  0  0
  -21.9188   -4.6953   22.3397 C   0  0  0  0  0  0
  -22.7780  -13.5190   21.1892 C   0  0  0  0  0  0
  -22.1660   -4.2137   21.0979 F   0  0  0  0  0  0
  -21.5633   -3.4529   25.7735 F   0  0  0  0  0  0
  -29.9355  -13.7224   20.3622 N   0  0  0  0  0  0
  -26.2847  -12.9442   20.3200 N   0  0  0  0  0  0
  -25.9295  -11.6568   20.5719 N   0  0  0  0  0  0
  -22.0426  -12.8189   22.0441 N   0  0  0  0  0  0
  -25.4067  -15.1932   20.4165 N   0  0  0  0  0  0
  -31.7528  -15.0208   20.1862 O   0  0  0  0  0  0
  -21.6632   -6.8865   21.4233 O   0  0  0  0  0  0
  -22.3484  -14.5505   20.6733 O   0  0  0  0  0  0
  -24.6455  -31.8441   23.1880 C   0  0  0  0  0  0
  -25.9224  -32.4702   23.8263 C   0  0  1  0  0  0
  -27.2273  -27.1241   20.1641 C   0  0  0  0  0  0
  -25.5964  -33.8503   24.2199 N   0  0  0  0  0  0
  -23.4488  -30.4642   21.5326 C   0  0  2  0  0  0
  -24.8987  -28.8781   20.1198 C   0  0  0  0  0  0
  -22.7578  -29.4574   22.4867 C   0  0  0  0  0  0
  -18.0327  -28.1400   22.8502 C   0  0  0  0  0  0
  -24.1477  -36.7244   23.2650 C   0  0  0  0  0  0
  -26.0052  -30.7169   21.3831 C   0  0  0  0  0  0
  -26.0785  -29.3226   20.7315 C   0  0  0  0  0  0
  -27.2442  -28.4644   20.7303 C   0  0  0  0  0  0
  -26.0206  -26.7806   19.5166 C   0  0  0  0  0  0
  -24.8818  -27.6185   19.4992 C   0  0  0  0  0  0
  -23.6757  -29.7849   20.1560 C   0  0  0  0  0  0
  -25.4109  -36.3030   24.0332 C   0  0  1  0  0  0
  -20.5947  -28.3739   23.1249 C   0  0  2  0  0  0
  -20.6810  -26.9436   22.5427 C   0  0  0  0  0  0
  -19.5767  -26.6391   21.5246 C   0  0  0  0  0  0
  -18.1953  -26.7948   22.1644 C   0  0  0  0  0  0
  -19.1590  -28.8884   23.2869 C   0  0  0  0  0  0
  -18.9495  -30.1486   23.8881 C   0  0  0  0  0  0
  -17.6492  -30.6609   24.0573 C   0  0  0  0  0  0
  -25.9060  -34.9409   23.5072 C   0  0  0  0  0  0
  -16.5380  -29.9098   23.6353 C   0  0  0  0  0  0
  -16.7311  -28.6514   23.0375 C   0  0  0  0  0  0
  -26.4533  -31.6568   25.0707 C   0  0  0  0  0  0
  -25.3734  -31.3778   26.1424 C   0  0  0  0  0  0
  -27.0411  -30.2968   24.6291 C   0  0  0  0  0  0
  -27.6045  -32.4344   25.7521 C   0  0  0  0  0  0
  -27.5563  -37.1784   24.8473 C   0  0  0  0  0  0
  -21.4275  -29.3056   22.3593 N   0  0  0  0  0  0
  -26.4262  -37.3753   23.9426 N   0  0  0  0  0  0
  -24.7202  -31.0295   22.0898 N   0  0  0  0  0  0
  -23.4213  -28.8143   23.3049 O   0  0  0  0  0  0
  -28.2942  -26.1463   20.1644 O   0  0  0  0  0  0
  -26.5639  -34.8907   22.4650 O   0  0  0  0  0  0
  -23.5577  -32.1307   23.7108 O   0  0  0  0  0  0
  -30.7594  -21.8650   22.7515 C   0  0  0  0  0  0
  -30.2410  -22.7442   21.8707 C   0  0  0  0  0  0
  -30.3266  -20.5671   22.3998 C   0  0  0  0  0  0
  -29.6498  -20.6024   21.1864 C   0  0  0  0  0  0
  -30.6253  -19.3995   23.3091 C   0  0  0  0  0  0
  -29.5029  -19.9283   18.1566 C   0  0  0  0  0  0
  -28.6885  -23.1580   20.0355 C   0  0  0  0  0  0
  -30.2243  -17.7211   20.5593 C   0  0  0  0  0  0
  -28.0899  -24.6597   20.6192 C   0  0  0  0  0  0
  -29.2343  -19.1335   20.5187 C   0  0  2  0  0  0
  -29.4194  -22.0979   20.9596 N   0  0  0  0  0  0
  -29.7846  -16.1886   20.5264 N   0  0  0  0  0  0
  -28.6458  -19.2851   19.1743 N   0  3  0  0  0  0
  -31.4695  -12.7775   19.1857 H   0  0  0  0  0  0
  -30.4421  -11.6697   20.0516 H   0  0  0  0  0  0
  -29.8464  -11.7079   17.6103 H   0  0  0  0  0  0
  -29.6058  -13.4380   17.6709 H   0  0  0  0  0  0
  -27.9647  -11.2673   19.0078 H   0  0  0  0  0  0
  -27.3913  -12.4145   17.8220 H   0  0  0  0  0  0
  -27.5802  -14.2443   19.3885 H   0  0  0  0  0  0
  -28.7616  -12.3337   21.4622 H   0  0  0  0  0  0
  -28.3557  -14.0130   21.7367 H   0  0  0  0  0  0
  -25.2738   -9.5688   22.4765 H   0  0  0  0  0  0
  -23.9981   -7.4634   22.7477 H   0  0  0  0  0  0
  -21.0826   -8.8746   19.8957 H   0  0  0  0  0  0
  -22.3656  -10.9655   19.6163 H   0  0  0  0  0  0
  -21.2015   -7.6135   23.9703 H   0  0  0  0  0  0
  -21.1485   -6.0510   25.9066 H   0  0  0  0  0  0
  -22.0600   -2.7594   23.2838 H   0  0  0  0  0  0
  -22.4050  -11.9856   22.4847 H   0  0  0  0  0  0
  -21.1035  -13.1218   22.2642 H   0  0  0  0  0  0
  -24.6268  -15.8331   20.5285 H   0  0  0  0  0  0
  -26.2347  -15.6366   20.0459 H   0  0  0  0  0  0
  -26.7293  -32.5308   23.0990 H   0  0  0  0  0  0
  -25.0122  -33.9600   25.0358 H   0  0  0  0  0  0
  -22.7530  -31.2926   21.3772 H   0  0  0  0  0  0
  -23.3745  -35.9567   23.3304 H   0  0  0  0  0  0
  -24.3565  -36.8881   22.2065 H   0  0  0  0  0  0
  -23.7214  -37.6438   23.6681 H   0  0  0  0  0  0
  -26.1564  -31.4687   20.6082 H   0  0  0  0  0  0
  -26.8763  -30.7732   22.0240 H   0  0  0  0  0  0
  -28.1458  -28.8094   21.2145 H   0  0  0  0  0  0
  -25.9427  -25.8199   19.0282 H   0  0  0  0  0  0
  -23.9790  -27.2725   19.0124 H   0  0  0  0  0  0
  -23.8107  -30.5556   19.3961 H   0  0  0  0  0  0
  -22.7880  -29.2286   19.8479 H   0  0  0  0  0  0
  -25.1294  -36.1855   25.0821 H   0  0  0  0  0  0
  -21.0051  -28.3336   24.1365 H   0  0  0  0  0  0
  -20.5739  -26.2349   23.3652 H   0  0  0  0  0  0
  -21.6669  -26.7458   22.1195 H   0  0  0  0  0  0
  -19.6913  -25.6301   21.1280 H   0  0  0  0  0  0
  -19.6688  -27.3208   20.6780 H   0  0  0  0  0  0
  -17.4232  -26.6752   21.4026 H   0  0  0  0  0  0
  -18.0293  -26.0085   22.9023 H   0  0  0  0  0  0
  -19.7969  -30.7329   24.2211 H   0  0  0  0  0  0
  -17.5044  -31.6282   24.5180 H   0  0  0  0  0  0
  -15.5379  -30.2988   23.7686 H   0  0  0  0  0  0
  -15.8716  -28.0827   22.7082 H   0  0  0  0  0  0
  -24.5908  -30.7105   25.7802 H   0  0  0  0  0  0
  -24.8917  -32.2965   26.4779 H   0  0  0  0  0  0
  -25.8038  -30.9039   27.0253 H   0  0  0  0  0  0
  -26.3040  -29.6691   24.1268 H   0  0  0  0  0  0
  -27.4013  -29.7266   25.4867 H   0  0  0  0  0  0
  -27.8946  -30.4233   23.9624 H   0  0  0  0  0  0
  -27.2607  -33.3667   26.2018 H   0  0  0  0  0  0
  -28.3907  -32.6869   25.0395 H   0  0  0  0  0  0
  -28.0635  -31.8514   26.5515 H   0  0  0  0  0  0
  -28.2591  -38.0073   24.7516 H   0  0  0  0  0  0
  -28.1039  -36.2606   24.6288 H   0  0  0  0  0  0
  -27.2285  -37.1434   25.8878 H   0  0  0  0  0  0
  -20.9480  -29.8714   21.6725 H   0  0  0  0  0  0
  -26.0126  -38.2819   24.1433 H   0  0  0  0  0  0
  -31.3645  -22.1400   23.6081 H   0  0  0  0  0  0
  -30.3580  -23.8199   21.8597 H   0  0  0  0  0  0
  -29.8774  -18.6099   23.2347 H   0  0  0  0  0  0
  -30.6222  -19.7262   24.3499 H   0  0  0  0  0  0
  -31.6189  -18.9981   23.1083 H   0  0  0  0  0  0
  -28.9896  -19.9334   17.1945 H   0  0  0  0  0  0
  -30.4482  -19.4030   18.0268 H   0  0  0  0  0  0
  -29.7233  -20.9622   18.4111 H   0  0  0  0  0  0
  -29.3886  -23.3879   19.2317 H   0  0  0  0  0  0
  -27.8660  -22.6438   19.5395 H   0  0  0  0  0  0
  -30.9633  -17.8356   19.7668 H   0  0  0  0  0  0
  -30.8445  -17.7513   21.4466 H   0  0  0  0  0  0
  -28.3684  -24.7090   21.6708 H   0  0  0  0  0  0
  -27.0127  -24.5151   20.6814 H   0  0  0  0  0  0
  -28.3795  -18.8230   21.1197 H   0  0  0  0  0  0
  -28.7945  -16.0328   20.6416 H   0  0  0  0  0  0
  -28.3917  -18.3689   18.8428 H   0  0  0  0  0  0
  -27.7934  -19.8114   19.2632 H   0  0  0  0  0  0
  1 25  1  0  0  0
  1 30  2  0  0  0
  1 82  1  0  0  0
  2  3  1  0  0  0
  2 25  1  0  0  0
  2 84  1  0  0  0
  2 85  1  0  0  0
  3  4  1  0  0  0
  3 86  1  0  0  0
  3 87  1  0  0  0
  4  5  1  0  0  0
  4 88  1  0  0  0
  4 89  1  0  0  0
  5  6  1  0  0  0
  5 26  1  0  0  0
  5 90  1  0  0  0
  6 25  1  0  0  0
  6 91  1  0  0  0
  6 92  1  0  0  0
  7  8  2  0  0  0
  7 26  1  0  0  0
  7 29  1  0  0  0
  8  9  1  0  0  0
  8 22  1  0  0  0
  9 10  1  0  0  0
  9 27  2  0  0  0
 10 11  2  0  0  0
 10 15  1  0  0  0
 11 12  1  0  0  0
 11 93  1  0  0  0
 12 13  2  0  0  0
 12 94  1  0  0  0
 13 14  1  0  0  0
 13 31  1  0  0  0
 14 15  2  0  0  0
 14 95  1  0  0  0
 15 96  1  0  0  0
 16 17  2  0  0  0
 16 21  1  0  0  0
 16 31  1  0  0  0
 17 18  1  0  0  0
 17 97  1  0  0  0
 18 19  2  0  0  0
 18 98  1  0  0  0
 19 20  1  0  0  0
 19 24  1  0  0  0
 20 21  2  0  0  0
 20 99  1  0  0  0
 21 23  1  0  0  0
 22 28  1  0  0  0
 22 32  2  0  0  0
 26 27  1  0  0  0
 28100  1  0  0  0
 28101  1  0  0  0
 29102  1  0  0  0
 29103  1  0  0  0
 33 34  1  0  0  0
 33 66  1  0  0  0
 33 70  2  0  0  0
 34 36  1  0  0  0
 34 59  1  0  0  0
 34104  1  0  0  0
 35 44  2  0  0  0
 35 45  1  0  0  0
 35 68  1  0  0  0
 36 56  1  0  0  0
 36105  1  0  0  0
 37 39  1  0  0  0
 37 47  1  0  0  0
 37 66  1  0  0  0
 37106  1  0  0  0
 38 43  2  0  0  0
 38 46  1  0  0  0
 38 47  1  0  0  0
 39 64  1  0  0  0
 39 67  2  0  0  0
 40 52  1  0  0  0
 40 53  2  0  0  0
 40 58  1  0  0  0
 41107  1  0  0  0
 41108  1  0  0  0
 41109  1  0  0  0
 41 48  1  0  0  0
 42 43  1  0  0  0
 42 66  1  0  0  0
 42110  1  0  0  0
 42111  1  0  0  0
 43 44  1  0  0  0
 44112  1  0  0  0
 45 46  2  0  0  0
 45113  1  0  0  0
 46114  1  0  0  0
 47115  1  0  0  0
 47116  1  0  0  0
 48 56  1  0  0  0
 48 65  1  0  0  0
 48117  1  0  0  0
 49 50  1  0  0  0
 49 53  1  0  0  0
 49 64  1  0  0  0
 49118  1  0  0  0
 50 51  1  0  0  0
 50119  1  0  0  0
 50120  1  0  0  0
 51 52  1  0  0  0
 51121  1  0  0  0
 51122  1  0  0  0
 52123  1  0  0  0
 52124  1  0  0  0
 53 54  1  0  0  0
 54 55  2  0  0  0
 54125  1  0  0  0
 55 57  1  0  0  0
 55126  1  0  0  0
 56 69  2  0  0  0
 57 58  2  0  0  0
 57127  1  0  0  0
 58128  1  0  0  0
 59 60  1  0  0  0
 59 61  1  0  0  0
 59 62  1  0  0  0
 60129  1  0  0  0
 60130  1  0  0  0
 60131  1  0  0  0
 61132  1  0  0  0
 61133  1  0  0  0
 61134  1  0  0  0
 62135  1  0  0  0
 62136  1  0  0  0
 62137  1  0  0  0
 63 65  1  0  0  0
 63138  1  0  0  0
 63139  1  0  0  0
 63140  1  0  0  0
 64141  1  0  0  0
 65142  1  0  0  0
 68 79  1  0  0  0
 71 72  2  0  0  0
 71 73  1  0  0  0
 71143  1  0  0  0
 72 81  1  0  0  0
 72144  1  0  0  0
 73 74  2  0  0  0
 73 75  1  0  0  0
 74 80  1  0  0  0
 74 81  1  0  0  0
 75145  1  0  0  0
 75146  1  0  0  0
 75147  1  0  0  0
 76 83  1  0  0  0
 76148  1  0  0  0
 76149  1  0  0  0
 76150  1  0  0  0
 77 79  1  0  0  0
 77 81  1  0  0  0
 77151  1  0  0  0
 77152  1  0  0  0
 78 82  1  0  0  0
 78153  1  0  0  0
 78154  1  0  0  0
 78 80  1  0  0  0
 79155  1  0  0  0
 79156  1  0  0  0
 80 83  1  0  0  0
 80157  1  0  0  0
 82158  1  0  0  0
 83159  1  0  0  0
 83160  1  0  0  0
M  CHG  1  83   1
M  ISO  4   1 100  68 101  79 101  82 100
M  END
> <chiral flag>
0

> <version>
0

> <s_m_source_file>
/data/baiqing/PycharmProjects/Reinvent-master-3.2/result/LINK_invent/BTK/process_docking_weight1_custom_sum_contain_oxygen_bond_distance_aromatic_linkinvent_7_9_3/rearranged_h_0099.sdf

> <i_m_source_file_index>
67

> <r_mmod_Potential_Energy-OPLS-2005>
487.447204589844

> <r_mmod_Stretch_Energy-OPLS-2005>
338.423400878906

> <r_mmod_Bend_Energy-OPLS-2005>
353.862670898438

> <r_mmod_Torsional_Energy-OPLS-2005>
293.511169433594

> <r_mmod_Improper_Torsional_Energy-OPLS-2005>
5.0916576385498

> <r_mmod_Van_der_Waal_Energy-OPLS-2005>
112.983283996582

> <r_mmod_Electrostatic_Energy-OPLS-2005>
-321.108428955078

> <r_mmod_Solvation_Energy-OPLS-2005>
-502.021667480469

> <b_mmod_Minimization_Converged-OPLS-2005>
0

> <r_mmod_RMS_Derivative-OPLS-2005>
2.84096264839172

$$$$
67
                    3D
 Structure written by MMmdl.
163171  0  0  1  0            999 V2000
  -30.6260  -14.7374   20.4462 C   0  0  0  0  0  0
  -30.4379  -12.4522   19.4556 C   0  0  0  0  0  0
  -29.5052  -12.4962   18.2256 C   0  0  0  0  0  0
  -28.0340  -12.3192   18.6499 C   0  0  0  0  0  0
  -27.6422  -13.2281   19.8452 C   0  0  2  0  0  0
  -28.6946  -13.1709   20.9737 C   0  0  0  0  0  0
  -25.2520  -13.8184   20.5697 C   0  0  0  0  0  0
  -24.1817  -13.0435   20.9211 C   0  0  0  0  0  0
  -24.6399  -11.6913   20.8761 C   0  0  0  0  0  0
  -23.9077  -10.4291   21.0419 C   0  0  0  0  0  0
  -24.3628   -9.4212   21.9200 C   0  0  0  0  0  0
  -23.6305   -8.2246   22.0759 C   0  0  0  0  0  0
  -22.4287   -8.0285   21.3541 C   0  0  0  0  0  0
  -21.9924   -9.0263   20.4648 C   0  0  0  0  0  0
  -22.7252  -10.2142   20.3064 C   0  0  0  0  0  0
  -21.6853   -6.0742   22.5280 C   0  0  0  0  0  0
  -21.4013   -6.5646   23.8216 C   0  0  0  0  0  0
  -21.3660   -5.6798   24.9178 C   0  0  0  0  0  0
  -21.6038   -4.3058   24.7227 C   0  0  0  0  0  0
  -21.8824   -3.8152   23.4348 C   0  0  0  0  0  0
  -21.9191   -4.6968   22.3405 C   0  0  0  0  0  0
  -22.7829  -13.5215   21.1881 C   0  0  0  0  0  0
  -22.1662   -4.2157   21.0981 F   0  0  0  0  0  0
  -21.5626   -3.4543   25.7740 F   0  0  0  0  0  0
  -29.9923  -13.5186   20.3783 N   0  0  0  0  0  0
  -26.2950  -12.9390   20.3278 N   0  0  0  0  0  0
  -25.9335  -11.6534   20.5767 N   0  0  0  0  0  0
  -22.0480  -12.8193   22.0426 N   0  0  0  0  0  0
  -25.4184  -15.1917   20.4084 N   0  0  0  0  0  0
  -31.8276  -14.8265   20.1853 O   0  0  0  0  0  0
  -21.6642   -6.8885   21.4243 O   0  0  0  0  0  0
  -22.3511  -14.5525   20.6740 O   0  0  0  0  0  0
  -24.6320  -31.8542   23.1974 C   0  0  0  0  0  0
  -25.9140  -32.4724   23.8315 C   0  0  1  0  0  0
  -27.2381  -27.2698   20.1022 C   0  0  0  0  0  0
  -25.5947  -33.8536   24.2230 N   0  0  0  0  0  0
  -23.4280  -30.4737   21.5428 C   0  0  2  0  0  0
  -24.8792  -28.9092   20.1219 C   0  0  0  0  0  0
  -22.7498  -29.4601   22.4956 C   0  0  0  0  0  0
  -18.0281  -28.1377   22.8481 C   0  0  0  0  0  0
  -24.1500  -36.7266   23.2643 C   0  0  0  0  0  0
  -25.9760  -30.7583   21.3827 C   0  0  0  0  0  0
  -26.0515  -29.3787   20.7275 C   0  0  0  0  0  0
  -27.2326  -28.5665   20.7178 C   0  0  0  0  0  0
  -26.0445  -26.8644   19.4715 C   0  0  0  0  0  0
  -24.8760  -27.6539   19.4946 C   0  0  0  0  0  0
  -23.6482  -29.7968   20.1639 C   0  0  0  0  0  0
  -25.4127  -36.3047   24.0312 C   0  0  1  0  0  0
  -20.5893  -28.3697   23.1255 C   0  0  2  0  0  0
  -20.6781  -26.9415   22.5394 C   0  0  0  0  0  0
  -19.5765  -26.6378   21.5197 C   0  0  0  0  0  0
  -18.1936  -26.7926   22.1609 C   0  0  0  0  0  0
  -19.1533  -28.8854   23.2850 C   0  0  0  0  0  0
  -18.9470  -30.1450   23.8885 C   0  0  0  0  0  0
  -17.6479  -30.6585   24.0545 C   0  0  0  0  0  0
  -25.9077  -34.9423   23.5070 C   0  0  0  0  0  0
  -16.5362  -29.9082   23.6339 C   0  0  0  0  0  0
  -16.7274  -28.6489   23.0372 C   0  0  0  0  0  0
  -26.4512  -31.6574   25.0730 C   0  0  0  0  0  0
  -25.3719  -31.3695   26.1446 C   0  0  0  0  0  0
  -27.0385  -30.2993   24.6240 C   0  0  0  0  0  0
  -27.6085  -32.4337   25.7480 C   0  0  0  0  0  0
  -27.5577  -37.1775   24.8461 C   0  0  0  0  0  0
  -21.4223  -29.3042   22.3652 N   0  0  0  0  0  0
  -26.4294  -37.3745   23.9400 N   0  0  0  0  0  0
  -24.6964  -31.0471   22.0960 N   0  0  0  0  0  0
  -23.4185  -28.8158   23.3081 O   0  0  0  0  0  0
  -28.3449  -26.3921   20.0466 O   0  0  0  0  0  0
  -26.5663  -34.8888   22.4650 O   0  0  0  0  0  0
  -23.5464  -32.1424   23.7231 O   0  0  0  0  0  0
  -29.4306  -19.8572   20.5586 C   0  0  0  0  0  0
  -29.5308  -19.4021   17.9018 C   0  0  0  0  0  0
  -29.0583  -20.9858   19.7185 C   0  0  0  0  0  0
  -29.0899  -20.6873   18.3200 C   0  0  0  0  0  0
  -29.7914  -18.5513   20.0406 C   0  0  0  0  0  0
  -26.9226  -22.1646   20.3851 C   0  0  0  0  0  0
  -27.8573  -20.9897   16.0719 C   0  0  0  0  0  0
  -29.7430  -22.5494   16.7083 C   0  0  0  0  0  0
  -30.2724  -17.3087   20.9088 C   0  0  0  0  0  0
  -28.7874  -23.8728   19.8449 C   0  0  0  0  0  0
  -28.4485  -22.3454   20.3414 C   0  0  2  0  0  0
  -28.6020  -21.6711   17.2431 C   0  0  0  0  0  0
  -29.8504  -18.3691   18.7115 N   0  0  0  0  0  0
  -29.8540  -15.8690   20.6204 N   0  0  0  0  0  0
  -28.0360  -24.9850   20.5576 N   0  0  0  0  0  0
  -31.4757  -12.5833   19.1417 H   0  0  0  0  0  0
  -30.3926  -11.4779   19.9460 H   0  0  0  0  0  0
  -29.7837  -11.7202   17.5112 H   0  0  0  0  0  0
  -29.6254  -13.4494   17.7068 H   0  0  0  0  0  0
  -27.8965  -11.2715   18.9220 H   0  0  0  0  0  0
  -27.3713  -12.5005   17.8025 H   0  0  0  0  0  0
  -27.6324  -14.2463   19.4553 H   0  0  0  0  0  0
  -28.7315  -12.1775   21.4221 H   0  0  0  0  0  0
  -28.4346  -13.8614   21.7787 H   0  0  0  0  0  0
  -25.2773   -9.5681   22.4779 H   0  0  0  0  0  0
  -24.0010   -7.4629   22.7478 H   0  0  0  0  0  0
  -21.0854   -8.8788   19.8951 H   0  0  0  0  0  0
  -22.3723  -10.9686   19.6173 H   0  0  0  0  0  0
  -21.2012   -7.6154   23.9721 H   0  0  0  0  0  0
  -21.1470   -6.0527   25.9076 H   0  0  0  0  0  0
  -22.0600   -2.7617   23.2850 H   0  0  0  0  0  0
  -22.4096  -11.9849   22.4797 H   0  0  0  0  0  0
  -21.1095  -13.1219   22.2652 H   0  0  0  0  0  0
  -24.6444  -15.8382   20.5134 H   0  0  0  0  0  0
  -26.2541  -15.6341   20.0512 H   0  0  0  0  0  0
  -26.7225  -32.5365   23.1062 H   0  0  0  0  0  0
  -25.0080  -33.9676   25.0367 H   0  0  0  0  0  0
  -22.7265  -31.2975   21.3892 H   0  0  0  0  0  0
  -23.3756  -35.9610   23.3333 H   0  0  0  0  0  0
  -24.3584  -36.8881   22.2053 H   0  0  0  0  0  0
  -23.7292  -37.6478   23.6685 H   0  0  0  0  0  0
  -26.1240  -31.5177   20.6134 H   0  0  0  0  0  0
  -26.8472  -30.8067   22.0229 H   0  0  0  0  0  0
  -28.1374  -28.9224   21.1895 H   0  0  0  0  0  0
  -26.0129  -25.9153   18.9533 H   0  0  0  0  0  0
  -23.9762  -27.2874   19.0217 H   0  0  0  0  0  0
  -23.7713  -30.5695   19.4038 H   0  0  0  0  0  0
  -22.7637  -29.2298   19.8639 H   0  0  0  0  0  0
  -25.1299  -36.1885   25.0802 H   0  0  0  0  0  0
  -20.9955  -28.3300   24.1386 H   0  0  0  0  0  0
  -20.5663  -26.2323   23.3603 H   0  0  0  0  0  0
  -21.6655  -26.7444   22.1182 H   0  0  0  0  0  0
  -19.6933  -25.6286   21.1239 H   0  0  0  0  0  0
  -19.6696  -27.3169   20.6711 H   0  0  0  0  0  0
  -17.4191  -26.6671   21.4003 H   0  0  0  0  0  0
  -18.0340  -26.0029   22.8971 H   0  0  0  0  0  0
  -19.7939  -30.7241   24.2275 H   0  0  0  0  0  0
  -17.5035  -31.6280   24.5128 H   0  0  0  0  0  0
  -15.5366  -30.2979   23.7680 H   0  0  0  0  0  0
  -15.8667  -28.0790   22.7140 H   0  0  0  0  0  0
  -24.5916  -30.7024   25.7760 H   0  0  0  0  0  0
  -24.8854  -32.2820   26.4902 H   0  0  0  0  0  0
  -25.8013  -30.8859   27.0225 H   0  0  0  0  0  0
  -26.2977  -29.6697   24.1291 H   0  0  0  0  0  0
  -27.4112  -29.7303   25.4773 H   0  0  0  0  0  0
  -27.8835  -30.4280   23.9468 H   0  0  0  0  0  0
  -27.2741  -33.3671   26.2022 H   0  0  0  0  0  0
  -28.3887  -32.6848   25.0280 H   0  0  0  0  0  0
  -28.0771  -31.8482   26.5401 H   0  0  0  0  0  0
  -28.2573  -38.0086   24.7508 H   0  0  0  0  0  0
  -28.1085  -36.2608   24.6290 H   0  0  0  0  0  0
  -27.2278  -37.1428   25.8858 H   0  0  0  0  0  0
  -20.9460  -29.8753   21.6817 H   0  0  0  0  0  0
  -26.0164  -38.2811   24.1407 H   0  0  0  0  0  0
  -29.4030  -19.9833   21.6311 H   0  0  0  0  0  0
  -29.5996  -19.1571   16.8532 H   0  0  0  0  0  0
  -26.6602  -21.2073   20.8351 H   0  0  0  0  0  0
  -26.4913  -22.1895   19.3849 H   0  0  0  0  0  0
  -26.4320  -22.9375   20.9748 H   0  0  0  0  0  0
  -27.0585  -20.3353   16.4257 H   0  0  0  0  0  0
  -28.5223  -20.3973   15.4425 H   0  0  0  0  0  0
  -27.3979  -21.7288   15.4144 H   0  0  0  0  0  0
  -30.2187  -23.1261   17.5003 H   0  0  0  0  0  0
  -29.3714  -23.2601   15.9690 H   0  0  0  0  0  0
  -30.5189  -21.9513   16.2308 H   0  0  0  0  0  0
  -29.9749  -17.5094   21.9382 H   0  0  0  0  0  0
  -31.3627  -17.3467   20.9247 H   0  0  0  0  0  0
  -28.5657  -23.9894   18.7866 H   0  0  0  0  0  0
  -29.8587  -24.0520   19.9540 H   0  0  0  0  0  0
  -28.7792  -22.3254   21.3817 H   0  0  0  0  0  0
  -27.8584  -22.3210   17.6939 H   0  0  0  0  0  0
  -28.8634  -15.7047   20.6888 H   0  0  0  0  0  0
  -27.0428  -24.8527   20.3950 H   0  0  0  0  0  0
  1 25  1  0  0  0
  1 30  2  0  0  0
  1 84  1  0  0  0
  2  3  1  0  0  0
  2 25  1  0  0  0
  2 86  1  0  0  0
  2 87  1  0  0  0
  3  4  1  0  0  0
  3 88  1  0  0  0
  3 89  1  0  0  0
  4  5  1  0  0  0
  4 90  1  0  0  0
  4 91  1  0  0  0
  5  6  1  0  0  0
  5 26  1  0  0  0
  5 92  1  0  0  0
  6 25  1  0  0  0
  6 93  1  0  0  0
  6 94  1  0  0  0
  7  8  2  0  0  0
  7 26  1  0  0  0
  7 29  1  0  0  0
  8  9  1  0  0  0
  8 22  1  0  0  0
  9 10  1  0  0  0
  9 27  2  0  0  0
 10 11  2  0  0  0
 10 15  1  0  0  0
 11 12  1  0  0  0
 11 95  1  0  0  0
 12 13  2  0  0  0
 12 96  1  0  0  0
 13 14  1  0  0  0
 13 31  1  0  0  0
 14 15  2  0  0  0
 14 97  1  0  0  0
 15 98  1  0  0  0
 16 17  2  0  0  0
 16 21  1  0  0  0
 16 31  1  0  0  0
 17 18  1  0  0  0
 17 99  1  0  0  0
 18 19  2  0  0  0
 18100  1  0  0  0
 19 20  1  0  0  0
 19 24  1  0  0  0
 20 21  2  0  0  0
 20101  1  0  0  0
 21 23  1  0  0  0
 22 28  1  0  0  0
 22 32  2  0  0  0
 26 27  1  0  0  0
 28102  1  0  0  0
 28103  1  0  0  0
 29104  1  0  0  0
 29105  1  0  0  0
 33 34  1  0  0  0
 33 66  1  0  0  0
 33 70  2  0  0  0
 34 36  1  0  0  0
 34 59  1  0  0  0
 34106  1  0  0  0
 35 44  2  0  0  0
 35 45  1  0  0  0
 35 68  1  0  0  0
 36 56  1  0  0  0
 36107  1  0  0  0
 37 39  1  0  0  0
 37 47  1  0  0  0
 37 66  1  0  0  0
 37108  1  0  0  0
 38 43  2  0  0  0
 38 46  1  0  0  0
 38 47  1  0  0  0
 39 64  1  0  0  0
 39 67  2  0  0  0
 40 52  1  0  0  0
 40 53  2  0  0  0
 40 58  1  0  0  0
 41109  1  0  0  0
 41110  1  0  0  0
 41111  1  0  0  0
 41 48  1  0  0  0
 42 43  1  0  0  0
 42 66  1  0  0  0
 42112  1  0  0  0
 42113  1  0  0  0
 43 44  1  0  0  0
 44114  1  0  0  0
 45 46  2  0  0  0
 45115  1  0  0  0
 46116  1  0  0  0
 47117  1  0  0  0
 47118  1  0  0  0
 48 56  1  0  0  0
 48 65  1  0  0  0
 48119  1  0  0  0
 49 50  1  0  0  0
 49 53  1  0  0  0
 49 64  1  0  0  0
 49120  1  0  0  0
 50 51  1  0  0  0
 50121  1  0  0  0
 50122  1  0  0  0
 51 52  1  0  0  0
 51123  1  0  0  0
 51124  1  0  0  0
 52125  1  0  0  0
 52126  1  0  0  0
 53 54  1  0  0  0
 54 55  2  0  0  0
 54127  1  0  0  0
 55 57  1  0  0  0
 55128  1  0  0  0
 56 69  2  0  0  0
 57 58  2  0  0  0
 57129  1  0  0  0
 58130  1  0  0  0
 59 60  1  0  0  0
 59 61  1  0  0  0
 59 62  1  0  0  0
 60131  1  0  0  0
 60132  1  0  0  0
 60133  1  0  0  0
 61134  1  0  0  0
 61135  1  0  0  0
 61136  1  0  0  0
 62137  1  0  0  0
 62138  1  0  0  0
 62139  1  0  0  0
 63 65  1  0  0  0
 63140  1  0  0  0
 63141  1  0  0  0
 63142  1  0  0  0
 64143  1  0  0  0
 65144  1  0  0  0
 68 85  1  0  0  0
 71 73  2  0  0  0
 71 75  1  0  0  0
 71145  1  0  0  0
 72 74  2  0  0  0
 72 83  1  0  0  0
 72146  1  0  0  0
 73 74  1  0  0  0
 73 81  1  0  0  0
 74 82  1  0  0  0
 75 79  1  0  0  0
 75 83  2  0  0  0
 76147  1  0  0  0
 76148  1  0  0  0
 76149  1  0  0  0
 76 81  1  0  0  0
 77150  1  0  0  0
 77151  1  0  0  0
 77152  1  0  0  0
 77 82  1  0  0  0
 78 82  1  0  0  0
 78153  1  0  0  0
 78154  1  0  0  0
 78155  1  0  0  0
 79 84  1  0  0  0
 79156  1  0  0  0
 79157  1  0  0  0
 80 81  1  0  0  0
 80 85  1  0  0  0
 80158  1  0  0  0
 80159  1  0  0  0
 81160  1  0  0  0
 82161  1  0  0  0
 84162  1  0  0  0
 85163  1  0  0  0
M  ISO  4   1 100  68 101  84 100  85 101
M  END
> <chiral flag>
0

> <version>
0

> <s_m_source_file>
/data/baiqing/PycharmProjects/Reinvent-master-3.2/result/LINK_invent/BTK/process_docking_weight1_custom_sum_contain_oxygen_bond_distance_aromatic_linkinvent_7_9_3/rearranged_h_0099.sdf

> <i_m_source_file_index>
68

> <r_mmod_Potential_Energy-OPLS-2005>
-86.9827499389648

> <r_mmod_Stretch_Energy-OPLS-2005>
127.583068847656

> <r_mmod_Bend_Energy-OPLS-2005>
173.11799621582

> <r_mmod_Torsional_Energy-OPLS-2005>
216.751770019531

> <r_mmod_Improper_Torsional_Energy-OPLS-2005>
5.69567632675171

> <r_mmod_Van_der_Waal_Energy-OPLS-2005>
141.073257446289

> <r_mmod_Electrostatic_Energy-OPLS-2005>
-598.051452636719

> <r_mmod_Solvation_Energy-OPLS-2005>
-234.559112548828

> <b_mmod_Minimization_Converged-OPLS-2005>
0

> <r_mmod_RMS_Derivative-OPLS-2005>
3.35933017730713

$$$$
68
                    3D
 Structure written by MMmdl.
166174  0  0  1  0            999 V2000
  -30.6108  -14.5993   20.4395 C   0  0  0  0  0  0
  -30.4355  -12.3440   19.4457 C   0  0  0  0  0  0
  -29.5169  -12.4804   18.2092 C   0  0  0  0  0  0
  -28.0333  -12.3252   18.6143 C   0  0  0  0  0  0
  -27.6475  -13.2063   19.8345 C   0  0  2  0  0  0
  -28.6898  -13.0597   20.9664 C   0  0  0  0  0  0
  -25.2546  -13.7997   20.5532 C   0  0  0  0  0  0
  -24.1828  -13.0327   20.9186 C   0  0  0  0  0  0
  -24.6403  -11.6801   20.8728 C   0  0  0  0  0  0
  -23.9056  -10.4211   21.0409 C   0  0  0  0  0  0
  -24.3613   -9.4116   21.9174 C   0  0  0  0  0  0
  -23.6262   -8.2180   22.0747 C   0  0  0  0  0  0
  -22.4218   -8.0251   21.3561 C   0  0  0  0  0  0
  -21.9885   -9.0207   20.4643 C   0  0  0  0  0  0
  -22.7243  -10.2073   20.3033 C   0  0  0  0  0  0
  -21.6804   -6.0703   22.5296 C   0  0  0  0  0  0
  -21.3985   -6.5608   23.8238 C   0  0  0  0  0  0
  -21.3662   -5.6770   24.9200 C   0  0  0  0  0  0
  -21.6048   -4.3035   24.7256 C   0  0  0  0  0  0
  -21.8808   -3.8120   23.4378 C   0  0  0  0  0  0
  -21.9180   -4.6936   22.3425 C   0  0  0  0  0  0
  -22.7857  -13.5173   21.1893 C   0  0  0  0  0  0
  -22.1639   -4.2128   21.1003 F   0  0  0  0  0  0
  -21.5655   -3.4509   25.7767 F   0  0  0  0  0  0
  -30.0082  -13.3744   20.4051 N   0  0  0  0  0  0
  -26.2962  -12.9233   20.3129 N   0  0  0  0  0  0
  -25.9307  -11.6388   20.5617 N   0  0  0  0  0  0
  -22.0457  -12.8175   22.0444 N   0  0  0  0  0  0
  -25.4244  -15.1659   20.3859 N   0  0  0  0  0  0
  -31.7940  -14.7582   20.1366 O   0  0  0  0  0  0
  -21.6578   -6.8852   21.4252 O   0  0  0  0  0  0
  -22.3538  -14.5453   20.6713 O   0  0  0  0  0  0
  -24.6198  -31.8598   23.2044 C   0  0  0  0  0  0
  -25.9117  -32.4755   23.8320 C   0  0  1  0  0  0
  -27.2481  -27.3825   20.0983 C   0  0  0  0  0  0
  -25.5928  -33.8573   24.2235 N   0  0  0  0  0  0
  -23.4079  -30.4752   21.5450 C   0  0  2  0  0  0
  -24.8610  -28.9241   20.1224 C   0  0  0  0  0  0
  -22.7306  -29.4615   22.5021 C   0  0  0  0  0  0
  -18.0156  -28.1422   22.8415 C   0  0  0  0  0  0
  -24.1494  -36.7306   23.2628 C   0  0  0  0  0  0
  -25.9428  -30.8057   21.3598 C   0  0  0  0  0  0
  -26.0263  -29.4352   20.7111 C   0  0  0  0  0  0
  -27.2226  -28.6745   20.6836 C   0  0  0  0  0  0
  -26.0623  -26.8846   19.5150 C   0  0  0  0  0  0
  -24.8764  -27.6533   19.5229 C   0  0  0  0  0  0
  -23.6256  -29.7968   20.1652 C   0  0  0  0  0  0
  -25.4114  -36.3053   24.0304 C   0  0  1  0  0  0
  -20.5731  -28.3721   23.1500 C   0  0  2  0  0  0
  -20.6561  -26.9386   22.5874 C   0  0  0  0  0  0
  -19.5848  -26.6537   21.5285 C   0  0  0  0  0  0
  -18.1820  -26.8120   22.1240 C   0  0  0  0  0  0
  -19.1409  -28.8849   23.3011 C   0  0  0  0  0  0
  -18.9357  -30.1354   23.9171 C   0  0  0  0  0  0
  -17.6373  -30.6572   24.0782 C   0  0  0  0  0  0
  -25.9034  -34.9420   23.5071 C   0  0  0  0  0  0
  -16.5284  -29.9152   23.6341 C   0  0  0  0  0  0
  -16.7178  -28.6597   23.0311 C   0  0  0  0  0  0
  -26.4494  -31.6527   25.0651 C   0  0  0  0  0  0
  -25.3748  -31.3716   26.1397 C   0  0  0  0  0  0
  -27.0353  -30.2962   24.6055 C   0  0  0  0  0  0
  -27.6010  -32.4287   25.7437 C   0  0  0  0  0  0
  -27.5569  -37.1795   24.8461 C   0  0  0  0  0  0
  -21.4005  -29.3066   22.3809 N   0  0  0  0  0  0
  -26.4281  -37.3744   23.9389 N   0  0  0  0  0  0
  -24.6750  -31.0633   22.0947 N   0  0  0  0  0  0
  -23.4057  -28.8187   23.3127 O   0  0  0  0  0  0
  -28.4304  -26.6548   20.0471 O   0  0  0  0  0  0
  -26.5631  -34.8912   22.4628 O   0  0  0  0  0  0
  -23.5370  -32.1409   23.7353 O   0  0  0  0  0  0
  -27.6682  -17.8250   20.9656 C   0  0  0  0  0  0
  -27.6390  -19.9476   20.2947 C   0  0  0  0  0  0
  -26.8796  -19.0175   20.9282 C   0  0  0  0  0  0
  -28.8991  -18.0640   20.4062 C   0  0  0  0  0  0
  -25.4410  -19.0333   22.9762 C   0  0  0  0  0  0
  -24.3996  -18.5082   20.7459 C   0  0  0  0  0  0
  -30.0625  -17.0784   20.2082 C   0  0  0  0  0  0
  -29.3889  -22.8401   20.0747 C   0  0  0  0  0  0
  -29.6189  -21.7132   19.0039 C   0  0  0  0  0  0
  -28.8800  -24.2007   19.4700 C   0  0  0  0  0  0
  -29.9691  -20.2194   19.4037 C   0  0  0  0  0  0
  -28.4348  -25.2790   20.5164 C   0  0  0  0  0  0
  -25.4943  -19.2907   21.4700 C   0  0  0  0  0  0
  -28.8886  -19.4272   20.0174 N   0  0  0  0  0  0
  -29.7648  -15.6577   20.5587 N   0  0  0  0  0  0
  -31.4861  -12.4335   19.1647 H   0  0  0  0  0  0
  -30.3327  -11.3518   19.8901 H   0  0  0  0  0  0
  -29.7750  -11.7270   17.4640 H   0  0  0  0  0  0
  -29.6751  -13.4453   17.7247 H   0  0  0  0  0  0
  -27.8743  -11.2737   18.8630 H   0  0  0  0  0  0
  -27.3814  -12.5350   17.7654 H   0  0  0  0  0  0
  -27.6582  -14.2362   19.4755 H   0  0  0  0  0  0
  -28.6796  -12.0359   21.3458 H   0  0  0  0  0  0
  -28.4516  -13.7015   21.8194 H   0  0  0  0  0  0
  -25.2758   -9.5543   22.4761 H   0  0  0  0  0  0
  -23.9933   -7.4538   22.7461 H   0  0  0  0  0  0
  -21.0813   -8.8731   19.8962 H   0  0  0  0  0  0
  -22.3711  -10.9601   19.6139 H   0  0  0  0  0  0
  -21.1931   -7.6101   23.9747 H   0  0  0  0  0  0
  -21.1514   -6.0483   25.9117 H   0  0  0  0  0  0
  -22.0590   -2.7571   23.2878 H   0  0  0  0  0  0
  -22.3988  -11.9811   22.4869 H   0  0  0  0  0  0
  -21.1082  -13.1260   22.2664 H   0  0  0  0  0  0
  -24.6388  -15.7984   20.4741 H   0  0  0  0  0  0
  -26.2467  -15.6104   20.0023 H   0  0  0  0  0  0
  -26.7169  -32.5445   23.1056 H   0  0  0  0  0  0
  -25.0027  -33.9686   25.0358 H   0  0  0  0  0  0
  -22.6995  -31.2930   21.3950 H   0  0  0  0  0  0
  -23.3712  -35.9682   23.3279 H   0  0  0  0  0  0
  -24.3577  -36.8941   22.2037 H   0  0  0  0  0  0
  -23.7325  -37.6531   23.6685 H   0  0  0  0  0  0
  -26.0516  -31.5609   20.5806 H   0  0  0  0  0  0
  -26.8346  -30.8710   21.9731 H   0  0  0  0  0  0
  -28.1281  -29.0724   21.1190 H   0  0  0  0  0  0
  -26.0570  -25.9102   19.0489 H   0  0  0  0  0  0
  -23.9834  -27.2521   19.0616 H   0  0  0  0  0  0
  -23.7418  -30.5690   19.4048 H   0  0  0  0  0  0
  -22.7459  -29.2216   19.8682 H   0  0  0  0  0  0
  -25.1292  -36.1833   25.0798 H   0  0  0  0  0  0
  -20.9750  -28.3472   24.1644 H   0  0  0  0  0  0
  -21.6555  -26.7067   22.2220 H   0  0  0  0  0  0
  -20.4780  -26.2484   23.4142 H   0  0  0  0  0  0
  -19.7158  -25.6530   21.1100 H   0  0  0  0  0  0
  -19.7104  -27.3572   20.7064 H   0  0  0  0  0  0
  -17.4334  -26.7302   21.3304 H   0  0  0  0  0  0
  -17.9730  -25.9979   22.8208 H   0  0  0  0  0  0
  -19.7860  -30.6924   24.2805 H   0  0  0  0  0  0
  -17.4947  -31.6212   24.5449 H   0  0  0  0  0  0
  -15.5308  -30.3162   23.7578 H   0  0  0  0  0  0
  -15.8531  -28.0980   22.6990 H   0  0  0  0  0  0
  -24.5856  -30.7117   25.7776 H   0  0  0  0  0  0
  -24.9020  -32.2926   26.4818 H   0  0  0  0  0  0
  -25.8056  -30.8889   27.0177 H   0  0  0  0  0  0
  -26.2923  -29.6680   24.1109 H   0  0  0  0  0  0
  -27.4150  -29.7205   25.4505 H   0  0  0  0  0  0
  -27.8732  -30.4279   23.9207 H   0  0  0  0  0  0
  -27.2545  -33.3552   26.2045 H   0  0  0  0  0  0
  -28.3809  -32.6914   25.0280 H   0  0  0  0  0  0
  -28.0717  -31.8420   26.5338 H   0  0  0  0  0  0
  -28.2567  -38.0108   24.7474 H   0  0  0  0  0  0
  -28.1083  -36.2617   24.6304 H   0  0  0  0  0  0
  -27.2293  -37.1473   25.8876 H   0  0  0  0  0  0
  -20.9119  -29.8841   21.7119 H   0  0  0  0  0  0
  -26.0119  -38.2802   24.1407 H   0  0  0  0  0  0
  -27.3687  -16.8722   21.3849 H   0  0  0  0  0  0
  -27.3681  -20.9633   20.0333 H   0  0  0  0  0  0
  -25.6195  -17.9823   23.1987 H   0  0  0  0  0  0
  -24.4575  -19.2989   23.3661 H   0  0  0  0  0  0
  -26.1853  -19.6276   23.5054 H   0  0  0  0  0  0
  -24.5344  -17.4467   20.9124 H   0  0  0  0  0  0
  -24.4152  -18.6969   19.6742 H   0  0  0  0  0  0
  -23.4125  -18.7781   21.1172 H   0  0  0  0  0  0
  -30.9512  -17.4084   20.7550 H   0  0  0  0  0  0
  -30.3426  -17.0886   19.1547 H   0  0  0  0  0  0
  -28.6959  -22.5062   20.8435 H   0  0  0  0  0  0
  -30.3280  -23.0289   20.5951 H   0  0  0  0  0  0
  -30.4280  -22.0672   18.3666 H   0  0  0  0  0  0
  -28.7338  -21.6936   18.3709 H   0  0  0  0  0  0
  -28.0458  -24.0116   18.7933 H   0  0  0  0  0  0
  -29.6773  -24.6088   18.8430 H   0  0  0  0  0  0
  -30.8456  -20.1690   20.0561 H   0  0  0  0  0  0
  -30.2451  -19.6900   18.4910 H   0  0  0  0  0  0
  -29.1400  -25.2511   21.3534 H   0  0  0  0  0  0
  -27.4688  -24.9870   20.9364 H   0  0  0  0  0  0
  -25.2969  -20.3520   21.3038 H   0  0  0  0  0  0
  -28.7987  -15.4353   20.7311 H   0  0  0  0  0  0
  1 25  1  0  0  0
  1 30  2  0  0  0
  1 85  1  0  0  0
  2  3  1  0  0  0
  2 25  1  0  0  0
  2 86  1  0  0  0
  2 87  1  0  0  0
  3  4  1  0  0  0
  3 88  1  0  0  0
  3 89  1  0  0  0
  4  5  1  0  0  0
  4 90  1  0  0  0
  4 91  1  0  0  0
  5  6  1  0  0  0
  5 26  1  0  0  0
  5 92  1  0  0  0
  6 25  1  0  0  0
  6 93  1  0  0  0
  6 94  1  0  0  0
  7  8  2  0  0  0
  7 26  1  0  0  0
  7 29  1  0  0  0
  8  9  1  0  0  0
  8 22  1  0  0  0
  9 10  1  0  0  0
  9 27  2  0  0  0
 10 11  2  0  0  0
 10 15  1  0  0  0
 11 12  1  0  0  0
 11 95  1  0  0  0
 12 13  2  0  0  0
 12 96  1  0  0  0
 13 14  1  0  0  0
 13 31  1  0  0  0
 14 15  2  0  0  0
 14 97  1  0  0  0
 15 98  1  0  0  0
 16 17  2  0  0  0
 16 21  1  0  0  0
 16 31  1  0  0  0
 17 18  1  0  0  0
 17 99  1  0  0  0
 18 19  2  0  0  0
 18100  1  0  0  0
 19 20  1  0  0  0
 19 24  1  0  0  0
 20 21  2  0  0  0
 20101  1  0  0  0
 21 23  1  0  0  0
 22 28  1  0  0  0
 22 32  2  0  0  0
 26 27  1  0  0  0
 28102  1  0  0  0
 28103  1  0  0  0
 29104  1  0  0  0
 29105  1  0  0  0
 33 34  1  0  0  0
 33 66  1  0  0  0
 33 70  2  0  0  0
 34 36  1  0  0  0
 34 59  1  0  0  0
 34106  1  0  0  0
 35 44  2  0  0  0
 35 45  1  0  0  0
 35 68  1  0  0  0
 36 56  1  0  0  0
 36107  1  0  0  0
 37 39  1  0  0  0
 37 47  1  0  0  0
 37 66  1  0  0  0
 37108  1  0  0  0
 38 43  2  0  0  0
 38 46  1  0  0  0
 38 47  1  0  0  0
 39 64  1  0  0  0
 39 67  2  0  0  0
 40 52  1  0  0  0
 40 53  2  0  0  0
 40 58  1  0  0  0
 41109  1  0  0  0
 41110  1  0  0  0
 41111  1  0  0  0
 41 48  1  0  0  0
 42 43  1  0  0  0
 42 66  1  0  0  0
 42112  1  0  0  0
 42113  1  0  0  0
 43 44  1  0  0  0
 44114  1  0  0  0
 45 46  2  0  0  0
 45115  1  0  0  0
 46116  1  0  0  0
 47117  1  0  0  0
 47118  1  0  0  0
 48 56  1  0  0  0
 48 65  1  0  0  0
 48119  1  0  0  0
 49 50  1  0  0  0
 49 53  1  0  0  0
 49 64  1  0  0  0
 49120  1  0  0  0
 50 51  1  0  0  0
 50121  1  0  0  0
 50122  1  0  0  0
 51 52  1  0  0  0
 51123  1  0  0  0
 51124  1  0  0  0
 52125  1  0  0  0
 52126  1  0  0  0
 53 54  1  0  0  0
 54 55  2  0  0  0
 54127  1  0  0  0
 55 57  1  0  0  0
 55128  1  0  0  0
 56 69  2  0  0  0
 57 58  2  0  0  0
 57129  1  0  0  0
 58130  1  0  0  0
 59 60  1  0  0  0
 59 61  1  0  0  0
 59 62  1  0  0  0
 60131  1  0  0  0
 60132  1  0  0  0
 60133  1  0  0  0
 61134  1  0  0  0
 61135  1  0  0  0
 61136  1  0  0  0
 62137  1  0  0  0
 62138  1  0  0  0
 62139  1  0  0  0
 63 65  1  0  0  0
 63140  1  0  0  0
 63141  1  0  0  0
 63142  1  0  0  0
 64143  1  0  0  0
 65144  1  0  0  0
 68 82  1  0  0  0
 71 73  1  0  0  0
 71 74  2  0  0  0
 71145  1  0  0  0
 72 73  2  0  0  0
 72 84  1  0  0  0
 72146  1  0  0  0
 73 83  1  0  0  0
 74 77  1  0  0  0
 74 84  1  0  0  0
 75147  1  0  0  0
 75148  1  0  0  0
 75149  1  0  0  0
 75 83  1  0  0  0
 76 83  1  0  0  0
 76150  1  0  0  0
 76151  1  0  0  0
 76152  1  0  0  0
 77 85  1  0  0  0
 77153  1  0  0  0
 77154  1  0  0  0
 78 79  1  0  0  0
 78 80  1  0  0  0
 78155  1  0  0  0
 78156  1  0  0  0
 79 81  1  0  0  0
 79157  1  0  0  0
 79158  1  0  0  0
 80 82  1  0  0  0
 80159  1  0  0  0
 80160  1  0  0  0
 81 84  1  0  0  0
 81161  1  0  0  0
 81162  1  0  0  0
 82163  1  0  0  0
 82164  1  0  0  0
 83165  1  0  0  0
 85166  1  0  0  0
M  ISO  4   1 100  68 101  82 101  85 100
M  END
> <chiral flag>
0

> <version>
0

> <s_m_source_file>
/data/baiqing/PycharmProjects/Reinvent-master-3.2/result/LINK_invent/BTK/process_docking_weight1_custom_sum_contain_oxygen_bond_distance_aromatic_linkinvent_7_9_3/rearranged_h_0099.sdf

> <i_m_source_file_index>
69

> <r_mmod_Potential_Energy-OPLS-2005>
-61.2987937927246

> <r_mmod_Stretch_Energy-OPLS-2005>
57.0236625671387

> <r_mmod_Bend_Energy-OPLS-2005>
121.072685241699

> <r_mmod_Torsional_Energy-OPLS-2005>
236.340805053711

> <r_mmod_Improper_Torsional_Energy-OPLS-2005>
7.29263067245483

> <r_mmod_Van_der_Waal_Energy-OPLS-2005>
114.475189208984

> <r_mmod_Electrostatic_Energy-OPLS-2005>
-439.573425292969

> <r_mmod_Solvation_Energy-OPLS-2005>
-192.537582397461

> <b_mmod_Minimization_Converged-OPLS-2005>
0

> <r_mmod_RMS_Derivative-OPLS-2005>
8.44466590881348

$$$$
69
                    3D
 Structure written by MMmdl.
177185  0  0  1  0            999 V2000
  -30.7258  -14.5019   20.5738 C   0  0  0  0  0  0
  -30.4160  -12.3171   19.4478 C   0  0  0  0  0  0
  -29.4922  -12.4730   18.2240 C   0  0  0  0  0  0
  -28.0202  -12.3092   18.6450 C   0  0  0  0  0  0
  -27.6514  -13.2019   19.8593 C   0  0  2  0  0  0
  -28.6917  -13.0548   20.9931 C   0  0  0  0  0  0
  -25.2494  -13.8058   20.5600 C   0  0  0  0  0  0
  -24.1799  -13.0367   20.9208 C   0  0  0  0  0  0
  -24.6368  -11.6846   20.8782 C   0  0  0  0  0  0
  -23.9033  -10.4254   21.0439 C   0  0  0  0  0  0
  -24.3588   -9.4169   21.9204 C   0  0  0  0  0  0
  -23.6263   -8.2205   22.0747 C   0  0  0  0  0  0
  -22.4238   -8.0256   21.3533 C   0  0  0  0  0  0
  -21.9878   -9.0237   20.4636 C   0  0  0  0  0  0
  -22.7214  -10.2115   20.3067 C   0  0  0  0  0  0
  -21.6848   -6.0722   22.5289 C   0  0  0  0  0  0
  -21.4012   -6.5631   23.8224 C   0  0  0  0  0  0
  -21.3655   -5.6794   24.9195 C   0  0  0  0  0  0
  -21.6042   -4.3053   24.7254 C   0  0  0  0  0  0
  -21.8815   -3.8128   23.4375 C   0  0  0  0  0  0
  -21.9182   -4.6945   22.3424 C   0  0  0  0  0  0
  -22.7838  -13.5185   21.1889 C   0  0  0  0  0  0
  -22.1653   -4.2124   21.1007 F   0  0  0  0  0  0
  -21.5623   -3.4537   25.7769 F   0  0  0  0  0  0
  -30.0223  -13.3407   20.4327 N   0  0  0  0  0  0
  -26.2955  -12.9269   20.3286 N   0  0  0  0  0  0
  -25.9294  -11.6436   20.5797 N   0  0  0  0  0  0
  -22.0473  -12.8206   22.0458 N   0  0  0  0  0  0
  -25.4091  -15.1738   20.3857 N   0  0  0  0  0  0
  -31.8570  -14.6405   20.1023 O   0  0  0  0  0  0
  -21.6601   -6.8856   21.4240 O   0  0  0  0  0  0
  -22.3547  -14.5520   20.6765 O   0  0  0  0  0  0
  -24.6165  -31.8631   23.2123 C   0  0  0  0  0  0
  -25.9056  -32.4790   23.8353 C   0  0  1  0  0  0
  -27.2408  -27.4246   20.0560 C   0  0  0  0  0  0
  -25.5897  -33.8581   24.2287 N   0  0  0  0  0  0
  -23.4037  -30.4891   21.5549 C   0  0  2  0  0  0
  -24.8477  -28.9533   20.1135 C   0  0  0  0  0  0
  -22.7376  -29.4681   22.5066 C   0  0  0  0  0  0
  -18.0260  -28.1432   22.8551 C   0  0  0  0  0  0
  -24.1493  -36.7303   23.2629 C   0  0  0  0  0  0
  -25.9386  -30.8155   21.3763 C   0  0  0  0  0  0
  -26.0128  -29.4565   20.7069 C   0  0  0  0  0  0
  -27.2081  -28.6988   20.6745 C   0  0  0  0  0  0
  -26.0420  -26.9236   19.4900 C   0  0  0  0  0  0
  -24.8594  -27.6856   19.5063 C   0  0  0  0  0  0
  -23.6097  -29.8236   20.1694 C   0  0  0  0  0  0
  -25.4101  -36.3101   24.0348 C   0  0  1  0  0  0
  -20.5846  -28.3642   23.1451 C   0  0  2  0  0  0
  -20.6701  -26.9370   22.5567 C   0  0  0  0  0  0
  -19.5759  -26.6473   21.5227 C   0  0  0  0  0  0
  -18.1888  -26.8048   22.1545 C   0  0  0  0  0  0
  -19.1524  -28.8851   23.3021 C   0  0  0  0  0  0
  -18.9445  -30.1458   23.9051 C   0  0  0  0  0  0
  -17.6467  -30.6625   24.0655 C   0  0  0  0  0  0
  -25.9040  -34.9466   23.5120 C   0  0  0  0  0  0
  -16.5348  -29.9153   23.6393 C   0  0  0  0  0  0
  -16.7276  -28.6569   23.0409 C   0  0  0  0  0  0
  -26.4467  -31.6560   25.0683 C   0  0  0  0  0  0
  -25.3743  -31.3636   26.1440 C   0  0  0  0  0  0
  -27.0243  -30.2996   24.6064 C   0  0  0  0  0  0
  -27.6118  -32.4194   25.7376 C   0  0  0  0  0  0
  -27.5599  -37.1797   24.8473 C   0  0  0  0  0  0
  -21.4100  -29.2991   22.3781 N   0  0  0  0  0  0
  -26.4308  -37.3774   23.9421 N   0  0  0  0  0  0
  -24.6700  -31.0722   22.1029 N   0  0  0  0  0  0
  -23.4120  -28.8312   23.3195 O   0  0  0  0  0  0
  -28.4105  -26.6856   20.0667 O   0  0  0  0  0  0
  -26.5607  -34.8952   22.4683 O   0  0  0  0  0  0
  -23.5371  -32.1400   23.7552 O   0  0  0  0  0  0
  -30.4626  -19.3500   20.9915 C   0  0  0  0  0  0
  -29.9093  -18.1351   21.3076 C   0  0  0  0  0  0
  -28.5052  -18.3991   21.4475 C   0  0  0  0  0  0
  -28.2548  -19.7166   21.1201 C   0  0  0  0  0  0
  -27.4530  -17.4101   21.8564 C   0  0  0  0  0  0
  -25.1658  -23.7020   22.2854 C   0  0  0  0  0  0
  -24.3736  -22.1016   20.5110 C   0  0  0  0  0  0
  -29.0721  -23.4810   17.0716 C   0  0  0  0  0  0
  -30.7202  -16.8418   21.5130 C   0  0  0  0  0  0
  -26.9008  -20.3994   20.9658 C   0  0  0  0  0  0
  -26.6909  -21.8098   21.5758 C   0  0  0  0  0  0
  -29.6962  -22.0664   19.0406 C   0  0  0  0  0  0
  -29.7747  -21.7314   20.5489 C   0  0  0  0  0  0
  -29.3615  -24.6617   19.3341 C   0  0  0  0  0  0
  -25.2233  -22.2459   21.7842 C   0  0  0  0  0  0
  -28.9339  -23.3555   18.6029 C   0  0  1  0  0  0
  -29.4855  -20.3242   20.8717 N   0  0  0  0  0  0
  -30.0953  -15.5416   21.1654 N   0  0  0  0  0  0
  -28.5490  -25.8111   18.9110 N   0  0  0  0  0  0
  -31.4618  -12.3929   19.1446 H   0  0  0  0  0  0
  -30.3109  -11.3208   19.8813 H   0  0  0  0  0  0
  -29.7454  -11.7364   17.4601 H   0  0  0  0  0  0
  -29.6431  -13.4527   17.7716 H   0  0  0  0  0  0
  -27.8720  -11.2601   18.9049 H   0  0  0  0  0  0
  -27.3551  -12.5056   17.8044 H   0  0  0  0  0  0
  -27.6774  -14.2334   19.5075 H   0  0  0  0  0  0
  -28.6704  -12.0420   21.3992 H   0  0  0  0  0  0
  -28.4426  -13.7111   21.8281 H   0  0  0  0  0  0
  -25.2737   -9.5653   22.4777 H   0  0  0  0  0  0
  -23.9969   -7.4598   22.7475 H   0  0  0  0  0  0
  -21.0790   -8.8761   19.8962 H   0  0  0  0  0  0
  -22.3666  -10.9654   19.6171 H   0  0  0  0  0  0
  -21.2009   -7.6137   23.9735 H   0  0  0  0  0  0
  -21.1477   -6.0517   25.9103 H   0  0  0  0  0  0
  -22.0588   -2.7574   23.2898 H   0  0  0  0  0  0
  -22.4033  -11.9854   22.4874 H   0  0  0  0  0  0
  -21.1102  -13.1269   22.2684 H   0  0  0  0  0  0
  -24.6372  -15.8203   20.5093 H   0  0  0  0  0  0
  -26.2534  -15.6152   20.0468 H   0  0  0  0  0  0
  -26.7103  -32.5490   23.1070 H   0  0  0  0  0  0
  -25.0002  -33.9644   25.0410 H   0  0  0  0  0  0
  -22.7029  -31.3144   21.4188 H   0  0  0  0  0  0
  -23.3767  -35.9628   23.3299 H   0  0  0  0  0  0
  -24.3641  -36.8902   22.2058 H   0  0  0  0  0  0
  -23.7264  -37.6515   23.6627 H   0  0  0  0  0  0
  -26.0769  -31.5958   20.6278 H   0  0  0  0  0  0
  -26.8149  -30.8429   22.0113 H   0  0  0  0  0  0
  -28.1120  -29.0791   21.1304 H   0  0  0  0  0  0
  -25.9981  -25.9438   19.0357 H   0  0  0  0  0  0
  -23.9597  -27.2835   19.0601 H   0  0  0  0  0  0
  -23.7212  -30.6018   19.4122 H   0  0  0  0  0  0
  -22.7269  -29.2504   19.8738 H   0  0  0  0  0  0
  -25.1277  -36.1972   25.0848 H   0  0  0  0  0  0
  -20.9950  -28.3237   24.1575 H   0  0  0  0  0  0
  -20.5365  -26.2260   23.3738 H   0  0  0  0  0  0
  -21.6632  -26.7311   22.1565 H   0  0  0  0  0  0
  -19.6857  -25.6388   21.1223 H   0  0  0  0  0  0
  -19.6807  -27.3324   20.6797 H   0  0  0  0  0  0
  -17.4220  -26.7040   21.3857 H   0  0  0  0  0  0
  -18.0115  -26.0064   22.8759 H   0  0  0  0  0  0
  -19.7912  -30.7233   24.2534 H   0  0  0  0  0  0
  -17.5024  -31.6296   24.5256 H   0  0  0  0  0  0
  -15.5358  -30.3074   23.7738 H   0  0  0  0  0  0
  -15.8657  -28.0921   22.7124 H   0  0  0  0  0  0
  -24.6026  -30.6845   25.7793 H   0  0  0  0  0  0
  -24.8779  -32.2732   26.4826 H   0  0  0  0  0  0
  -25.8146  -30.8893   27.0230 H   0  0  0  0  0  0
  -26.2759  -29.6836   24.1053 H   0  0  0  0  0  0
  -27.3931  -29.7202   25.4548 H   0  0  0  0  0  0
  -27.8661  -30.4303   23.9262 H   0  0  0  0  0  0
  -27.2864  -33.3530   26.1956 H   0  0  0  0  0  0
  -28.3873  -32.6642   25.0107 H   0  0  0  0  0  0
  -28.0795  -31.8269   26.5248 H   0  0  0  0  0  0
  -28.2589  -38.0099   24.7487 H   0  0  0  0  0  0
  -28.1132  -36.2654   24.6311 H   0  0  0  0  0  0
  -27.2340  -37.1416   25.8874 H   0  0  0  0  0  0
  -20.9251  -29.8619   21.6934 H   0  0  0  0  0  0
  -26.0229  -38.2887   24.1348 H   0  0  0  0  0  0
  -31.5010  -19.6098   20.8334 H   0  0  0  0  0  0
  -27.8761  -16.4901   22.2532 H   0  0  0  0  0  0
  -26.8504  -17.1776   20.9854 H   0  0  0  0  0  0
  -26.7998  -17.8304   22.6214 H   0  0  0  0  0  0
  -24.1377  -24.0128   22.4834 H   0  0  0  0  0  0
  -25.5851  -24.3907   21.5503 H   0  0  0  0  0  0
  -25.7354  -23.8350   23.2054 H   0  0  0  0  0  0
  -23.3485  -22.4387   20.6740 H   0  0  0  0  0  0
  -24.3166  -21.0633   20.1934 H   0  0  0  0  0  0
  -24.7944  -22.6667   19.6779 H   0  0  0  0  0  0
  -28.6097  -22.6292   16.5708 H   0  0  0  0  0  0
  -30.1153  -23.5033   16.7560 H   0  0  0  0  0  0
  -28.5920  -24.3798   16.6852 H   0  0  0  0  0  0
  -31.0244  -16.8055   22.5615 H   0  0  0  0  0  0
  -31.6512  -16.9668   20.9527 H   0  0  0  0  0  0
  -26.1421  -19.7436   21.3886 H   0  0  0  0  0  0
  -26.6563  -20.4444   19.9031 H   0  0  0  0  0  0
  -27.1349  -22.5499   20.9142 H   0  0  0  0  0  0
  -27.2021  -21.8757   22.5379 H   0  0  0  0  0  0
  -29.2411  -21.2204   18.5240 H   0  0  0  0  0  0
  -30.7217  -22.1166   18.6718 H   0  0  0  0  0  0
  -29.1743  -22.3899   21.1623 H   0  0  0  0  0  0
  -30.7885  -21.9486   20.8895 H   0  0  0  0  0  0
  -30.4179  -24.8715   19.1627 H   0  0  0  0  0  0
  -29.2577  -24.5152   20.4101 H   0  0  0  0  0  0
  -24.7777  -21.6105   22.5523 H   0  0  0  0  0  0
  -27.8750  -23.2036   18.8268 H   0  0  0  0  0  0
  -29.1367  -15.4004   21.4363 H   0  0  0  0  0  0
  -27.6067  -25.5078   18.6935 H   0  0  0  0  0  0
  1 25  1  0  0  0
  1 30  2  0  0  0
  1 88  1  0  0  0
  2  3  1  0  0  0
  2 25  1  0  0  0
  2 90  1  0  0  0
  2 91  1  0  0  0
  3  4  1  0  0  0
  3 92  1  0  0  0
  3 93  1  0  0  0
  4  5  1  0  0  0
  4 94  1  0  0  0
  4 95  1  0  0  0
  5  6  1  0  0  0
  5 26  1  0  0  0
  5 96  1  0  0  0
  6 25  1  0  0  0
  6 97  1  0  0  0
  6 98  1  0  0  0
  7  8  2  0  0  0
  7 26  1  0  0  0
  7 29  1  0  0  0
  8  9  1  0  0  0
  8 22  1  0  0  0
  9 10  1  0  0  0
  9 27  2  0  0  0
 10 11  2  0  0  0
 10 15  1  0  0  0
 11 12  1  0  0  0
 11 99  1  0  0  0
 12 13  2  0  0  0
 12100  1  0  0  0
 13 14  1  0  0  0
 13 31  1  0  0  0
 14 15  2  0  0  0
 14101  1  0  0  0
 15102  1  0  0  0
 16 17  2  0  0  0
 16 21  1  0  0  0
 16 31  1  0  0  0
 17 18  1  0  0  0
 17103  1  0  0  0
 18 19  2  0  0  0
 18104  1  0  0  0
 19 20  1  0  0  0
 19 24  1  0  0  0
 20 21  2  0  0  0
 20105  1  0  0  0
 21 23  1  0  0  0
 22 28  1  0  0  0
 22 32  2  0  0  0
 26 27  1  0  0  0
 28106  1  0  0  0
 28107  1  0  0  0
 29108  1  0  0  0
 29109  1  0  0  0
 33 34  1  0  0  0
 33 66  1  0  0  0
 33 70  2  0  0  0
 34 36  1  0  0  0
 34 59  1  0  0  0
 34110  1  0  0  0
 35 44  2  0  0  0
 35 45  1  0  0  0
 35 68  1  0  0  0
 36 56  1  0  0  0
 36111  1  0  0  0
 37 39  1  0  0  0
 37 47  1  0  0  0
 37 66  1  0  0  0
 37112  1  0  0  0
 38 43  2  0  0  0
 38 46  1  0  0  0
 38 47  1  0  0  0
 39 64  1  0  0  0
 39 67  2  0  0  0
 40 52  1  0  0  0
 40 53  2  0  0  0
 40 58  1  0  0  0
 41113  1  0  0  0
 41114  1  0  0  0
 41115  1  0  0  0
 41 48  1  0  0  0
 42 43  1  0  0  0
 42 66  1  0  0  0
 42116  1  0  0  0
 42117  1  0  0  0
 43 44  1  0  0  0
 44118  1  0  0  0
 45 46  2  0  0  0
 45119  1  0  0  0
 46120  1  0  0  0
 47121  1  0  0  0
 47122  1  0  0  0
 48 56  1  0  0  0
 48 65  1  0  0  0
 48123  1  0  0  0
 49 50  1  0  0  0
 49 53  1  0  0  0
 49 64  1  0  0  0
 49124  1  0  0  0
 50 51  1  0  0  0
 50125  1  0  0  0
 50126  1  0  0  0
 51 52  1  0  0  0
 51127  1  0  0  0
 51128  1  0  0  0
 52129  1  0  0  0
 52130  1  0  0  0
 53 54  1  0  0  0
 54 55  2  0  0  0
 54131  1  0  0  0
 55 57  1  0  0  0
 55132  1  0  0  0
 56 69  2  0  0  0
 57 58  2  0  0  0
 57133  1  0  0  0
 58134  1  0  0  0
 59 60  1  0  0  0
 59 61  1  0  0  0
 59 62  1  0  0  0
 60135  1  0  0  0
 60136  1  0  0  0
 60137  1  0  0  0
 61138  1  0  0  0
 61139  1  0  0  0
 61140  1  0  0  0
 62141  1  0  0  0
 62142  1  0  0  0
 62143  1  0  0  0
 63 65  1  0  0  0
 63144  1  0  0  0
 63145  1  0  0  0
 63146  1  0  0  0
 64147  1  0  0  0
 65148  1  0  0  0
 68 89  1  0  0  0
 71 72  2  0  0  0
 71 87  1  0  0  0
 71149  1  0  0  0
 72 73  1  0  0  0
 72 79  1  0  0  0
 73 74  2  0  0  0
 73 75  1  0  0  0
 74 80  1  0  0  0
 74 87  1  0  0  0
 75150  1  0  0  0
 75151  1  0  0  0
 75152  1  0  0  0
 76153  1  0  0  0
 76154  1  0  0  0
 76155  1  0  0  0
 76 85  1  0  0  0
 77 85  1  0  0  0
 77156  1  0  0  0
 77157  1  0  0  0
 77158  1  0  0  0
 78159  1  0  0  0
 78160  1  0  0  0
 78161  1  0  0  0
 78 86  1  0  0  0
 79 88  1  0  0  0
 79162  1  0  0  0
 79163  1  0  0  0
 80 81  1  0  0  0
 80164  1  0  0  0
 80165  1  0  0  0
 81 85  1  0  0  0
 81166  1  0  0  0
 81167  1  0  0  0
 82 83  1  0  0  0
 82 86  1  0  0  0
 82168  1  0  0  0
 82169  1  0  0  0
 83 87  1  0  0  0
 83170  1  0  0  0
 83171  1  0  0  0
 84 86  1  0  0  0
 84 89  1  0  0  0
 84172  1  0  0  0
 84173  1  0  0  0
 85174  1  0  0  0
 86175  1  0  0  0
 88176  1  0  0  0
 89177  1  0  0  0
M  ISO  4   1 100  68 101  88 100  89 101
M  END
> <chiral flag>
0

> <version>
0

> <s_m_source_file>
/data/baiqing/PycharmProjects/Reinvent-master-3.2/result/LINK_invent/BTK/process_docking_weight1_custom_sum_contain_oxygen_bond_distance_aromatic_linkinvent_7_9_3/rearranged_h_0099.sdf

> <i_m_source_file_index>
70

> <r_mmod_Potential_Energy-OPLS-2005>
-86.2148132324219

> <r_mmod_Stretch_Energy-OPLS-2005>
44.010124206543

> <r_mmod_Bend_Energy-OPLS-2005>
125.881874084473

> <r_mmod_Torsional_Energy-OPLS-2005>
241.700973510742

> <r_mmod_Improper_Torsional_Energy-OPLS-2005>
2.69126629829407

> <r_mmod_Van_der_Waal_Energy-OPLS-2005>
124.037757873535

> <r_mmod_Electrostatic_Energy-OPLS-2005>
-436.160003662109

> <r_mmod_Solvation_Energy-OPLS-2005>
-207.25569152832

> <b_mmod_Minimization_Converged-OPLS-2005>
0

> <r_mmod_RMS_Derivative-OPLS-2005>
5.08935260772705

$$$$
70
                    3D
 Structure written by MMmdl.
175183  0  0  1  0            999 V2000
  -30.6888  -14.5761   20.4663 C   0  0  0  0  0  0
  -30.4107  -12.3436   19.4517 C   0  0  0  0  0  0
  -29.4926  -12.4760   18.2187 C   0  0  0  0  0  0
  -28.0147  -12.3443   18.6324 C   0  0  0  0  0  0
  -27.6458  -13.2260   19.8569 C   0  0  2  0  0  0
  -28.6928  -13.1031   20.9874 C   0  0  0  0  0  0
  -25.2509  -13.8201   20.5723 C   0  0  0  0  0  0
  -24.1797  -13.0442   20.9213 C   0  0  0  0  0  0
  -24.6390  -11.6924   20.8757 C   0  0  0  0  0  0
  -23.9079  -10.4296   21.0417 C   0  0  0  0  0  0
  -24.3624   -9.4205   21.9188 C   0  0  0  0  0  0
  -23.6301   -8.2238   22.0752 C   0  0  0  0  0  0
  -22.4282   -8.0282   21.3548 C   0  0  0  0  0  0
  -21.9928   -9.0256   20.4639 C   0  0  0  0  0  0
  -22.7257  -10.2135   20.3056 C   0  0  0  0  0  0
  -21.6849   -6.0738   22.5279 C   0  0  0  0  0  0
  -21.4012   -6.5642   23.8212 C   0  0  0  0  0  0
  -21.3665   -5.6795   24.9179 C   0  0  0  0  0  0
  -21.6040   -4.3053   24.7222 C   0  0  0  0  0  0
  -21.8823   -3.8152   23.4343 C   0  0  0  0  0  0
  -21.9192   -4.6970   22.3407 C   0  0  0  0  0  0
  -22.7814  -13.5211   21.1868 C   0  0  0  0  0  0
  -22.1656   -4.2155   21.0977 F   0  0  0  0  0  0
  -21.5630   -3.4535   25.7733 F   0  0  0  0  0  0
  -30.0083  -13.3943   20.4065 N   0  0  0  0  0  0
  -26.2949  -12.9416   20.3334 N   0  0  0  0  0  0
  -25.9323  -11.6557   20.5790 N   0  0  0  0  0  0
  -22.0469  -12.8193   22.0412 N   0  0  0  0  0  0
  -25.4167  -15.1928   20.4160 N   0  0  0  0  0  0
  -31.8723  -14.6454   20.1322 O   0  0  0  0  0  0
  -21.6639   -6.8882   21.4239 O   0  0  0  0  0  0
  -22.3497  -14.5521   20.6719 O   0  0  0  0  0  0
  -24.6205  -31.8627   23.2040 C   0  0  0  0  0  0
  -25.9073  -32.4790   23.8343 C   0  0  1  0  0  0
  -27.2203  -27.3594   20.0955 C   0  0  0  0  0  0
  -25.5902  -33.8588   24.2257 N   0  0  0  0  0  0
  -23.4108  -30.4867   21.5463 C   0  0  2  0  0  0
  -24.8528  -28.9440   20.1121 C   0  0  0  0  0  0
  -22.7442  -29.4636   22.4959 C   0  0  0  0  0  0
  -18.0268  -28.1395   22.8486 C   0  0  0  0  0  0
  -24.1492  -36.7307   23.2637 C   0  0  0  0  0  0
  -25.9486  -30.8024   21.3725 C   0  0  0  0  0  0
  -26.0195  -29.4327   20.7136 C   0  0  0  0  0  0
  -27.2029  -28.6471   20.7024 C   0  0  0  0  0  0
  -26.0273  -26.9003   19.4934 C   0  0  0  0  0  0
  -24.8551  -27.6787   19.5021 C   0  0  0  0  0  0
  -23.6215  -29.8219   20.1609 C   0  0  0  0  0  0
  -25.4117  -36.3093   24.0325 C   0  0  1  0  0  0
  -20.5868  -28.3683   23.1304 C   0  0  2  0  0  0
  -20.6779  -26.9415   22.5420 C   0  0  0  0  0  0
  -19.5753  -26.6396   21.5226 C   0  0  0  0  0  0
  -18.1921  -26.7938   22.1625 C   0  0  0  0  0  0
  -19.1525  -28.8851   23.2891 C   0  0  0  0  0  0
  -18.9453  -30.1451   23.8911 C   0  0  0  0  0  0
  -17.6457  -30.6598   24.0565 C   0  0  0  0  0  0
  -25.9053  -34.9462   23.5098 C   0  0  0  0  0  0
  -16.5346  -29.9104   23.6334 C   0  0  0  0  0  0
  -16.7258  -28.6522   23.0348 C   0  0  0  0  0  0
  -26.4464  -31.6603   25.0716 C   0  0  0  0  0  0
  -25.3688  -31.3773   26.1447 C   0  0  0  0  0  0
  -27.0299  -30.3020   24.6178 C   0  0  0  0  0  0
  -27.6007  -32.4355   25.7489 C   0  0  0  0  0  0
  -27.5587  -37.1802   24.8451 C   0  0  0  0  0  0
  -21.4163  -29.3036   22.3701 N   0  0  0  0  0  0
  -26.4295  -37.3786   23.9405 N   0  0  0  0  0  0
  -24.6780  -31.0667   22.0976 N   0  0  0  0  0  0
  -23.4199  -28.8173   23.3016 O   0  0  0  0  0  0
  -28.3764  -26.5845   20.1255 O   0  0  0  0  0  0
  -26.5634  -34.8926   22.4675 O   0  0  0  0  0  0
  -23.5384  -32.1421   23.7388 O   0  0  0  0  0  0
  -29.0420  -21.6552   20.4614 C   0  0  0  0  0  0
  -30.1636  -21.1382   21.0927 C   0  0  0  0  0  0
  -30.7541  -22.2954   21.7356 C   0  0  0  0  0  0
  -29.9358  -23.3810   21.5614 C   0  0  0  0  0  0
  -32.0630  -22.4032   22.4901 C   0  0  0  0  0  0
  -30.0528  -24.7668   22.1295 C   0  0  0  0  0  0
  -32.6430  -20.1278   17.5542 C   0  0  0  0  0  0
  -30.5488  -19.4720   23.6713 C   0  0  0  0  0  0
  -31.4611  -20.0431   18.5258 C   0  0  0  0  0  0
  -31.4444  -19.3268   22.4243 C   0  0  0  0  0  0
  -31.9153  -19.7386   19.9686 C   0  0  0  0  0  0
  -29.8244  -18.4331   20.7326 C   0  0  0  0  0  0
  -27.9070  -23.9875   20.1522 C   0  0  0  0  0  0
  -30.5768  -17.0719   20.3687 C   0  0  0  0  0  0
  -28.4510  -25.2927   19.4419 C   0  0  0  0  0  0
  -30.7850  -19.6774   21.0444 C   0  0  2  0  0  0
  -28.9303  -23.0409   20.6830 N   0  0  0  0  0  0
  -29.9800  -15.7279   20.6541 N   0  0  0  0  0  0
  -31.4572  -12.4211   19.1493 H   0  0  0  0  0  0
  -30.3038  -11.3588   19.9105 H   0  0  0  0  0  0
  -29.7408  -11.7122   17.4806 H   0  0  0  0  0  0
  -29.6579  -13.4384   17.7312 H   0  0  0  0  0  0
  -27.8338  -11.2940   18.8658 H   0  0  0  0  0  0
  -27.3646  -12.5828   17.7897 H   0  0  0  0  0  0
  -27.6581  -14.2590   19.5067 H   0  0  0  0  0  0
  -28.6862  -12.0973   21.4088 H   0  0  0  0  0  0
  -28.4632  -13.7815   21.8113 H   0  0  0  0  0  0
  -25.2768   -9.5675   22.4767 H   0  0  0  0  0  0
  -24.0015   -7.4635   22.7487 H   0  0  0  0  0  0
  -21.0857   -8.8787   19.8942 H   0  0  0  0  0  0
  -22.3728  -10.9682   19.6171 H   0  0  0  0  0  0
  -21.1993   -7.6149   23.9712 H   0  0  0  0  0  0
  -21.1489   -6.0523   25.9079 H   0  0  0  0  0  0
  -22.0593   -2.7609   23.2846 H   0  0  0  0  0  0
  -22.4113  -11.9857   22.4795 H   0  0  0  0  0  0
  -21.1076  -13.1182   22.2618 H   0  0  0  0  0  0
  -24.6500  -15.8443   20.5429 H   0  0  0  0  0  0
  -26.2616  -15.6375   20.0815 H   0  0  0  0  0  0
  -26.7139  -32.5461   23.1088 H   0  0  0  0  0  0
  -24.9993  -33.9720   25.0362 H   0  0  0  0  0  0
  -22.7032  -31.3063   21.4053 H   0  0  0  0  0  0
  -23.3761  -35.9635   23.3285 H   0  0  0  0  0  0
  -24.3575  -36.8953   22.2055 H   0  0  0  0  0  0
  -23.7242  -37.6498   23.6680 H   0  0  0  0  0  0
  -26.0819  -31.5699   20.6087 H   0  0  0  0  0  0
  -26.8294  -30.8424   22.0032 H   0  0  0  0  0  0
  -28.1024  -29.0171   21.1762 H   0  0  0  0  0  0
  -25.9708  -25.9309   19.0230 H   0  0  0  0  0  0
  -23.9555  -27.2927   19.0423 H   0  0  0  0  0  0
  -23.7346  -30.5982   19.4027 H   0  0  0  0  0  0
  -22.7428  -29.2486   19.8612 H   0  0  0  0  0  0
  -25.1298  -36.1944   25.0819 H   0  0  0  0  0  0
  -20.9941  -28.3274   24.1433 H   0  0  0  0  0  0
  -20.5726  -26.2293   23.3619 H   0  0  0  0  0  0
  -21.6646  -26.7493   22.1185 H   0  0  0  0  0  0
  -19.6935  -25.6315   21.1243 H   0  0  0  0  0  0
  -19.6700  -27.3222   20.6768 H   0  0  0  0  0  0
  -17.4200  -26.6673   21.4017 H   0  0  0  0  0  0
  -18.0306  -26.0088   22.9025 H   0  0  0  0  0  0
  -19.7935  -30.7243   24.2317 H   0  0  0  0  0  0
  -17.5022  -31.6284   24.5156 H   0  0  0  0  0  0
  -15.5350  -30.3009   23.7672 H   0  0  0  0  0  0
  -15.8653  -28.0853   22.7065 H   0  0  0  0  0  0
  -24.5798  -30.7202   25.7766 H   0  0  0  0  0  0
  -24.8951  -32.2965   26.4905 H   0  0  0  0  0  0
  -25.7977  -30.8891   27.0205 H   0  0  0  0  0  0
  -26.2873  -29.6801   24.1165 H   0  0  0  0  0  0
  -27.3937  -29.7254   25.4688 H   0  0  0  0  0  0
  -27.8771  -30.4289   23.9436 H   0  0  0  0  0  0
  -27.2583  -33.3645   26.2068 H   0  0  0  0  0  0
  -28.3814  -32.6952   25.0325 H   0  0  0  0  0  0
  -28.0687  -31.8494   26.5411 H   0  0  0  0  0  0
  -28.2575  -38.0125   24.7531 H   0  0  0  0  0  0
  -28.1108  -36.2654   24.6236 H   0  0  0  0  0  0
  -27.2300  -37.1408   25.8848 H   0  0  0  0  0  0
  -20.9341  -29.8750   21.6904 H   0  0  0  0  0  0
  -26.0185  -38.2863   24.1409 H   0  0  0  0  0  0
  -28.3226  -21.1550   19.8258 H   0  0  0  0  0  0
  -32.8744  -21.9124   21.9573 H   0  0  0  0  0  0
  -31.9782  -21.9827   23.4910 H   0  0  0  0  0  0
  -32.3717  -23.4407   22.6036 H   0  0  0  0  0  0
  -30.5561  -24.7581   23.0959 H   0  0  0  0  0  0
  -29.0733  -25.2138   22.2991 H   0  0  0  0  0  0
  -30.6187  -25.4211   21.4650 H   0  0  0  0  0  0
  -32.3067  -20.3941   16.5518 H   0  0  0  0  0  0
  -33.1688  -19.1745   17.4864 H   0  0  0  0  0  0
  -33.3628  -20.8849   17.8708 H   0  0  0  0  0  0
  -31.1206  -19.2493   24.5734 H   0  0  0  0  0  0
  -29.7031  -18.7870   23.6554 H   0  0  0  0  0  0
  -30.1555  -20.4808   23.7854 H   0  0  0  0  0  0
  -30.7655  -19.2800   18.1772 H   0  0  0  0  0  0
  -30.9215  -20.9899   18.4929 H   0  0  0  0  0  0
  -31.8350  -18.3145   22.4364 H   0  0  0  0  0  0
  -32.3490  -19.9047   22.5773 H   0  0  0  0  0  0
  -32.6345  -20.5064   20.2507 H   0  0  0  0  0  0
  -32.5020  -18.8216   19.9628 H   0  0  0  0  0  0
  -29.1482  -18.2686   21.5702 H   0  0  0  0  0  0
  -29.1673  -18.6866   19.9003 H   0  0  0  0  0  0
  -27.3044  -23.4368   19.4291 H   0  0  0  0  0  0
  -27.2203  -24.2545   20.9555 H   0  0  0  0  0  0
  -30.8094  -17.1014   19.3027 H   0  0  0  0  0  0
  -31.5507  -17.0488   20.8489 H   0  0  0  0  0  0
  -27.9985  -25.3848   18.4549 H   0  0  0  0  0  0
  -29.5053  -25.1331   19.2162 H   0  0  0  0  0  0
  -28.9959  -15.6601   20.8668 H   0  0  0  0  0  0
  1 25  1  0  0  0
  1 30  2  0  0  0
  1 88  1  0  0  0
  2  3  1  0  0  0
  2 25  1  0  0  0
  2 89  1  0  0  0
  2 90  1  0  0  0
  3  4  1  0  0  0
  3 91  1  0  0  0
  3 92  1  0  0  0
  4  5  1  0  0  0
  4 93  1  0  0  0
  4 94  1  0  0  0
  5  6  1  0  0  0
  5 26  1  0  0  0
  5 95  1  0  0  0
  6 25  1  0  0  0
  6 96  1  0  0  0
  6 97  1  0  0  0
  7  8  2  0  0  0
  7 26  1  0  0  0
  7 29  1  0  0  0
  8  9  1  0  0  0
  8 22  1  0  0  0
  9 10  1  0  0  0
  9 27  2  0  0  0
 10 11  2  0  0  0
 10 15  1  0  0  0
 11 12  1  0  0  0
 11 98  1  0  0  0
 12 13  2  0  0  0
 12 99  1  0  0  0
 13 14  1  0  0  0
 13 31  1  0  0  0
 14 15  2  0  0  0
 14100  1  0  0  0
 15101  1  0  0  0
 16 17  2  0  0  0
 16 21  1  0  0  0
 16 31  1  0  0  0
 17 18  1  0  0  0
 17102  1  0  0  0
 18 19  2  0  0  0
 18103  1  0  0  0
 19 20  1  0  0  0
 19 24  1  0  0  0
 20 21  2  0  0  0
 20104  1  0  0  0
 21 23  1  0  0  0
 22 28  1  0  0  0
 22 32  2  0  0  0
 26 27  1  0  0  0
 28105  1  0  0  0
 28106  1  0  0  0
 29107  1  0  0  0
 29108  1  0  0  0
 33 34  1  0  0  0
 33 66  1  0  0  0
 33 70  2  0  0  0
 34 36  1  0  0  0
 34 59  1  0  0  0
 34109  1  0  0  0
 35 44  2  0  0  0
 35 45  1  0  0  0
 35 68  1  0  0  0
 36 56  1  0  0  0
 36110  1  0  0  0
 37 39  1  0  0  0
 37 47  1  0  0  0
 37 66  1  0  0  0
 37111  1  0  0  0
 38 43  2  0  0  0
 38 46  1  0  0  0
 38 47  1  0  0  0
 39 64  1  0  0  0
 39 67  2  0  0  0
 40 52  1  0  0  0
 40 53  2  0  0  0
 40 58  1  0  0  0
 41112  1  0  0  0
 41113  1  0  0  0
 41114  1  0  0  0
 41 48  1  0  0  0
 42 43  1  0  0  0
 42 66  1  0  0  0
 42115  1  0  0  0
 42116  1  0  0  0
 43 44  1  0  0  0
 44117  1  0  0  0
 45 46  2  0  0  0
 45118  1  0  0  0
 46119  1  0  0  0
 47120  1  0  0  0
 47121  1  0  0  0
 48 56  1  0  0  0
 48 65  1  0  0  0
 48122  1  0  0  0
 49 50  1  0  0  0
 49 53  1  0  0  0
 49 64  1  0  0  0
 49123  1  0  0  0
 50 51  1  0  0  0
 50124  1  0  0  0
 50125  1  0  0  0
 51 52  1  0  0  0
 51126  1  0  0  0
 51127  1  0  0  0
 52128  1  0  0  0
 52129  1  0  0  0
 53 54  1  0  0  0
 54 55  2  0  0  0
 54130  1  0  0  0
 55 57  1  0  0  0
 55131  1  0  0  0
 56 69  2  0  0  0
 57 58  2  0  0  0
 57132  1  0  0  0
 58133  1  0  0  0
 59 60  1  0  0  0
 59 61  1  0  0  0
 59 62  1  0  0  0
 60134  1  0  0  0
 60135  1  0  0  0
 60136  1  0  0  0
 61137  1  0  0  0
 61138  1  0  0  0
 61139  1  0  0  0
 62140  1  0  0  0
 62141  1  0  0  0
 62142  1  0  0  0
 63 65  1  0  0  0
 63143  1  0  0  0
 63144  1  0  0  0
 63145  1  0  0  0
 64146  1  0  0  0
 65147  1  0  0  0
 68 85  1  0  0  0
 71 72  2  0  0  0
 71 87  1  0  0  0
 71148  1  0  0  0
 72 73  1  0  0  0
 72 86  1  0  0  0
 73 74  2  0  0  0
 73 75  1  0  0  0
 74 76  1  0  0  0
 74 87  1  0  0  0
 75149  1  0  0  0
 75150  1  0  0  0
 75151  1  0  0  0
 76152  1  0  0  0
 76153  1  0  0  0
 76154  1  0  0  0
 77 79  1  0  0  0
 77155  1  0  0  0
 77156  1  0  0  0
 77157  1  0  0  0
 78 80  1  0  0  0
 78158  1  0  0  0
 78159  1  0  0  0
 78160  1  0  0  0
 79 81  1  0  0  0
 79161  1  0  0  0
 79162  1  0  0  0
 80163  1  0  0  0
 80164  1  0  0  0
 80 86  1  0  0  0
 81 86  1  0  0  0
 81165  1  0  0  0
 81166  1  0  0  0
 82 84  1  0  0  0
 82 86  1  0  0  0
 82167  1  0  0  0
 82168  1  0  0  0
 83 85  1  0  0  0
 83 87  1  0  0  0
 83169  1  0  0  0
 83170  1  0  0  0
 84 88  1  0  0  0
 84171  1  0  0  0
 84172  1  0  0  0
 85173  1  0  0  0
 85174  1  0  0  0
 88175  1  0  0  0
M  ISO  4   1 100  68 101  85 101  88 100
M  END
> <chiral flag>
0

> <version>
0

> <s_m_source_file>
/data/baiqing/PycharmProjects/Reinvent-master-3.2/result/LINK_invent/BTK/process_docking_weight1_custom_sum_contain_oxygen_bond_distance_aromatic_linkinvent_7_9_3/rearranged_h_0099.sdf

> <i_m_source_file_index>
71

> <r_mmod_Potential_Energy-OPLS-2005>
60.1472320556641

> <r_mmod_Stretch_Energy-OPLS-2005>
75.863166809082

> <r_mmod_Bend_Energy-OPLS-2005>
159.3359375

> <r_mmod_Torsional_Energy-OPLS-2005>
240.11376953125

> <r_mmod_Improper_Torsional_Energy-OPLS-2005>
6.52847862243652

> <r_mmod_Van_der_Waal_Energy-OPLS-2005>
142.391220092773

> <r_mmod_Electrostatic_Energy-OPLS-2005>
-400.379730224609

> <r_mmod_Solvation_Energy-OPLS-2005>
-198.461791992188

> <b_mmod_Minimization_Converged-OPLS-2005>
0

> <r_mmod_RMS_Derivative-OPLS-2005>
2.03904461860657

$$$$
71
                    3D
 Structure written by MMmdl.
183191  0  0  1  0            999 V2000
  -30.9046  -14.2096   20.8330 C   0  0  0  0  0  0
  -30.3969  -12.2741   19.3776 C   0  0  0  0  0  0
  -29.4709  -12.5279   18.1803 C   0  0  0  0  0  0
  -28.0067  -12.3717   18.6187 C   0  0  0  0  0  0
  -27.6663  -13.2171   19.8743 C   0  0  2  0  0  0
  -28.7036  -13.0210   21.0054 C   0  0  0  0  0  0
  -25.2536  -13.8192   20.5724 C   0  0  0  0  0  0
  -24.1829  -13.0452   20.9209 C   0  0  0  0  0  0
  -24.6425  -11.6931   20.8769 C   0  0  0  0  0  0
  -23.9085  -10.4290   21.0449 C   0  0  0  0  0  0
  -24.3608   -9.4187   21.9222 C   0  0  0  0  0  0
  -23.6273   -8.2243   22.0769 C   0  0  0  0  0  0
  -22.4282   -8.0244   21.3531 C   0  0  0  0  0  0
  -21.9925   -9.0253   20.4661 C   0  0  0  0  0  0
  -22.7274  -10.2134   20.3087 C   0  0  0  0  0  0
  -21.6872   -6.0723   22.5271 C   0  0  0  0  0  0
  -21.4012   -6.5617   23.8206 C   0  0  0  0  0  0
  -21.3649   -5.6790   24.9186 C   0  0  0  0  0  0
  -21.6081   -4.3067   24.7257 C   0  0  0  0  0  0
  -21.8804   -3.8122   23.4376 C   0  0  0  0  0  0
  -21.9172   -4.6928   22.3407 C   0  0  0  0  0  0
  -22.7832  -13.5187   21.1916 C   0  0  0  0  0  0
  -22.1650   -4.2097   21.0994 F   0  0  0  0  0  0
  -21.5650   -3.4531   25.7767 F   0  0  0  0  0  0
  -30.0678  -13.2005   20.4710 N   0  0  0  0  0  0
  -26.3023  -12.9438   20.3367 N   0  0  0  0  0  0
  -25.9352  -11.6553   20.5761 N   0  0  0  0  0  0
  -22.0475  -12.8187   22.0463 N   0  0  0  0  0  0
  -25.4225  -15.1925   20.4170 N   0  0  0  0  0  0
  -31.6175  -14.8135   20.0292 O   0  0  0  0  0  0
  -21.6642   -6.8861   21.4237 O   0  0  0  0  0  0
  -22.3519  -14.5519   20.6782 O   0  0  0  0  0  0
  -24.6154  -31.8748   23.2129 C   0  0  0  0  0  0
  -25.9026  -32.4876   23.8440 C   0  0  1  0  0  0
  -27.2073  -27.4195   20.0718 C   0  0  0  0  0  0
  -25.5839  -33.8658   24.2399 N   0  0  0  0  0  0
  -23.3959  -30.5016   21.5635 C   0  0  2  0  0  0
  -24.8282  -28.9578   20.1225 C   0  0  0  0  0  0
  -22.7328  -29.4737   22.5042 C   0  0  0  0  0  0
  -18.0205  -28.1303   22.8447 C   0  0  0  0  0  0
  -24.1489  -36.7381   23.2636 C   0  0  0  0  0  0
  -25.9277  -30.8307   21.3663 C   0  0  0  0  0  0
  -25.9973  -29.4651   20.7033 C   0  0  0  0  0  0
  -27.1898  -28.6997   20.6716 C   0  0  0  0  0  0
  -26.0173  -26.9388   19.4703 C   0  0  0  0  0  0
  -24.8283  -27.6892   19.5154 C   0  0  0  0  0  0
  -23.5983  -29.8327   20.1819 C   0  0  0  0  0  0
  -25.4100  -36.3180   24.0375 C   0  0  1  0  0  0
  -20.5776  -28.3648   23.1262 C   0  0  2  0  0  0
  -20.6714  -26.9416   22.5366 C   0  0  0  0  0  0
  -19.5751  -26.6373   21.5105 C   0  0  0  0  0  0
  -18.1894  -26.7854   22.1530 C   0  0  0  0  0  0
  -19.1443  -28.8761   23.2837 C   0  0  0  0  0  0
  -18.9460  -30.1338   23.8912 C   0  0  0  0  0  0
  -17.6505  -30.6556   24.0499 C   0  0  0  0  0  0
  -25.9001  -34.9536   23.5197 C   0  0  0  0  0  0
  -16.5345  -29.9107   23.6293 C   0  0  0  0  0  0
  -16.7214  -28.6460   23.0380 C   0  0  0  0  0  0
  -26.4409  -31.6640   25.0779 C   0  0  0  0  0  0
  -25.3673  -31.3699   26.1530 C   0  0  0  0  0  0
  -27.0278  -30.3101   24.6117 C   0  0  0  0  0  0
  -27.6004  -32.4366   25.7508 C   0  0  0  0  0  0
  -27.5636  -37.1801   24.8445 C   0  0  0  0  0  0
  -21.4059  -29.3076   22.3745 N   0  0  0  0  0  0
  -26.4326  -37.3858   23.9401 N   0  0  0  0  0  0
  -24.6676  -31.0786   22.1082 N   0  0  0  0  0  0
  -23.4071  -28.8310   23.3131 O   0  0  0  0  0  0
  -28.3705  -26.6749   20.0967 O   0  0  0  0  0  0
  -26.5617  -34.8982   22.4784 O   0  0  0  0  0  0
  -23.5326  -32.1585   23.7458 O   0  0  0  0  0  0
  -34.8715  -17.6751   22.7006 C   0  0  0  0  0  0
  -34.6509  -16.6881   23.6632 C   0  0  0  0  0  0
  -33.7893  -18.1545   21.9575 C   0  0  0  0  0  0
  -33.3607  -16.1420   23.8518 C   0  0  0  0  0  0
  -32.4913  -17.6146   22.0957 C   0  0  0  0  0  0
  -32.2976  -16.4716   22.9556 C   0  0  0  0  0  0
  -33.5557  -16.0082   26.3887 C   0  0  0  0  0  0
  -33.5669  -12.4837   21.3132 C   0  0  0  0  0  0
  -30.5864  -22.4887   22.7041 C   0  0  0  0  0  0
  -33.2067  -15.2586   25.0918 C   0  0  0  0  0  0
  -31.3623  -18.3490   21.3474 C   0  0  0  0  0  0
  -31.0090  -15.6071   22.9049 C   0  0  0  0  0  0
  -32.9793  -12.6445   22.7187 C   0  0  0  0  0  0
  -31.5734  -19.8972   21.2102 C   0  0  0  0  0  0
  -29.4899  -24.5102   20.5096 C   0  0  0  0  0  0
  -31.5055  -13.0876   22.9170 C   0  0  0  0  0  0
  -30.2853  -20.7425   20.9808 C   0  0  0  0  0  0
  -29.2589  -22.9807   20.6772 C   0  0  0  0  0  0
  -28.2064  -25.2476   20.0732 C   0  0  0  0  0  0
  -31.1024  -14.3087   22.1742 N   0  0  0  0  0  0
  -30.4135  -22.2109   21.2521 N   0  3  1  0  0  0
  -31.4442  -12.3501   19.0833 H   0  0  0  0  0  0
  -30.2648  -11.2474   19.7300 H   0  0  0  0  0  0
  -29.6947  -11.8258   17.3759 H   0  0  0  0  0  0
  -29.6426  -13.5201   17.7710 H   0  0  0  0  0  0
  -27.8397  -11.3152   18.8333 H   0  0  0  0  0  0
  -27.3338  -12.6312   17.7997 H   0  0  0  0  0  0
  -27.7043  -14.2655   19.5627 H   0  0  0  0  0  0
  -28.6037  -12.0296   21.4489 H   0  0  0  0  0  0
  -28.4968  -13.7437   21.7982 H   0  0  0  0  0  0
  -25.2750   -9.5670   22.4786 H   0  0  0  0  0  0
  -23.9975   -7.4632   22.7484 H   0  0  0  0  0  0
  -21.0841   -8.8783   19.8933 H   0  0  0  0  0  0
  -22.3727  -10.9678   19.6156 H   0  0  0  0  0  0
  -21.1993   -7.6128   23.9694 H   0  0  0  0  0  0
  -21.1517   -6.0538   25.9095 H   0  0  0  0  0  0
  -22.0581   -2.7563   23.2923 H   0  0  0  0  0  0
  -22.4047  -11.9840   22.4856 H   0  0  0  0  0  0
  -21.1078  -13.1177   22.2673 H   0  0  0  0  0  0
  -24.6586  -15.8486   20.5432 H   0  0  0  0  0  0
  -26.2790  -15.6340   20.1058 H   0  0  0  0  0  0
  -26.7131  -32.5624   23.1244 H   0  0  0  0  0  0
  -24.9801  -33.9739   25.0419 H   0  0  0  0  0  0
  -22.6873  -31.3224   21.4300 H   0  0  0  0  0  0
  -23.3764  -35.9703   23.3298 H   0  0  0  0  0  0
  -24.3507  -36.9034   22.2037 H   0  0  0  0  0  0
  -23.7240  -37.6578   23.6655 H   0  0  0  0  0  0
  -26.0229  -31.6025   20.6004 H   0  0  0  0  0  0
  -26.8216  -30.8806   21.9793 H   0  0  0  0  0  0
  -28.1007  -29.0683   21.1253 H   0  0  0  0  0  0
  -25.9923  -25.9934   18.9396 H   0  0  0  0  0  0
  -23.9172  -27.2940   19.0864 H   0  0  0  0  0  0
  -23.6874  -30.6074   19.4211 H   0  0  0  0  0  0
  -22.7115  -29.2601   19.9018 H   0  0  0  0  0  0
  -25.1246  -36.2125   25.0883 H   0  0  0  0  0  0
  -20.9771  -28.3308   24.1411 H   0  0  0  0  0  0
  -20.5521  -26.2328   23.3580 H   0  0  0  0  0  0
  -21.6641  -26.7464   22.1265 H   0  0  0  0  0  0
  -19.7002  -25.6262   21.1242 H   0  0  0  0  0  0
  -19.6699  -27.3090   20.6546 H   0  0  0  0  0  0
  -17.4146  -26.6447   21.3967 H   0  0  0  0  0  0
  -18.0400  -25.9939   22.8888 H   0  0  0  0  0  0
  -19.7983  -30.6942   24.2482 H   0  0  0  0  0  0
  -17.5149  -31.6279   24.5049 H   0  0  0  0  0  0
  -15.5385  -30.3037   23.7647 H   0  0  0  0  0  0
  -15.8567  -28.0757   22.7280 H   0  0  0  0  0  0
  -24.5803  -30.7090   25.7854 H   0  0  0  0  0  0
  -24.8821  -32.2791   26.5075 H   0  0  0  0  0  0
  -25.8004  -30.8788   27.0276 H   0  0  0  0  0  0
  -26.2861  -29.6749   24.1214 H   0  0  0  0  0  0
  -27.4126  -29.7360   25.4557 H   0  0  0  0  0  0
  -27.8675  -30.4421   23.9296 H   0  0  0  0  0  0
  -27.2663  -33.3664   26.2112 H   0  0  0  0  0  0
  -28.3765  -32.6915   25.0292 H   0  0  0  0  0  0
  -28.0742  -31.8500   26.5379 H   0  0  0  0  0  0
  -28.2598  -38.0163   24.7532 H   0  0  0  0  0  0
  -28.1231  -36.2657   24.6259 H   0  0  0  0  0  0
  -27.2285  -37.1410   25.8838 H   0  0  0  0  0  0
  -20.9294  -29.8890   21.7004 H   0  0  0  0  0  0
  -26.0295  -38.3003   24.1368 H   0  0  0  0  0  0
  -35.8513  -18.1134   22.5723 H   0  0  0  0  0  0
  -35.4781  -16.3772   24.2857 H   0  0  0  0  0  0
  -33.9861  -18.9710   21.2798 H   0  0  0  0  0  0
  -33.4693  -15.3409   27.2484 H   0  0  0  0  0  0
  -32.9118  -16.8754   26.5486 H   0  0  0  0  0  0
  -34.5879  -16.3533   26.3651 H   0  0  0  0  0  0
  -34.5947  -12.1281   21.4007 H   0  0  0  0  0  0
  -33.6431  -13.4337   20.7827 H   0  0  0  0  0  0
  -33.0119  -11.7588   20.7154 H   0  0  0  0  0  0
  -31.4823  -22.0199   23.1062 H   0  0  0  0  0  0
  -29.7278  -22.1084   23.2544 H   0  0  0  0  0  0
  -30.6972  -23.5491   22.9216 H   0  0  0  0  0  0
  -33.9123  -14.4360   24.9946 H   0  0  0  0  0  0
  -32.2205  -14.8140   25.2060 H   0  0  0  0  0  0
  -30.4325  -18.2099   21.8892 H   0  0  0  0  0  0
  -31.2334  -17.8828   20.3692 H   0  0  0  0  0  0
  -30.1925  -16.1700   22.4601 H   0  0  0  0  0  0
  -30.6412  -15.4309   23.9174 H   0  0  0  0  0  0
  -33.6227  -13.3486   23.2290 H   0  0  0  0  0  0
  -33.1139  -11.6776   23.2081 H   0  0  0  0  0  0
  -32.2989  -20.1164   20.4222 H   0  0  0  0  0  0
  -32.0455  -20.2401   22.1307 H   0  0  0  0  0  0
  -30.2583  -24.6711   19.7529 H   0  0  0  0  0  0
  -29.8504  -24.9728   21.4282 H   0  0  0  0  0  0
  -31.3386  -13.2297   23.9841 H   0  0  0  0  0  0
  -30.8558  -12.2399   22.6805 H   0  0  0  0  0  0
  -29.4896  -20.3524   21.6140 H   0  0  0  0  0  0
  -29.9673  -20.5964   19.9466 H   0  0  0  0  0  0
  -29.0052  -22.5833   19.6916 H   0  0  0  0  0  0
  -28.3719  -22.7976   21.2857 H   0  0  0  0  0  0
  -27.3847  -24.9711   20.7353 H   0  0  0  0  0  0
  -27.9255  -24.9179   19.0726 H   0  0  0  0  0  0
  -31.2402  -22.5461   20.7754 H   0  0  0  0  0  0
  1 25  1  0  0  0
  1 30  2  0  0  0
  1 90  1  0  0  0
  2  3  1  0  0  0
  2 25  1  0  0  0
  2 92  1  0  0  0
  2 93  1  0  0  0
  3  4  1  0  0  0
  3 94  1  0  0  0
  3 95  1  0  0  0
  4  5  1  0  0  0
  4 96  1  0  0  0
  4 97  1  0  0  0
  5  6  1  0  0  0
  5 26  1  0  0  0
  5 98  1  0  0  0
  6 25  1  0  0  0
  6 99  1  0  0  0
  6100  1  0  0  0
  7  8  2  0  0  0
  7 26  1  0  0  0
  7 29  1  0  0  0
  8  9  1  0  0  0
  8 22  1  0  0  0
  9 10  1  0  0  0
  9 27  2  0  0  0
 10 11  2  0  0  0
 10 15  1  0  0  0
 11 12  1  0  0  0
 11101  1  0  0  0
 12 13  2  0  0  0
 12102  1  0  0  0
 13 14  1  0  0  0
 13 31  1  0  0  0
 14 15  2  0  0  0
 14103  1  0  0  0
 15104  1  0  0  0
 16 17  2  0  0  0
 16 21  1  0  0  0
 16 31  1  0  0  0
 17 18  1  0  0  0
 17105  1  0  0  0
 18 19  2  0  0  0
 18106  1  0  0  0
 19 20  1  0  0  0
 19 24  1  0  0  0
 20 21  2  0  0  0
 20107  1  0  0  0
 21 23  1  0  0  0
 22 28  1  0  0  0
 22 32  2  0  0  0
 26 27  1  0  0  0
 28108  1  0  0  0
 28109  1  0  0  0
 29110  1  0  0  0
 29111  1  0  0  0
 33 34  1  0  0  0
 33 66  1  0  0  0
 33 70  2  0  0  0
 34 36  1  0  0  0
 34 59  1  0  0  0
 34112  1  0  0  0
 35 44  2  0  0  0
 35 45  1  0  0  0
 35 68  1  0  0  0
 36 56  1  0  0  0
 36113  1  0  0  0
 37 39  1  0  0  0
 37 47  1  0  0  0
 37 66  1  0  0  0
 37114  1  0  0  0
 38 43  2  0  0  0
 38 46  1  0  0  0
 38 47  1  0  0  0
 39 64  1  0  0  0
 39 67  2  0  0  0
 40 52  1  0  0  0
 40 53  2  0  0  0
 40 58  1  0  0  0
 41115  1  0  0  0
 41116  1  0  0  0
 41117  1  0  0  0
 41 48  1  0  0  0
 42 43  1  0  0  0
 42 66  1  0  0  0
 42118  1  0  0  0
 42119  1  0  0  0
 43 44  1  0  0  0
 44120  1  0  0  0
 45 46  2  0  0  0
 45121  1  0  0  0
 46122  1  0  0  0
 47123  1  0  0  0
 47124  1  0  0  0
 48 56  1  0  0  0
 48 65  1  0  0  0
 48125  1  0  0  0
 49 50  1  0  0  0
 49 53  1  0  0  0
 49 64  1  0  0  0
 49126  1  0  0  0
 50 51  1  0  0  0
 50127  1  0  0  0
 50128  1  0  0  0
 51 52  1  0  0  0
 51129  1  0  0  0
 51130  1  0  0  0
 52131  1  0  0  0
 52132  1  0  0  0
 53 54  1  0  0  0
 54 55  2  0  0  0
 54133  1  0  0  0
 55 57  1  0  0  0
 55134  1  0  0  0
 56 69  2  0  0  0
 57 58  2  0  0  0
 57135  1  0  0  0
 58136  1  0  0  0
 59 60  1  0  0  0
 59 61  1  0  0  0
 59 62  1  0  0  0
 60137  1  0  0  0
 60138  1  0  0  0
 60139  1  0  0  0
 61140  1  0  0  0
 61141  1  0  0  0
 61142  1  0  0  0
 62143  1  0  0  0
 62144  1  0  0  0
 62145  1  0  0  0
 63 65  1  0  0  0
 63146  1  0  0  0
 63147  1  0  0  0
 63148  1  0  0  0
 64149  1  0  0  0
 65150  1  0  0  0
 68 89  1  0  0  0
 71 72  2  0  0  0
 71 73  1  0  0  0
 71151  1  0  0  0
 72 74  1  0  0  0
 72152  1  0  0  0
 73 75  2  0  0  0
 73153  1  0  0  0
 74 76  2  0  0  0
 74 80  1  0  0  0
 75 76  1  0  0  0
 75 81  1  0  0  0
 76 82  1  0  0  0
 77 80  1  0  0  0
 77154  1  0  0  0
 77155  1  0  0  0
 77156  1  0  0  0
 78 83  1  0  0  0
 78157  1  0  0  0
 78158  1  0  0  0
 78159  1  0  0  0
 79160  1  0  0  0
 79161  1  0  0  0
 79162  1  0  0  0
 79 91  1  0  0  0
 80163  1  0  0  0
 80164  1  0  0  0
 81 84  1  0  0  0
 81165  1  0  0  0
 81166  1  0  0  0
 82 90  1  0  0  0
 82167  1  0  0  0
 82168  1  0  0  0
 83 86  1  0  0  0
 83169  1  0  0  0
 83170  1  0  0  0
 84 87  1  0  0  0
 84171  1  0  0  0
 84172  1  0  0  0
 85 88  1  0  0  0
 85 89  1  0  0  0
 85173  1  0  0  0
 85174  1  0  0  0
 86 90  1  0  0  0
 86175  1  0  0  0
 86176  1  0  0  0
 87 91  1  0  0  0
 87177  1  0  0  0
 87178  1  0  0  0
 88 91  1  0  0  0
 88179  1  0  0  0
 88180  1  0  0  0
 89181  1  0  0  0
 89182  1  0  0  0
 91183  1  0  0  0
M  CHG  1  91   1
M  ISO  4   1 100  68 101  89 101  90 100
M  END
> <chiral flag>
0

> <version>
0

> <s_m_source_file>
/data/baiqing/PycharmProjects/Reinvent-master-3.2/result/LINK_invent/BTK/process_docking_weight1_custom_sum_contain_oxygen_bond_distance_aromatic_linkinvent_7_9_3/rearranged_h_0099.sdf

> <i_m_source_file_index>
72

> <r_mmod_Potential_Energy-OPLS-2005>
85.3147964477539

> <r_mmod_Stretch_Energy-OPLS-2005>
55.2558631896973

> <r_mmod_Bend_Energy-OPLS-2005>
118.361518859863

> <r_mmod_Torsional_Energy-OPLS-2005>
347.1025390625

> <r_mmod_Improper_Torsional_Energy-OPLS-2005>
6.06586933135986

> <r_mmod_Van_der_Waal_Energy-OPLS-2005>
160.309127807617

> <r_mmod_Electrostatic_Energy-OPLS-2005>
-202.018371582031

> <r_mmod_Solvation_Energy-OPLS-2005>
-423.126525878906

> <b_mmod_Minimization_Converged-OPLS-2005>
0

> <r_mmod_RMS_Derivative-OPLS-2005>
9.97067642211914

$$$$
72
                    3D
 Structure written by MMmdl.
174182  0  0  1  0            999 V2000
  -30.5081  -14.9662   20.3685 C   0  0  0  0  0  0
  -30.4499  -12.5932   19.4920 C   0  0  0  0  0  0
  -29.5267  -12.5201   18.2531 C   0  0  0  0  0  0
  -28.0619  -12.2980   18.6787 C   0  0  0  0  0  0
  -27.6298  -13.2421   19.8296 C   0  0  2  0  0  0
  -28.6704  -13.2787   20.9669 C   0  0  0  0  0  0
  -25.2498  -13.8181   20.5669 C   0  0  0  0  0  0
  -24.1802  -13.0424   20.9192 C   0  0  0  0  0  0
  -24.6393  -11.6924   20.8719 C   0  0  0  0  0  0
  -23.9064  -10.4305   21.0375 C   0  0  0  0  0  0
  -24.3605   -9.4226   21.9173 C   0  0  0  0  0  0
  -23.6290   -8.2265   22.0770 C   0  0  0  0  0  0
  -22.4274   -8.0288   21.3550 C   0  0  0  0  0  0
  -21.9887   -9.0244   20.4645 C   0  0  0  0  0  0
  -22.7204  -10.2129   20.3045 C   0  0  0  0  0  0
  -21.6843   -6.0721   22.5266 C   0  0  0  0  0  0
  -21.4001   -6.5623   23.8192 C   0  0  0  0  0  0
  -21.3689   -5.6787   24.9169 C   0  0  0  0  0  0
  -21.6049   -4.3048   24.7214 C   0  0  0  0  0  0
  -21.8829   -3.8118   23.4339 C   0  0  0  0  0  0
  -21.9199   -4.6953   22.3390 C   0  0  0  0  0  0
  -22.7797  -13.5213   21.1868 C   0  0  0  0  0  0
  -22.1663   -4.2128   21.0983 F   0  0  0  0  0  0
  -21.5683   -3.4553   25.7748 F   0  0  0  0  0  0
  -29.9441  -13.6935   20.3633 N   0  0  0  0  0  0
  -26.2906  -12.9409   20.3180 N   0  0  0  0  0  0
  -25.9321  -11.6550   20.5665 N   0  0  0  0  0  0
  -22.0384  -12.8206   22.0406 N   0  0  0  0  0  0
  -25.4205  -15.1899   20.4132 N   0  0  0  0  0  0
  -31.7096  -15.0494   20.1000 O   0  0  0  0  0  0
  -21.6662   -6.8867   21.4214 O   0  0  0  0  0  0
  -22.3528  -14.5519   20.6701 O   0  0  0  0  0  0
  -24.6435  -31.8437   23.1854 C   0  0  0  0  0  0
  -25.9208  -32.4707   23.8213 C   0  0  1  0  0  0
  -27.2150  -27.1128   20.1460 C   0  0  0  0  0  0
  -25.5949  -33.8496   24.2166 N   0  0  0  0  0  0
  -23.4470  -30.4585   21.5370 C   0  0  2  0  0  0
  -24.8944  -28.8765   20.1138 C   0  0  0  0  0  0
  -22.7567  -29.4545   22.4937 C   0  0  0  0  0  0
  -18.0286  -28.1421   22.8511 C   0  0  0  0  0  0
  -24.1496  -36.7258   23.2629 C   0  0  0  0  0  0
  -26.0005  -30.7076   21.3856 C   0  0  0  0  0  0
  -26.0740  -29.3126   20.7349 C   0  0  0  0  0  0
  -27.2317  -28.4422   20.7366 C   0  0  0  0  0  0
  -26.0157  -26.7910   19.4730 C   0  0  0  0  0  0
  -24.8806  -27.6341   19.4636 C   0  0  0  0  0  0
  -23.6699  -29.7782   20.1617 C   0  0  0  0  0  0
  -25.4110  -36.3036   24.0303 C   0  0  1  0  0  0
  -20.5887  -28.3750   23.1276 C   0  0  2  0  0  0
  -20.6786  -26.9451   22.5445 C   0  0  0  0  0  0
  -19.5766  -26.6443   21.5231 C   0  0  0  0  0  0
  -18.1930  -26.7964   22.1635 C   0  0  0  0  0  0
  -19.1531  -28.8908   23.2888 C   0  0  0  0  0  0
  -18.9458  -30.1501   23.8924 C   0  0  0  0  0  0
  -17.6459  -30.6630   24.0577 C   0  0  0  0  0  0
  -25.9081  -34.9424   23.5047 C   0  0  0  0  0  0
  -16.5341  -29.9132   23.6359 C   0  0  0  0  0  0
  -16.7262  -28.6535   23.0386 C   0  0  0  0  0  0
  -26.4537  -31.6538   25.0630 C   0  0  0  0  0  0
  -25.3695  -31.3731   26.1313 C   0  0  0  0  0  0
  -27.0358  -30.2914   24.6164 C   0  0  0  0  0  0
  -27.6106  -32.4242   25.7442 C   0  0  0  0  0  0
  -27.5569  -37.1755   24.8465 C   0  0  0  0  0  0
  -21.4263  -29.3054   22.3640 N   0  0  0  0  0  0
  -26.4305  -37.3731   23.9408 N   0  0  0  0  0  0
  -24.7172  -31.0256   22.0914 N   0  0  0  0  0  0
  -23.4186  -28.8099   23.3111 O   0  0  0  0  0  0
  -28.2703  -26.1237   20.2338 O   0  0  0  0  0  0
  -26.5678  -34.8931   22.4636 O   0  0  0  0  0  0
  -23.5556  -32.1360   23.7059 O   0  0  0  0  0  0
  -28.6658  -18.8928   23.5209 C   0  0  0  0  0  0
  -28.7767  -18.2317   22.2973 C   0  0  0  0  0  0
  -29.3842  -20.9312   22.4525 C   0  0  0  0  0  0
  -29.1550  -20.1983   23.6289 C   0  0  0  0  0  0
  -29.2401  -18.8559   21.1121 C   0  0  0  0  0  0
  -29.2352  -20.3873   21.1479 C   0  0  0  0  0  0
  -29.3008  -17.9330   18.6878 C   0  0  0  0  0  0
  -32.6385  -16.9267   25.9177 C   0  0  0  0  0  0
  -30.4398  -17.0587   27.1430 C   0  0  0  0  0  0
  -29.4260  -20.8257   24.9920 C   0  0  0  0  0  0
  -28.9612  -21.6266   20.0829 C   0  0  0  0  0  0
  -29.9503  -19.8274   26.0520 C   0  0  0  0  0  0
  -28.8797  -23.2746   20.5696 C   0  0  0  0  0  0
  -31.1730  -18.9782   25.5981 C   0  0  0  0  0  0
  -28.1317  -24.6085   19.8396 C   0  0  0  0  0  0
  -29.8078  -17.6806   20.1098 C   0  0  2  0  0  0
  -31.6199  -17.8730   26.5840 C   0  0  0  0  0  0
  -29.6757  -16.1221   20.4401 N   0  0  0  0  0  0
  -31.4790  -12.7619   19.1699 H   0  0  0  0  0  0
  -30.4615  -11.6494   20.0388 H   0  0  0  0  0  0
  -29.8535  -11.7180   17.5872 H   0  0  0  0  0  0
  -29.6033  -13.4447   17.6804 H   0  0  0  0  0  0
  -27.9785  -11.2599   19.0055 H   0  0  0  0  0  0
  -27.3909  -12.4010   17.8218 H   0  0  0  0  0  0
  -27.5887  -14.2381   19.3843 H   0  0  0  0  0  0
  -28.7704  -12.3043   21.4468 H   0  0  0  0  0  0
  -28.3631  -13.9829   21.7426 H   0  0  0  0  0  0
  -25.2743   -9.5719   22.4745 H   0  0  0  0  0  0
  -24.0001   -7.4656   22.7488 H   0  0  0  0  0  0
  -21.0821   -8.8742   19.8938 H   0  0  0  0  0  0
  -22.3641  -10.9670   19.6161 H   0  0  0  0  0  0
  -21.1970   -7.6110   23.9710 H   0  0  0  0  0  0
  -21.1500   -6.0491   25.9086 H   0  0  0  0  0  0
  -22.0580   -2.7583   23.2819 H   0  0  0  0  0  0
  -22.3953  -11.9891   22.4869 H   0  0  0  0  0  0
  -21.0992  -13.1253   22.2572 H   0  0  0  0  0  0
  -24.6625  -15.8432   20.5723 H   0  0  0  0  0  0
  -26.2611  -15.6391   20.0752 H   0  0  0  0  0  0
  -26.7250  -32.5354   23.0922 H   0  0  0  0  0  0
  -25.0033  -33.9612   25.0258 H   0  0  0  0  0  0
  -22.7500  -31.2838   21.3759 H   0  0  0  0  0  0
  -23.3803  -35.9559   23.3290 H   0  0  0  0  0  0
  -24.3565  -36.8902   22.2054 H   0  0  0  0  0  0
  -23.7246  -37.6434   23.6681 H   0  0  0  0  0  0
  -26.1315  -31.4563   20.6002 H   0  0  0  0  0  0
  -26.8796  -30.7795   22.0126 H   0  0  0  0  0  0
  -28.1297  -28.7636   21.2476 H   0  0  0  0  0  0
  -25.9154  -25.8467   18.9634 H   0  0  0  0  0  0
  -23.9837  -27.3014   18.9541 H   0  0  0  0  0  0
  -23.7941  -30.5485   19.4008 H   0  0  0  0  0  0
  -22.7831  -29.2124   19.8694 H   0  0  0  0  0  0
  -25.1306  -36.1857   25.0793 H   0  0  0  0  0  0
  -20.9974  -28.3370   24.1391 H   0  0  0  0  0  0
  -20.5712  -26.2336   23.3652 H   0  0  0  0  0  0
  -21.6642  -26.7491   22.1199 H   0  0  0  0  0  0
  -19.6952  -25.6365   21.1243 H   0  0  0  0  0  0
  -19.6734  -27.3278   20.6786 H   0  0  0  0  0  0
  -17.4198  -26.6731   21.4051 H   0  0  0  0  0  0
  -18.0350  -26.0087   22.9019 H   0  0  0  0  0  0
  -19.7925  -30.7303   24.2342 H   0  0  0  0  0  0
  -17.5011  -31.6323   24.5147 H   0  0  0  0  0  0
  -15.5343  -30.3055   23.7696 H   0  0  0  0  0  0
  -15.8653  -28.0888   22.7113 H   0  0  0  0  0  0
  -24.5918  -30.7040   25.7608 H   0  0  0  0  0  0
  -24.8831  -32.2921   26.4598 H   0  0  0  0  0  0
  -25.7983  -30.8999   27.0154 H   0  0  0  0  0  0
  -26.2940  -29.6696   24.1119 H   0  0  0  0  0  0
  -27.3962  -29.7168   25.4701 H   0  0  0  0  0  0
  -27.8879  -30.4149   23.9476 H   0  0  0  0  0  0
  -27.2725  -33.3577   26.1950 H   0  0  0  0  0  0
  -28.3984  -32.6684   25.0310 H   0  0  0  0  0  0
  -28.0656  -31.8332   26.5405 H   0  0  0  0  0  0
  -28.2544  -38.0075   24.7483 H   0  0  0  0  0  0
  -28.1106  -36.2601   24.6314 H   0  0  0  0  0  0
  -27.2275  -37.1392   25.8863 H   0  0  0  0  0  0
  -20.9510  -29.8661   21.6688 H   0  0  0  0  0  0
  -26.0214  -38.2815   24.1437 H   0  0  0  0  0  0
  -28.3608  -18.3289   24.3945 H   0  0  0  0  0  0
  -28.5797  -17.1718   22.3365 H   0  0  0  0  0  0
  -29.6432  -21.9686   22.5902 H   0  0  0  0  0  0
  -29.5979  -18.9290   18.3598 H   0  0  0  0  0  0
  -28.2124  -17.8727   18.6436 H   0  0  0  0  0  0
  -29.7125  -17.2103   17.9836 H   0  0  0  0  0  0
  -33.0109  -16.1801   26.6212 H   0  0  0  0  0  0
  -33.5020  -17.4699   25.5355 H   0  0  0  0  0  0
  -32.1932  -16.3843   25.0807 H   0  0  0  0  0  0
  -30.7786  -16.1815   27.6971 H   0  0  0  0  0  0
  -29.7771  -16.7102   26.3495 H   0  0  0  0  0  0
  -29.8451  -17.6592   27.8337 H   0  0  0  0  0  0
  -28.5215  -21.3189   25.3472 H   0  0  0  0  0  0
  -30.1686  -21.6165   24.8679 H   0  0  0  0  0  0
  -27.9969  -21.3992   19.6259 H   0  0  0  0  0  0
  -29.6818  -21.5361   19.2708 H   0  0  0  0  0  0
  -29.1201  -19.1685   26.3085 H   0  0  0  0  0  0
  -30.1915  -20.3685   26.9670 H   0  0  0  0  0  0
  -29.9061  -23.5771   20.7790 H   0  0  0  0  0  0
  -28.3774  -23.2668   21.5345 H   0  0  0  0  0  0
  -32.0157  -19.6435   25.3973 H   0  0  0  0  0  0
  -30.9614  -18.5054   24.6407 H   0  0  0  0  0  0
  -28.3892  -24.5675   18.7818 H   0  0  0  0  0  0
  -27.0739  -24.3532   19.8797 H   0  0  0  0  0  0
  -30.8856  -17.8419   20.0788 H   0  0  0  0  0  0
  -32.1198  -18.3554   27.4255 H   0  0  0  0  0  0
  -28.7207  -15.8622   20.6259 H   0  0  0  0  0  0
  1 25  1  0  0  0
  1 30  2  0  0  0
  1 88  1  0  0  0
  2  3  1  0  0  0
  2 25  1  0  0  0
  2 89  1  0  0  0
  2 90  1  0  0  0
  3  4  1  0  0  0
  3 91  1  0  0  0
  3 92  1  0  0  0
  4  5  1  0  0  0
  4 93  1  0  0  0
  4 94  1  0  0  0
  5  6  1  0  0  0
  5 26  1  0  0  0
  5 95  1  0  0  0
  6 25  1  0  0  0
  6 96  1  0  0  0
  6 97  1  0  0  0
  7  8  2  0  0  0
  7 26  1  0  0  0
  7 29  1  0  0  0
  8  9  1  0  0  0
  8 22  1  0  0  0
  9 10  1  0  0  0
  9 27  2  0  0  0
 10 11  2  0  0  0
 10 15  1  0  0  0
 11 12  1  0  0  0
 11 98  1  0  0  0
 12 13  2  0  0  0
 12 99  1  0  0  0
 13 14  1  0  0  0
 13 31  1  0  0  0
 14 15  2  0  0  0
 14100  1  0  0  0
 15101  1  0  0  0
 16 17  2  0  0  0
 16 21  1  0  0  0
 16 31  1  0  0  0
 17 18  1  0  0  0
 17102  1  0  0  0
 18 19  2  0  0  0
 18103  1  0  0  0
 19 20  1  0  0  0
 19 24  1  0  0  0
 20 21  2  0  0  0
 20104  1  0  0  0
 21 23  1  0  0  0
 22 28  1  0  0  0
 22 32  2  0  0  0
 26 27  1  0  0  0
 28105  1  0  0  0
 28106  1  0  0  0
 29107  1  0  0  0
 29108  1  0  0  0
 33 34  1  0  0  0
 33 66  1  0  0  0
 33 70  2  0  0  0
 34 36  1  0  0  0
 34 59  1  0  0  0
 34109  1  0  0  0
 35 44  2  0  0  0
 35 45  1  0  0  0
 35 68  1  0  0  0
 36 56  1  0  0  0
 36110  1  0  0  0
 37 39  1  0  0  0
 37 47  1  0  0  0
 37 66  1  0  0  0
 37111  1  0  0  0
 38 43  2  0  0  0
 38 46  1  0  0  0
 38 47  1  0  0  0
 39 64  1  0  0  0
 39 67  2  0  0  0
 40 52  1  0  0  0
 40 53  2  0  0  0
 40 58  1  0  0  0
 41112  1  0  0  0
 41113  1  0  0  0
 41114  1  0  0  0
 41 48  1  0  0  0
 42 43  1  0  0  0
 42 66  1  0  0  0
 42115  1  0  0  0
 42116  1  0  0  0
 43 44  1  0  0  0
 44117  1  0  0  0
 45 46  2  0  0  0
 45118  1  0  0  0
 46119  1  0  0  0
 47120  1  0  0  0
 47121  1  0  0  0
 48 56  1  0  0  0
 48 65  1  0  0  0
 48122  1  0  0  0
 49 50  1  0  0  0
 49 53  1  0  0  0
 49 64  1  0  0  0
 49123  1  0  0  0
 50 51  1  0  0  0
 50124  1  0  0  0
 50125  1  0  0  0
 51 52  1  0  0  0
 51126  1  0  0  0
 51127  1  0  0  0
 52128  1  0  0  0
 52129  1  0  0  0
 53 54  1  0  0  0
 54 55  2  0  0  0
 54130  1  0  0  0
 55 57  1  0  0  0
 55131  1  0  0  0
 56 69  2  0  0  0
 57 58  2  0  0  0
 57132  1  0  0  0
 58133  1  0  0  0
 59 60  1  0  0  0
 59 61  1  0  0  0
 59 62  1  0  0  0
 60134  1  0  0  0
 60135  1  0  0  0
 60136  1  0  0  0
 61137  1  0  0  0
 61138  1  0  0  0
 61139  1  0  0  0
 62140  1  0  0  0
 62141  1  0  0  0
 62142  1  0  0  0
 63 65  1  0  0  0
 63143  1  0  0  0
 63144  1  0  0  0
 63145  1  0  0  0
 64146  1  0  0  0
 65147  1  0  0  0
 68 85  1  0  0  0
 71 72  2  0  0  0
 71 74  1  0  0  0
 71148  1  0  0  0
 72 75  1  0  0  0
 72149  1  0  0  0
 73 74  2  0  0  0
 73 76  1  0  0  0
 73150  1  0  0  0
 74 80  1  0  0  0
 75 76  2  0  0  0
 75 86  1  0  0  0
 76 81  1  0  0  0
 77151  1  0  0  0
 77152  1  0  0  0
 77153  1  0  0  0
 77 86  1  0  0  0
 78154  1  0  0  0
 78155  1  0  0  0
 78156  1  0  0  0
 78 87  1  0  0  0
 79 87  1  0  0  0
 79157  1  0  0  0
 79158  1  0  0  0
 79159  1  0  0  0
 80 82  1  0  0  0
 80160  1  0  0  0
 80161  1  0  0  0
 81 83  1  0  0  0
 81162  1  0  0  0
 81163  1  0  0  0
 82 84  1  0  0  0
 82164  1  0  0  0
 82165  1  0  0  0
 83 85  1  0  0  0
 83166  1  0  0  0
 83167  1  0  0  0
 84 87  1  0  0  0
 84168  1  0  0  0
 84169  1  0  0  0
 85170  1  0  0  0
 85171  1  0  0  0
 86 88  1  0  0  0
 86172  1  0  0  0
 87173  1  0  0  0
 88174  1  0  0  0
M  ISO  4   1 100  68 101  85 101  88 100
M  END
> <chiral flag>
0

> <version>
0

> <s_m_source_file>
/data/baiqing/PycharmProjects/Reinvent-master-3.2/result/LINK_invent/BTK/process_docking_weight1_custom_sum_contain_oxygen_bond_distance_aromatic_linkinvent_7_9_3/rearranged_h_0099.sdf

> <i_m_source_file_index>
73

> <r_mmod_Potential_Energy-OPLS-2005>
673.268615722656

> <r_mmod_Stretch_Energy-OPLS-2005>
310.518280029297

> <r_mmod_Bend_Energy-OPLS-2005>
321.456573486328

> <r_mmod_Torsional_Energy-OPLS-2005>
283.855346679688

> <r_mmod_Improper_Torsional_Energy-OPLS-2005>
7.10479640960693

> <r_mmod_Van_der_Waal_Energy-OPLS-2005>
143.810729980469

> <r_mmod_Electrostatic_Energy-OPLS-2005>
-407.100494384766

> <r_mmod_Solvation_Energy-OPLS-2005>
-198.711318969727

> <b_mmod_Minimization_Converged-OPLS-2005>
0

> <r_mmod_RMS_Derivative-OPLS-2005>
5.76512098312378

$$$$
73
                    3D
 Structure written by MMmdl.
173181  0  0  1  0            999 V2000
  -30.7920  -14.4614   20.5452 C   0  0  0  0  0  0
  -30.3896  -12.2971   19.4437 C   0  0  0  0  0  0
  -29.4817  -12.4934   18.2164 C   0  0  0  0  0  0
  -28.0076  -12.3470   18.6297 C   0  0  0  0  0  0
  -27.6503  -13.2184   19.8625 C   0  0  2  0  0  0
  -28.6997  -13.0950   20.9961 C   0  0  0  0  0  0
  -25.2524  -13.8187   20.5713 C   0  0  0  0  0  0
  -24.1788  -13.0418   20.9194 C   0  0  0  0  0  0
  -24.6411  -11.6909   20.8769 C   0  0  0  0  0  0
  -23.9084  -10.4288   21.0439 C   0  0  0  0  0  0
  -24.3636   -9.4183   21.9199 C   0  0  0  0  0  0
  -23.6305   -8.2213   22.0758 C   0  0  0  0  0  0
  -22.4287   -8.0271   21.3547 C   0  0  0  0  0  0
  -21.9930   -9.0248   20.4646 C   0  0  0  0  0  0
  -22.7271  -10.2128   20.3068 C   0  0  0  0  0  0
  -21.6845   -6.0738   22.5273 C   0  0  0  0  0  0
  -21.4014   -6.5638   23.8211 C   0  0  0  0  0  0
  -21.3663   -5.6800   24.9169 C   0  0  0  0  0  0
  -21.6050   -4.3066   24.7223 C   0  0  0  0  0  0
  -21.8825   -3.8146   23.4345 C   0  0  0  0  0  0
  -21.9187   -4.6960   22.3400 C   0  0  0  0  0  0
  -22.7818  -13.5175   21.1862 C   0  0  0  0  0  0
  -22.1657   -4.2145   21.0977 F   0  0  0  0  0  0
  -21.5627   -3.4550   25.7736 F   0  0  0  0  0  0
  -30.0333  -13.3345   20.4288 N   0  0  0  0  0  0
  -26.2979  -12.9379   20.3387 N   0  0  0  0  0  0
  -25.9345  -11.6525   20.5828 N   0  0  0  0  0  0
  -22.0498  -12.8145   22.0448 N   0  0  0  0  0  0
  -25.4173  -15.1897   20.4106 N   0  0  0  0  0  0
  -31.9078  -14.5162   20.0303 O   0  0  0  0  0  0
  -21.6632   -6.8882   21.4248 O   0  0  0  0  0  0
  -22.3465  -14.5474   20.6734 O   0  0  0  0  0  0
  -24.6157  -31.8688   23.2086 C   0  0  0  0  0  0
  -25.9081  -32.4779   23.8391 C   0  0  1  0  0  0
  -27.2334  -27.4291   20.1182 C   0  0  0  0  0  0
  -25.5942  -33.8584   24.2315 N   0  0  0  0  0  0
  -23.4006  -30.4943   21.5466 C   0  0  2  0  0  0
  -24.8488  -28.9508   20.1225 C   0  0  0  0  0  0
  -22.7392  -29.4684   22.4958 C   0  0  0  0  0  0
  -18.0277  -28.1336   22.8507 C   0  0  0  0  0  0
  -24.1490  -36.7303   23.2635 C   0  0  0  0  0  0
  -25.9321  -30.8286   21.3685 C   0  0  0  0  0  0
  -26.0097  -29.4635   20.7176 C   0  0  0  0  0  0
  -27.2076  -28.7121   20.7112 C   0  0  0  0  0  0
  -26.0603  -26.9332   19.5104 C   0  0  0  0  0  0
  -24.8674  -27.6812   19.5181 C   0  0  0  0  0  0
  -23.6122  -29.8213   20.1645 C   0  0  0  0  0  0
  -25.4097  -36.3045   24.0329 C   0  0  1  0  0  0
  -20.5867  -28.3649   23.1303 C   0  0  2  0  0  0
  -20.6771  -26.9392   22.5408 C   0  0  0  0  0  0
  -19.5741  -26.6363   21.5206 C   0  0  0  0  0  0
  -18.1915  -26.7883   22.1625 C   0  0  0  0  0  0
  -19.1535  -28.8804   23.2896 C   0  0  0  0  0  0
  -18.9475  -30.1407   23.8903 C   0  0  0  0  0  0
  -17.6488  -30.6565   24.0547 C   0  0  0  0  0  0
  -25.9059  -34.9432   23.5107 C   0  0  0  0  0  0
  -16.5367  -29.9063   23.6329 C   0  0  0  0  0  0
  -16.7273  -28.6458   23.0388 C   0  0  0  0  0  0
  -26.4527  -31.6563   25.0734 C   0  0  0  0  0  0
  -25.3789  -31.3757   26.1490 C   0  0  0  0  0  0
  -27.0416  -30.2978   24.6193 C   0  0  0  0  0  0
  -27.6025  -32.4349   25.7526 C   0  0  0  0  0  0
  -27.5564  -37.1805   24.8462 C   0  0  0  0  0  0
  -21.4125  -29.3023   22.3701 N   0  0  0  0  0  0
  -26.4267  -37.3744   23.9414 N   0  0  0  0  0  0
  -24.6657  -31.0827   22.0958 N   0  0  0  0  0  0
  -23.4196  -28.8233   23.2995 O   0  0  0  0  0  0
  -28.3711  -26.6510   20.1460 O   0  0  0  0  0  0
  -26.5610  -34.8893   22.4664 O   0  0  0  0  0  0
  -23.5366  -32.1436   23.7517 O   0  0  0  0  0  0
  -29.1941  -16.4061   20.8446 C   0  0  0  0  0  0
  -30.4091  -17.7954   22.0966 C   0  0  0  0  0  0
  -30.3451  -15.7374   21.1832 C   0  0  0  0  0  0
  -31.1333  -16.6407   21.9711 C   0  0  0  0  0  0
  -32.7347  -16.9704   23.9096 C   0  0  0  0  0  0
  -33.5599  -17.0980   21.5246 C   0  0  0  0  0  0
  -27.7465  -18.9684   23.5623 C   0  0  0  0  0  0
  -26.4249  -20.2764   21.9262 C   0  0  0  0  0  0
  -29.4267  -24.4888   20.7877 C   0  0  0  0  0  0
  -28.2556  -18.7526   21.0794 C   0  0  0  0  0  0
  -29.4608  -23.3033   21.8007 C   0  0  0  0  0  0
  -28.8242  -20.9624   22.4059 C   0  0  0  0  0  0
  -28.2085  -25.4345   20.9012 C   0  0  0  0  0  0
  -32.5499  -16.4417   22.4791 C   0  0  0  0  0  0
  -27.8466  -19.7442   22.2236 C   0  0  0  0  0  0
  -29.2316  -17.6884   21.3768 N   0  0  0  0  0  0
  -28.6835  -22.0829   21.4267 N   0  3  0  0  0  0
  -31.4391  -12.3192   19.1447 H   0  0  0  0  0  0
  -30.2372  -11.3080   19.8773 H   0  0  0  0  0  0
  -29.7289  -11.7657   17.4427 H   0  0  0  0  0  0
  -29.6522  -13.4786   17.7796 H   0  0  0  0  0  0
  -27.8287  -11.2953   18.8518 H   0  0  0  0  0  0
  -27.3553  -12.5938   17.7909 H   0  0  0  0  0  0
  -27.6582  -14.2429   19.4991 H   0  0  0  0  0  0
  -28.6663  -12.1011   21.4459 H   0  0  0  0  0  0
  -28.4805  -13.7989   21.8012 H   0  0  0  0  0  0
  -25.2802   -9.5619   22.4766 H   0  0  0  0  0  0
  -24.0011   -7.4586   22.7462 H   0  0  0  0  0  0
  -21.0869   -8.8765   19.8935 H   0  0  0  0  0  0
  -22.3751  -10.9662   19.6155 H   0  0  0  0  0  0
  -21.2016   -7.6150   23.9704 H   0  0  0  0  0  0
  -21.1488   -6.0536   25.9077 H   0  0  0  0  0  0
  -22.0610   -2.7609   23.2839 H   0  0  0  0  0  0
  -22.4147  -11.9803   22.4801 H   0  0  0  0  0  0
  -21.1107  -13.1097   22.2688 H   0  0  0  0  0  0
  -24.6526  -15.8444   20.5339 H   0  0  0  0  0  0
  -26.2776  -15.6384   20.1285 H   0  0  0  0  0  0
  -26.7137  -32.5502   23.1148 H   0  0  0  0  0  0
  -25.0088  -33.9757   25.0452 H   0  0  0  0  0  0
  -22.6871  -31.3081   21.4045 H   0  0  0  0  0  0
  -23.3722  -35.9677   23.3298 H   0  0  0  0  0  0
  -24.3553  -36.8946   22.2050 H   0  0  0  0  0  0
  -23.7338  -37.6539   23.6670 H   0  0  0  0  0  0
  -26.0688  -31.5941   20.6033 H   0  0  0  0  0  0
  -26.8083  -30.8648   22.0035 H   0  0  0  0  0  0
  -28.0987  -29.0991   21.1882 H   0  0  0  0  0  0
  -26.0697  -25.9582   19.0443 H   0  0  0  0  0  0
  -23.9780  -27.2697   19.0611 H   0  0  0  0  0  0
  -23.7317  -30.5928   19.4043 H   0  0  0  0  0  0
  -22.7333  -29.2492   19.8588 H   0  0  0  0  0  0
  -25.1291  -36.1840   25.0826 H   0  0  0  0  0  0
  -20.9993  -28.3225   24.1413 H   0  0  0  0  0  0
  -20.5657  -26.2289   23.3620 H   0  0  0  0  0  0
  -21.6649  -26.7405   22.1224 H   0  0  0  0  0  0
  -19.6922  -25.6272   21.1237 H   0  0  0  0  0  0
  -19.6654  -27.3176   20.6731 H   0  0  0  0  0  0
  -17.4205  -26.6651   21.4003 H   0  0  0  0  0  0
  -18.0281  -25.9981   22.8975 H   0  0  0  0  0  0
  -19.7970  -30.7184   24.2292 H   0  0  0  0  0  0
  -17.5066  -31.6253   24.5130 H   0  0  0  0  0  0
  -15.5379  -30.2982   23.7633 H   0  0  0  0  0  0
  -15.8665  -28.0754   22.7157 H   0  0  0  0  0  0
  -24.5869  -30.7186   25.7886 H   0  0  0  0  0  0
  -24.9130  -32.2987   26.4938 H   0  0  0  0  0  0
  -25.8143  -30.8931   27.0244 H   0  0  0  0  0  0
  -26.3035  -29.6666   24.1229 H   0  0  0  0  0  0
  -27.4139  -29.7257   25.4712 H   0  0  0  0  0  0
  -27.8860  -30.4268   23.9412 H   0  0  0  0  0  0
  -27.2515  -33.3581   26.2138 H   0  0  0  0  0  0
  -28.3816  -32.7047   25.0388 H   0  0  0  0  0  0
  -28.0698  -31.8498   26.5454 H   0  0  0  0  0  0
  -28.2564  -38.0108   24.7463 H   0  0  0  0  0  0
  -28.1066  -36.2643   24.6299 H   0  0  0  0  0  0
  -27.2283  -37.1459   25.8862 H   0  0  0  0  0  0
  -20.9261  -29.8784   21.6971 H   0  0  0  0  0  0
  -26.0129  -38.2817   24.1388 H   0  0  0  0  0  0
  -28.3875  -16.1258   20.1862 H   0  0  0  0  0  0
  -30.6891  -18.7096   22.5947 H   0  0  0  0  0  0
  -32.0555  -16.4774   24.6064 H   0  0  0  0  0  0
  -32.5541  -18.0440   23.9656 H   0  0  0  0  0  0
  -33.7531  -16.7955   24.2609 H   0  0  0  0  0  0
  -33.4988  -16.6658   20.5264 H   0  0  0  0  0  0
  -34.5834  -16.9588   21.8730 H   0  0  0  0  0  0
  -33.3768  -18.1689   21.4290 H   0  0  0  0  0  0
  -27.1490  -18.0625   23.4427 H   0  0  0  0  0  0
  -27.2792  -19.5648   24.3463 H   0  0  0  0  0  0
  -28.7183  -18.6596   23.9433 H   0  0  0  0  0  0
  -25.6933  -19.4676   21.9319 H   0  0  0  0  0  0
  -26.3569  -20.7487   20.9455 H   0  0  0  0  0  0
  -26.0991  -20.9997   22.6763 H   0  0  0  0  0  0
  -29.5390  -24.1406   19.7610 H   0  0  0  0  0  0
  -30.3150  -25.0918   20.9849 H   0  0  0  0  0  0
  -28.6049  -19.3016   20.2049 H   0  0  0  0  0  0
  -27.3515  -18.2435   20.7403 H   0  0  0  0  0  0
  -29.1250  -23.6528   22.7773 H   0  0  0  0  0  0
  -30.5036  -23.0055   21.9358 H   0  0  0  0  0  0
  -29.8631  -20.6419   22.4153 H   0  0  0  0  0  0
  -28.6477  -21.3876   23.3949 H   0  0  0  0  0  0
  -28.0563  -25.7025   21.9481 H   0  0  0  0  0  0
  -27.3158  -24.8929   20.5931 H   0  0  0  0  0  0
  -32.7543  -15.3715   22.5015 H   0  0  0  0  0  0
  -28.9790  -21.7694   20.5167 H   0  0  0  0  0  0
  -27.7044  -22.3138   21.3771 H   0  0  0  0  0  0
  1 25  1  0  0  0
  1 30  2  0  0  0
  1 73  1  0  0  0
  2  3  1  0  0  0
  2 25  1  0  0  0
  2 88  1  0  0  0
  2 89  1  0  0  0
  3  4  1  0  0  0
  3 90  1  0  0  0
  3 91  1  0  0  0
  4  5  1  0  0  0
  4 92  1  0  0  0
  4 93  1  0  0  0
  5  6  1  0  0  0
  5 26  1  0  0  0
  5 94  1  0  0  0
  6 25  1  0  0  0
  6 95  1  0  0  0
  6 96  1  0  0  0
  7  8  2  0  0  0
  7 26  1  0  0  0
  7 29  1  0  0  0
  8  9  1  0  0  0
  8 22  1  0  0  0
  9 10  1  0  0  0
  9 27  2  0  0  0
 10 11  2  0  0  0
 10 15  1  0  0  0
 11 12  1  0  0  0
 11 97  1  0  0  0
 12 13  2  0  0  0
 12 98  1  0  0  0
 13 14  1  0  0  0
 13 31  1  0  0  0
 14 15  2  0  0  0
 14 99  1  0  0  0
 15100  1  0  0  0
 16 17  2  0  0  0
 16 21  1  0  0  0
 16 31  1  0  0  0
 17 18  1  0  0  0
 17101  1  0  0  0
 18 19  2  0  0  0
 18102  1  0  0  0
 19 20  1  0  0  0
 19 24  1  0  0  0
 20 21  2  0  0  0
 20103  1  0  0  0
 21 23  1  0  0  0
 22 28  1  0  0  0
 22 32  2  0  0  0
 26 27  1  0  0  0
 28104  1  0  0  0
 28105  1  0  0  0
 29106  1  0  0  0
 29107  1  0  0  0
 33 34  1  0  0  0
 33 66  1  0  0  0
 33 70  2  0  0  0
 34 36  1  0  0  0
 34 59  1  0  0  0
 34108  1  0  0  0
 35 44  2  0  0  0
 35 45  1  0  0  0
 35 68  1  0  0  0
 36 56  1  0  0  0
 36109  1  0  0  0
 37 39  1  0  0  0
 37 47  1  0  0  0
 37 66  1  0  0  0
 37110  1  0  0  0
 38 43  2  0  0  0
 38 46  1  0  0  0
 38 47  1  0  0  0
 39 64  1  0  0  0
 39 67  2  0  0  0
 40 52  1  0  0  0
 40 53  2  0  0  0
 40 58  1  0  0  0
 41111  1  0  0  0
 41112  1  0  0  0
 41113  1  0  0  0
 41 48  1  0  0  0
 42 43  1  0  0  0
 42 66  1  0  0  0
 42114  1  0  0  0
 42115  1  0  0  0
 43 44  1  0  0  0
 44116  1  0  0  0
 45 46  2  0  0  0
 45117  1  0  0  0
 46118  1  0  0  0
 47119  1  0  0  0
 47120  1  0  0  0
 48 56  1  0  0  0
 48 65  1  0  0  0
 48121  1  0  0  0
 49 50  1  0  0  0
 49 53  1  0  0  0
 49 64  1  0  0  0
 49122  1  0  0  0
 50 51  1  0  0  0
 50123  1  0  0  0
 50124  1  0  0  0
 51 52  1  0  0  0
 51125  1  0  0  0
 51126  1  0  0  0
 52127  1  0  0  0
 52128  1  0  0  0
 53 54  1  0  0  0
 54 55  2  0  0  0
 54129  1  0  0  0
 55 57  1  0  0  0
 55130  1  0  0  0
 56 69  2  0  0  0
 57 58  2  0  0  0
 57131  1  0  0  0
 58132  1  0  0  0
 59 60  1  0  0  0
 59 61  1  0  0  0
 59 62  1  0  0  0
 60133  1  0  0  0
 60134  1  0  0  0
 60135  1  0  0  0
 61136  1  0  0  0
 61137  1  0  0  0
 61138  1  0  0  0
 62139  1  0  0  0
 62140  1  0  0  0
 62141  1  0  0  0
 63 65  1  0  0  0
 63142  1  0  0  0
 63143  1  0  0  0
 63144  1  0  0  0
 64145  1  0  0  0
 65146  1  0  0  0
 68 83  1  0  0  0
 71 73  2  0  0  0
 71 86  1  0  0  0
 71147  1  0  0  0
 72 74  2  0  0  0
 72 86  1  0  0  0
 72148  1  0  0  0
 73 74  1  0  0  0
 74 84  1  0  0  0
 75149  1  0  0  0
 75150  1  0  0  0
 75151  1  0  0  0
 75 84  1  0  0  0
 76 84  1  0  0  0
 76152  1  0  0  0
 76153  1  0  0  0
 76154  1  0  0  0
 77155  1  0  0  0
 77156  1  0  0  0
 77157  1  0  0  0
 77 85  1  0  0  0
 78 85  1  0  0  0
 78158  1  0  0  0
 78159  1  0  0  0
 78160  1  0  0  0
 79 81  1  0  0  0
 79 83  1  0  0  0
 79161  1  0  0  0
 79162  1  0  0  0
 80 85  1  0  0  0
 80 86  1  0  0  0
 80163  1  0  0  0
 80164  1  0  0  0
 81 87  1  0  0  0
 81165  1  0  0  0
 81166  1  0  0  0
 82 85  1  0  0  0
 82 87  1  0  0  0
 82167  1  0  0  0
 82168  1  0  0  0
 83169  1  0  0  0
 83170  1  0  0  0
 84171  1  0  0  0
 87172  1  0  0  0
 87173  1  0  0  0
M  CHG  1  87   1
M  ISO  4   1 100  68 101  73 100  83 101
M  END
> <chiral flag>
0

> <version>
0

> <s_m_source_file>
/data/baiqing/PycharmProjects/Reinvent-master-3.2/result/LINK_invent/BTK/process_docking_weight1_custom_sum_contain_oxygen_bond_distance_aromatic_linkinvent_7_9_3/rearranged_h_0099.sdf

> <i_m_source_file_index>
74

> <r_mmod_Potential_Energy-OPLS-2005>
-73.5546646118164

> <r_mmod_Stretch_Energy-OPLS-2005>
42.1514091491699

> <r_mmod_Bend_Energy-OPLS-2005>
125.647430419922

> <r_mmod_Torsional_Energy-OPLS-2005>
252.654754638672

> <r_mmod_Improper_Torsional_Energy-OPLS-2005>
5.36153364181519

> <r_mmod_Van_der_Waal_Energy-OPLS-2005>
124.313751220703

> <r_mmod_Electrostatic_Energy-OPLS-2005>
-191.903656005859

> <r_mmod_Solvation_Energy-OPLS-2005>
-453.099822998047

> <b_mmod_Minimization_Converged-OPLS-2005>
0

> <r_mmod_RMS_Derivative-OPLS-2005>
3.83595180511475

$$$$
74
                    3D
 Structure written by MMmdl.
157165  0  0  1  0            999 V2000
  -30.6112  -14.7301   20.4623 C   0  0  0  0  0  0
  -30.4333  -12.4461   19.4718 C   0  0  0  0  0  0
  -29.5103  -12.5080   18.2348 C   0  0  0  0  0  0
  -28.0360  -12.3323   18.6484 C   0  0  0  0  0  0
  -27.6436  -13.2287   19.8531 C   0  0  2  0  0  0
  -28.6877  -13.1537   20.9886 C   0  0  0  0  0  0
  -25.2517  -13.8192   20.5690 C   0  0  0  0  0  0
  -24.1806  -13.0441   20.9206 C   0  0  0  0  0  0
  -24.6393  -11.6917   20.8747 C   0  0  0  0  0  0
  -23.9068  -10.4295   21.0406 C   0  0  0  0  0  0
  -24.3621   -9.4209   21.9183 C   0  0  0  0  0  0
  -23.6298   -8.2244   22.0752 C   0  0  0  0  0  0
  -22.4281   -8.0282   21.3542 C   0  0  0  0  0  0
  -21.9916   -9.0255   20.4644 C   0  0  0  0  0  0
  -22.7242  -10.2136   20.3053 C   0  0  0  0  0  0
  -21.6855   -6.0739   22.5278 C   0  0  0  0  0  0
  -21.4016   -6.5641   23.8213 C   0  0  0  0  0  0
  -21.3659   -5.6793   24.9174 C   0  0  0  0  0  0
  -21.6044   -4.3056   24.7223 C   0  0  0  0  0  0
  -21.8820   -3.8150   23.4343 C   0  0  0  0  0  0
  -21.9195   -4.6967   22.3401 C   0  0  0  0  0  0
  -22.7829  -13.5224   21.1872 C   0  0  0  0  0  0
  -22.1661   -4.2152   21.0978 F   0  0  0  0  0  0
  -21.5631   -3.4537   25.7733 F   0  0  0  0  0  0
  -29.9904  -13.5033   20.4089 N   0  0  0  0  0  0
  -26.2943  -12.9390   20.3287 N   0  0  0  0  0  0
  -25.9323  -11.6536   20.5755 N   0  0  0  0  0  0
  -22.0473  -12.8211   22.0424 N   0  0  0  0  0  0
  -25.4215  -15.1916   20.4096 N   0  0  0  0  0  0
  -31.7957  -14.8376   20.1344 O   0  0  0  0  0  0
  -21.6641   -6.8881   21.4240 O   0  0  0  0  0  0
  -22.3510  -14.5529   20.6721 O   0  0  0  0  0  0
  -24.6303  -31.8553   23.1973 C   0  0  0  0  0  0
  -25.9130  -32.4752   23.8323 C   0  0  1  0  0  0
  -27.2221  -27.2657   20.1218 C   0  0  0  0  0  0
  -25.5928  -33.8555   24.2251 N   0  0  0  0  0  0
  -23.4259  -30.4773   21.5410 C   0  0  2  0  0  0
  -24.8710  -28.9220   20.1101 C   0  0  0  0  0  0
  -22.7495  -29.4601   22.4916 C   0  0  0  0  0  0
  -18.0288  -28.1385   22.8485 C   0  0  0  0  0  0
  -24.1489  -36.7284   23.2641 C   0  0  0  0  0  0
  -25.9705  -30.7694   21.3750 C   0  0  0  0  0  0
  -26.0412  -29.3916   20.7177 C   0  0  0  0  0  0
  -27.2152  -28.5750   20.7121 C   0  0  0  0  0  0
  -26.0227  -26.8560   19.4958 C   0  0  0  0  0  0
  -24.8667  -27.6625   19.4911 C   0  0  0  0  0  0
  -23.6425  -29.8092   20.1575 C   0  0  0  0  0  0
  -25.4116  -36.3069   24.0326 C   0  0  1  0  0  0
  -20.5892  -28.3693   23.1273 C   0  0  2  0  0  0
  -20.6776  -26.9414   22.5409 C   0  0  0  0  0  0
  -19.5752  -26.6382   21.5211 C   0  0  0  0  0  0
  -18.1932  -26.7926   22.1623 C   0  0  0  0  0  0
  -19.1542  -28.8856   23.2871 C   0  0  0  0  0  0
  -18.9465  -30.1456   23.8892 C   0  0  0  0  0  0
  -17.6465  -30.6587   24.0562 C   0  0  0  0  0  0
  -25.9056  -34.9439   23.5093 C   0  0  0  0  0  0
  -16.5356  -29.9087   23.6328 C   0  0  0  0  0  0
  -16.7275  -28.6502   23.0353 C   0  0  0  0  0  0
  -26.4501  -31.6577   25.0713 C   0  0  0  0  0  0
  -25.3724  -31.3730   26.1434 C   0  0  0  0  0  0
  -27.0350  -30.2994   24.6198 C   0  0  0  0  0  0
  -27.6049  -32.4324   25.7491 C   0  0  0  0  0  0
  -27.5579  -37.1798   24.8466 C   0  0  0  0  0  0
  -21.4202  -29.3042   22.3663 N   0  0  0  0  0  0
  -26.4290  -37.3768   23.9408 N   0  0  0  0  0  0
  -24.6949  -31.0524   22.0942 N   0  0  0  0  0  0
  -23.4199  -28.8147   23.3016 O   0  0  0  0  0  0
  -28.3548  -26.4230   20.1909 O   0  0  0  0  0  0
  -26.5634  -34.8917   22.4665 O   0  0  0  0  0  0
  -23.5455  -32.1376   23.7274 O   0  0  0  0  0  0
  -28.5372  -21.1145   20.7216 C   0  0  0  0  0  0
  -29.3518  -20.0412   20.3476 C   0  0  0  0  0  0
  -30.4677  -20.6965   19.7254 C   0  0  0  0  0  0
  -30.3066  -22.0714   19.8040 C   0  0  0  0  0  0
  -31.6483  -19.9956   19.0980 C   0  0  0  0  0  0
  -31.2526  -23.1524   19.3748 C   0  0  0  0  0  0
  -29.0688  -18.4729   20.5352 C   0  0  0  0  0  0
  -28.5440  -23.7718   20.7801 C   0  0  0  0  0  0
  -30.2194  -17.3307   20.4957 C   0  0  0  0  0  0
  -28.4082  -24.9918   19.7249 C   0  0  0  0  0  0
  -29.0831  -22.3819   20.3951 N   0  0  0  0  0  0
  -29.8351  -15.8589   20.6703 N   0  0  0  0  0  0
  -31.4745  -12.5712   19.1694 H   0  0  0  0  0  0
  -30.3764  -11.4670   19.9500 H   0  0  0  0  0  0
  -29.7916  -11.7379   17.5155 H   0  0  0  0  0  0
  -29.6386  -13.4647   17.7255 H   0  0  0  0  0  0
  -27.8920  -11.2834   18.9093 H   0  0  0  0  0  0
  -27.3784  -12.5267   17.8003 H   0  0  0  0  0  0
  -27.6414  -14.2520   19.4777 H   0  0  0  0  0  0
  -28.7193  -12.1534   21.4227 H   0  0  0  0  0  0
  -28.4251  -13.8317   21.8024 H   0  0  0  0  0  0
  -25.2765   -9.5688   22.4758 H   0  0  0  0  0  0
  -24.0012   -7.4632   22.7468 H   0  0  0  0  0  0
  -21.0850   -8.8773   19.8947 H   0  0  0  0  0  0
  -22.3700  -10.9676   19.6164 H   0  0  0  0  0  0
  -21.2005   -7.6149   23.9720 H   0  0  0  0  0  0
  -21.1481   -6.0519   25.9078 H   0  0  0  0  0  0
  -22.0600   -2.7612   23.2840 H   0  0  0  0  0  0
  -22.4090  -11.9874   22.4812 H   0  0  0  0  0  0
  -21.1088  -13.1231   22.2628 H   0  0  0  0  0  0
  -24.6531  -15.8450   20.5156 H   0  0  0  0  0  0
  -26.2645  -15.6285   20.0599 H   0  0  0  0  0  0
  -26.7195  -32.5401   23.1063 H   0  0  0  0  0  0
  -25.0063  -33.9693   25.0389 H   0  0  0  0  0  0
  -22.7218  -31.2991   21.3946 H   0  0  0  0  0  0
  -23.3751  -35.9616   23.3301 H   0  0  0  0  0  0
  -24.3579  -36.8910   22.2055 H   0  0  0  0  0  0
  -23.7243  -37.6484   23.6669 H   0  0  0  0  0  0
  -26.1089  -31.5296   20.6049 H   0  0  0  0  0  0
  -26.8485  -30.8182   22.0077 H   0  0  0  0  0  0
  -28.1131  -28.9321   21.1969 H   0  0  0  0  0  0
  -25.9299  -25.8947   19.0182 H   0  0  0  0  0  0
  -23.9675  -27.2959   19.0151 H   0  0  0  0  0  0
  -23.7674  -30.5843   19.4004 H   0  0  0  0  0  0
  -22.7605  -29.2427   19.8533 H   0  0  0  0  0  0
  -25.1298  -36.1916   25.0819 H   0  0  0  0  0  0
  -20.9983  -28.3270   24.1394 H   0  0  0  0  0  0
  -20.5672  -26.2306   23.3612 H   0  0  0  0  0  0
  -21.6644  -26.7436   22.1206 H   0  0  0  0  0  0
  -19.6917  -25.6291   21.1243 H   0  0  0  0  0  0
  -19.6689  -27.3189   20.6739 H   0  0  0  0  0  0
  -17.4202  -26.6669   21.4025 H   0  0  0  0  0  0
  -18.0335  -26.0068   22.9021 H   0  0  0  0  0  0
  -19.7942  -30.7270   24.2261 H   0  0  0  0  0  0
  -17.5021  -31.6267   24.5164 H   0  0  0  0  0  0
  -15.5356  -30.2991   23.7652 H   0  0  0  0  0  0
  -15.8673  -28.0819   22.7076 H   0  0  0  0  0  0
  -24.5901  -30.7075   25.7765 H   0  0  0  0  0  0
  -24.8914  -32.2900   26.4845 H   0  0  0  0  0  0
  -25.8042  -30.8919   27.0219 H   0  0  0  0  0  0
  -26.2933  -29.6735   24.1219 H   0  0  0  0  0  0
  -27.4028  -29.7261   25.4718 H   0  0  0  0  0  0
  -27.8811  -30.4267   23.9442 H   0  0  0  0  0  0
  -27.2647  -33.3628   26.2053 H   0  0  0  0  0  0
  -28.3868  -32.6880   25.0326 H   0  0  0  0  0  0
  -28.0708  -31.8460   26.5421 H   0  0  0  0  0  0
  -28.2595  -38.0096   24.7508 H   0  0  0  0  0  0
  -28.1075  -36.2625   24.6297 H   0  0  0  0  0  0
  -27.2297  -37.1452   25.8870 H   0  0  0  0  0  0
  -20.9388  -29.8767   21.6871 H   0  0  0  0  0  0
  -26.0168  -38.2842   24.1403 H   0  0  0  0  0  0
  -27.5825  -21.0865   21.2319 H   0  0  0  0  0  0
  -31.3089  -19.2701   18.3592 H   0  0  0  0  0  0
  -32.2325  -19.4756   19.8576 H   0  0  0  0  0  0
  -32.3107  -20.6890   18.5817 H   0  0  0  0  0  0
  -32.2846  -22.8035   19.3792 H   0  0  0  0  0  0
  -31.2179  -24.0104   20.0459 H   0  0  0  0  0  0
  -31.0220  -23.4931   18.3654 H   0  0  0  0  0  0
  -28.3287  -18.2150   19.7772 H   0  0  0  0  0  0
  -28.5423  -18.3747   21.4849 H   0  0  0  0  0  0
  -27.5707  -23.6274   21.2493 H   0  0  0  0  0  0
  -29.1886  -24.1239   21.5856 H   0  0  0  0  0  0
  -30.9662  -17.5649   21.2553 H   0  0  0  0  0  0
  -30.7390  -17.3969   19.5405 H   0  0  0  0  0  0
  -27.6178  -24.7484   19.0210 H   0  0  0  0  0  0
  -29.2968  -24.9747   19.0987 H   0  0  0  0  0  0
  -28.8712  -15.6774   20.9063 H   0  0  0  0  0  0
  1 25  1  0  0  0
  1 30  2  0  0  0
  1 82  1  0  0  0
  2  3  1  0  0  0
  2 25  1  0  0  0
  2 83  1  0  0  0
  2 84  1  0  0  0
  3  4  1  0  0  0
  3 85  1  0  0  0
  3 86  1  0  0  0
  4  5  1  0  0  0
  4 87  1  0  0  0
  4 88  1  0  0  0
  5  6  1  0  0  0
  5 26  1  0  0  0
  5 89  1  0  0  0
  6 25  1  0  0  0
  6 90  1  0  0  0
  6 91  1  0  0  0
  7  8  2  0  0  0
  7 26  1  0  0  0
  7 29  1  0  0  0
  8  9  1  0  0  0
  8 22  1  0  0  0
  9 10  1  0  0  0
  9 27  2  0  0  0
 10 11  2  0  0  0
 10 15  1  0  0  0
 11 12  1  0  0  0
 11 92  1  0  0  0
 12 13  2  0  0  0
 12 93  1  0  0  0
 13 14  1  0  0  0
 13 31  1  0  0  0
 14 15  2  0  0  0
 14 94  1  0  0  0
 15 95  1  0  0  0
 16 17  2  0  0  0
 16 21  1  0  0  0
 16 31  1  0  0  0
 17 18  1  0  0  0
 17 96  1  0  0  0
 18 19  2  0  0  0
 18 97  1  0  0  0
 19 20  1  0  0  0
 19 24  1  0  0  0
 20 21  2  0  0  0
 20 98  1  0  0  0
 21 23  1  0  0  0
 22 28  1  0  0  0
 22 32  2  0  0  0
 26 27  1  0  0  0
 28 99  1  0  0  0
 28100  1  0  0  0
 29101  1  0  0  0
 29102  1  0  0  0
 33 34  1  0  0  0
 33 66  1  0  0  0
 33 70  2  0  0  0
 34 36  1  0  0  0
 34 59  1  0  0  0
 34103  1  0  0  0
 35 44  2  0  0  0
 35 45  1  0  0  0
 35 68  1  0  0  0
 36 56  1  0  0  0
 36104  1  0  0  0
 37 39  1  0  0  0
 37 47  1  0  0  0
 37 66  1  0  0  0
 37105  1  0  0  0
 38 43  2  0  0  0
 38 46  1  0  0  0
 38 47  1  0  0  0
 39 64  1  0  0  0
 39 67  2  0  0  0
 40 52  1  0  0  0
 40 53  2  0  0  0
 40 58  1  0  0  0
 41106  1  0  0  0
 41107  1  0  0  0
 41108  1  0  0  0
 41 48  1  0  0  0
 42 43  1  0  0  0
 42 66  1  0  0  0
 42109  1  0  0  0
 42110  1  0  0  0
 43 44  1  0  0  0
 44111  1  0  0  0
 45 46  2  0  0  0
 45112  1  0  0  0
 46113  1  0  0  0
 47114  1  0  0  0
 47115  1  0  0  0
 48 56  1  0  0  0
 48 65  1  0  0  0
 48116  1  0  0  0
 49 50  1  0  0  0
 49 53  1  0  0  0
 49 64  1  0  0  0
 49117  1  0  0  0
 50 51  1  0  0  0
 50118  1  0  0  0
 50119  1  0  0  0
 51 52  1  0  0  0
 51120  1  0  0  0
 51121  1  0  0  0
 52122  1  0  0  0
 52123  1  0  0  0
 53 54  1  0  0  0
 54 55  2  0  0  0
 54124  1  0  0  0
 55 57  1  0  0  0
 55125  1  0  0  0
 56 69  2  0  0  0
 57 58  2  0  0  0
 57126  1  0  0  0
 58127  1  0  0  0
 59 60  1  0  0  0
 59 61  1  0  0  0
 59 62  1  0  0  0
 60128  1  0  0  0
 60129  1  0  0  0
 60130  1  0  0  0
 61131  1  0  0  0
 61132  1  0  0  0
 61133  1  0  0  0
 62134  1  0  0  0
 62135  1  0  0  0
 62136  1  0  0  0
 63 65  1  0  0  0
 63137  1  0  0  0
 63138  1  0  0  0
 63139  1  0  0  0
 64140  1  0  0  0
 65141  1  0  0  0
 68 80  1  0  0  0
 71 72  2  0  0  0
 71 81  1  0  0  0
 71142  1  0  0  0
 72 73  1  0  0  0
 72 77  1  0  0  0
 73 74  2  0  0  0
 73 75  1  0  0  0
 74 76  1  0  0  0
 74 81  1  0  0  0
 75143  1  0  0  0
 75144  1  0  0  0
 75145  1  0  0  0
 76146  1  0  0  0
 76147  1  0  0  0
 76148  1  0  0  0
 77 79  1  0  0  0
 77149  1  0  0  0
 77150  1  0  0  0
 78 80  1  0  0  0
 78 81  1  0  0  0
 78151  1  0  0  0
 78152  1  0  0  0
 79 82  1  0  0  0
 79153  1  0  0  0
 79154  1  0  0  0
 80155  1  0  0  0
 80156  1  0  0  0
 82157  1  0  0  0
M  ISO  4   1 100  68 101  80 101  82 100
M  END
> <chiral flag>
0

> <version>
0

> <s_m_source_file>
/data/baiqing/PycharmProjects/Reinvent-master-3.2/result/LINK_invent/BTK/process_docking_weight1_custom_sum_contain_oxygen_bond_distance_aromatic_linkinvent_7_9_3/rearranged_h_0099.sdf

> <i_m_source_file_index>
75

> <r_mmod_Potential_Energy-OPLS-2005>
88.7981491088867

> <r_mmod_Stretch_Energy-OPLS-2005>
119.155494689941

> <r_mmod_Bend_Energy-OPLS-2005>
180.300445556641

> <r_mmod_Torsional_Energy-OPLS-2005>
207.77326965332

> <r_mmod_Improper_Torsional_Energy-OPLS-2005>
5.89163446426392

> <r_mmod_Van_der_Waal_Energy-OPLS-2005>
117.041526794434

> <r_mmod_Electrostatic_Energy-OPLS-2005>
-400.261352539062

> <r_mmod_Solvation_Energy-OPLS-2005>
-218.53434753418

> <b_mmod_Minimization_Converged-OPLS-2005>
0

> <r_mmod_RMS_Derivative-OPLS-2005>
0.556785702705383

$$$$
75
                    3D
 Structure written by MMmdl.
183191  0  0  1  0            999 V2000
  -30.6879  -14.4990   20.4062 C   0  0  0  0  0  0
  -30.4193  -12.2709   19.4388 C   0  0  0  0  0  0
  -29.4879  -12.3989   18.2139 C   0  0  0  0  0  0
  -28.0085  -12.3088   18.6347 C   0  0  0  0  0  0
  -27.6522  -13.2020   19.8551 C   0  0  2  0  0  0
  -28.7042  -13.0725   20.9810 C   0  0  0  0  0  0
  -25.2599  -13.8163   20.5714 C   0  0  0  0  0  0
  -24.1842  -13.0442   20.9183 C   0  0  0  0  0  0
  -24.6392  -11.6910   20.8773 C   0  0  0  0  0  0
  -23.9060  -10.4295   21.0428 C   0  0  0  0  0  0
  -24.3611   -9.4211   21.9204 C   0  0  0  0  0  0
  -23.6293   -8.2248   22.0764 C   0  0  0  0  0  0
  -22.4275   -8.0292   21.3555 C   0  0  0  0  0  0
  -21.9908   -9.0265   20.4651 C   0  0  0  0  0  0
  -22.7237  -10.2149   20.3071 C   0  0  0  0  0  0
  -21.6848   -6.0749   22.5277 C   0  0  0  0  0  0
  -21.4001   -6.5644   23.8211 C   0  0  0  0  0  0
  -21.3659   -5.6795   24.9173 C   0  0  0  0  0  0
  -21.6048   -4.3058   24.7218 C   0  0  0  0  0  0
  -21.8819   -3.8155   23.4335 C   0  0  0  0  0  0
  -21.9185   -4.6977   22.3394 C   0  0  0  0  0  0
  -22.7865  -13.5252   21.1842 C   0  0  0  0  0  0
  -22.1666   -4.2165   21.0974 F   0  0  0  0  0  0
  -21.5627   -3.4542   25.7729 F   0  0  0  0  0  0
  -30.0286  -13.3133   20.3949 N   0  0  0  0  0  0
  -26.3003  -12.9317   20.3368 N   0  0  0  0  0  0
  -25.9313  -11.6488   20.5842 N   0  0  0  0  0  0
  -22.0502  -12.8242   22.0387 N   0  0  0  0  0  0
  -25.4358  -15.1878   20.4159 N   0  0  0  0  0  0
  -31.9104  -14.5897   20.2726 O   0  0  0  0  0  0
  -21.6637   -6.8896   21.4247 O   0  0  0  0  0  0
  -22.3559  -14.5569   20.6703 O   0  0  0  0  0  0
  -24.6110  -31.8709   23.2138 C   0  0  0  0  0  0
  -25.9005  -32.4837   23.8434 C   0  0  1  0  0  0
  -27.2386  -27.4787   20.0898 C   0  0  0  0  0  0
  -25.5869  -33.8640   24.2356 N   0  0  0  0  0  0
  -23.3994  -30.4953   21.5514 C   0  0  2  0  0  0
  -24.8488  -28.9642   20.1184 C   0  0  0  0  0  0
  -22.7395  -29.4698   22.5003 C   0  0  0  0  0  0
  -18.0269  -28.1402   22.8485 C   0  0  0  0  0  0
  -24.1490  -36.7334   23.2639 C   0  0  0  0  0  0
  -25.9242  -30.8487   21.3624 C   0  0  0  0  0  0
  -26.0028  -29.4824   20.7190 C   0  0  0  0  0  0
  -27.2026  -28.7427   20.7120 C   0  0  0  0  0  0
  -26.0800  -26.9722   19.4693 C   0  0  0  0  0  0
  -24.8778  -27.7033   19.4960 C   0  0  0  0  0  0
  -23.6082  -29.8248   20.1674 C   0  0  0  0  0  0
  -25.4108  -36.3136   24.0337 C   0  0  1  0  0  0
  -20.5865  -28.3686   23.1328 C   0  0  2  0  0  0
  -20.6775  -26.9432   22.5420 C   0  0  0  0  0  0
  -19.5740  -26.6413   21.5230 C   0  0  0  0  0  0
  -18.1909  -26.7947   22.1621 C   0  0  0  0  0  0
  -19.1523  -28.8852   23.2902 C   0  0  0  0  0  0
  -18.9452  -30.1447   23.8931 C   0  0  0  0  0  0
  -17.6459  -30.6604   24.0578 C   0  0  0  0  0  0
  -25.9035  -34.9486   23.5155 C   0  0  0  0  0  0
  -16.5347  -29.9113   23.6332 C   0  0  0  0  0  0
  -16.7261  -28.6531   23.0345 C   0  0  0  0  0  0
  -26.4451  -31.6610   25.0752 C   0  0  0  0  0  0
  -25.3718  -31.3690   26.1509 C   0  0  0  0  0  0
  -27.0271  -30.3061   24.6094 C   0  0  0  0  0  0
  -27.6063  -32.4330   25.7464 C   0  0  0  0  0  0
  -27.5573  -37.1816   24.8452 C   0  0  0  0  0  0
  -21.4127  -29.3049   22.3730 N   0  0  0  0  0  0
  -26.4303  -37.3809   23.9393 N   0  0  0  0  0  0
  -24.6633  -31.0847   22.1020 N   0  0  0  0  0  0
  -23.4166  -28.8246   23.3056 O   0  0  0  0  0  0
  -28.3962  -26.7446   20.0491 O   0  0  0  0  0  0
  -26.5613  -34.8919   22.4733 O   0  0  0  0  0  0
  -23.5302  -32.1453   23.7532 O   0  0  0  0  0  0
  -28.1896  -18.7229   20.5631 C   0  0  0  0  0  0
  -28.4350  -17.4218   20.1014 C   0  0  0  0  0  0
  -30.1686  -17.1444   21.7802 C   0  0  0  0  0  0
  -28.9830  -19.2838   21.5819 C   0  0  0  0  0  0
  -29.9416  -18.4651   22.2404 C   0  0  0  0  0  0
  -29.4819  -16.6474   20.6490 C   0  0  0  0  0  0
  -30.1259  -15.8036   18.4741 C   0  0  0  0  0  0
  -34.0301  -20.7659   19.9316 C   0  0  0  0  0  0
  -34.7756  -20.9486   22.2597 C   0  0  0  0  0  0
  -28.1582  -24.1332   23.6678 C   0  0  0  0  0  0
  -28.8392  -20.7859   21.8140 C   0  0  0  0  0  0
  -30.8209  -18.9784   23.3740 C   0  0  0  0  0  0
  -27.5701  -21.1997   22.5799 C   0  0  0  0  0  0
  -32.2908  -19.1825   22.9536 C   0  0  0  0  0  0
  -27.0043  -22.5679   22.1371 C   0  0  0  0  0  0
  -32.4893  -20.1291   21.7473 C   0  0  0  0  0  0
  -27.5885  -24.8236   21.3455 C   0  0  0  0  0  0
  -28.6407  -25.9514   21.2127 C   0  0  0  0  0  0
  -29.9310  -15.5118   19.9078 N   0  0  0  0  0  0
  -33.9052  -20.2227   21.3045 N   0  3  0  0  0  0
  -27.9634  -23.7046   22.2590 N   0  3  1  0  0  0
  -31.4637  -12.3566   19.1308 H   0  0  0  0  0  0
  -30.3170  -11.2873   19.9000 H   0  0  0  0  0  0
  -29.7143  -11.6088   17.4968 H   0  0  0  0  0  0
  -29.6599  -13.3280   17.6782 H   0  0  0  0  0  0
  -27.8116  -11.2641   18.8781 H   0  0  0  0  0  0
  -27.3606  -12.5482   17.7899 H   0  0  0  0  0  0
  -27.6628  -14.2299   19.4961 H   0  0  0  0  0  0
  -28.6719  -12.0815   21.4343 H   0  0  0  0  0  0
  -28.4967  -13.7872   21.7804 H   0  0  0  0  0  0
  -25.2763   -9.5675   22.4772 H   0  0  0  0  0  0
  -24.0001   -7.4625   22.7462 H   0  0  0  0  0  0
  -21.0849   -8.8783   19.8939 H   0  0  0  0  0  0
  -22.3712  -10.9690   19.6170 H   0  0  0  0  0  0
  -21.1993   -7.6149   23.9725 H   0  0  0  0  0  0
  -21.1484   -6.0524   25.9082 H   0  0  0  0  0  0
  -22.0597   -2.7618   23.2825 H   0  0  0  0  0  0
  -22.4104  -11.9884   22.4749 H   0  0  0  0  0  0
  -21.1143  -13.1296   22.2620 H   0  0  0  0  0  0
  -24.6831  -15.8530   20.5512 H   0  0  0  0  0  0
  -26.3152  -15.6253   20.1725 H   0  0  0  0  0  0
  -26.7074  -32.5589   23.1200 H   0  0  0  0  0  0
  -24.9982  -33.9808   25.0470 H   0  0  0  0  0  0
  -22.6895  -31.3126   21.4081 H   0  0  0  0  0  0
  -23.3745  -35.9676   23.3329 H   0  0  0  0  0  0
  -24.3594  -36.8945   22.2053 H   0  0  0  0  0  0
  -23.7245  -37.6544   23.6655 H   0  0  0  0  0  0
  -26.0306  -31.6140   20.5924 H   0  0  0  0  0  0
  -26.8179  -30.9102   21.9722 H   0  0  0  0  0  0
  -28.0970  -29.1457   21.1658 H   0  0  0  0  0  0
  -26.1109  -26.0159   18.9686 H   0  0  0  0  0  0
  -23.9945  -27.3016   19.0207 H   0  0  0  0  0  0
  -23.7078  -30.5976   19.4040 H   0  0  0  0  0  0
  -22.7336  -29.2380   19.8809 H   0  0  0  0  0  0
  -25.1274  -36.2027   25.0827 H   0  0  0  0  0  0
  -20.9944  -28.3276   24.1454 H   0  0  0  0  0  0
  -20.5717  -26.2307   23.3609 H   0  0  0  0  0  0
  -21.6639  -26.7499   22.1183 H   0  0  0  0  0  0
  -19.6921  -25.6340   21.1232 H   0  0  0  0  0  0
  -19.6687  -27.3251   20.6789 H   0  0  0  0  0  0
  -17.4190  -26.6711   21.4012 H   0  0  0  0  0  0
  -18.0283  -26.0104   22.9027 H   0  0  0  0  0  0
  -19.7931  -30.7250   24.2326 H   0  0  0  0  0  0
  -17.5017  -31.6281   24.5180 H   0  0  0  0  0  0
  -15.5346  -30.3018   23.7648 H   0  0  0  0  0  0
  -15.8660  -28.0859   22.7038 H   0  0  0  0  0  0
  -24.5867  -30.7073   25.7824 H   0  0  0  0  0  0
  -24.8913  -32.2829   26.5025 H   0  0  0  0  0  0
  -25.8062  -30.8787   27.0229 H   0  0  0  0  0  0
  -26.2794  -29.6826   24.1177 H   0  0  0  0  0  0
  -27.4087  -29.7296   25.4528 H   0  0  0  0  0  0
  -27.8614  -30.4403   23.9204 H   0  0  0  0  0  0
  -27.2731  -33.3631   26.2076 H   0  0  0  0  0  0
  -28.3819  -32.6904   25.0239 H   0  0  0  0  0  0
  -28.0797  -31.8436   26.5326 H   0  0  0  0  0  0
  -28.2606  -38.0096   24.7525 H   0  0  0  0  0  0
  -28.1057  -36.2642   24.6268 H   0  0  0  0  0  0
  -27.2293  -37.1463   25.8854 H   0  0  0  0  0  0
  -20.9291  -29.8761   21.6935 H   0  0  0  0  0  0
  -26.0197  -38.2890   24.1416 H   0  0  0  0  0  0
  -27.4425  -19.3237   20.0625 H   0  0  0  0  0  0
  -27.8765  -17.0676   19.2469 H   0  0  0  0  0  0
  -30.9650  -16.5709   22.2312 H   0  0  0  0  0  0
  -29.1923  -15.6693   17.9270 H   0  0  0  0  0  0
  -30.8834  -15.1825   17.9901 H   0  0  0  0  0  0
  -30.4528  -16.8352   18.3287 H   0  0  0  0  0  0
  -35.0713  -20.7649   19.6070 H   0  0  0  0  0  0
  -33.6607  -21.7905   19.8747 H   0  0  0  0  0  0
  -33.4701  -20.1626   19.2163 H   0  0  0  0  0  0
  -35.8003  -20.9946   21.8900 H   0  0  0  0  0  0
  -34.8130  -20.4528   23.2286 H   0  0  0  0  0  0
  -34.4313  -21.9713   22.4155 H   0  0  0  0  0  0
  -28.9421  -24.8851   23.7526 H   0  0  0  0  0  0
  -28.4568  -23.2964   24.2998 H   0  0  0  0  0  0
  -27.2423  -24.5566   24.0824 H   0  0  0  0  0  0
  -28.8187  -21.2355   20.8201 H   0  0  0  0  0  0
  -29.7211  -21.2194   22.2809 H   0  0  0  0  0  0
  -30.7842  -18.2489   24.1840 H   0  0  0  0  0  0
  -30.4181  -19.8895   23.8143 H   0  0  0  0  0  0
  -27.7401  -21.1551   23.6561 H   0  0  0  0  0  0
  -26.7853  -20.4685   22.3799 H   0  0  0  0  0  0
  -32.7259  -18.2102   22.7193 H   0  0  0  0  0  0
  -32.8366  -19.5540   23.8201 H   0  0  0  0  0  0
  -26.0920  -22.7959   22.6914 H   0  0  0  0  0  0
  -26.6881  -22.4653   21.0981 H   0  0  0  0  0  0
  -32.1092  -21.1253   21.9774 H   0  0  0  0  0  0
  -31.8940  -19.7611   20.9101 H   0  0  0  0  0  0
  -27.4416  -24.4130   20.3464 H   0  0  0  0  0  0
  -26.6287  -25.2388   21.6543 H   0  0  0  0  0  0
  -29.6361  -25.5183   21.1029 H   0  0  0  0  0  0
  -28.6702  -26.5823   22.1015 H   0  0  0  0  0  0
  -34.2576  -19.2783   21.2503 H   0  0  0  0  0  0
  -28.8550  -23.3617   21.9316 H   0  0  0  0  0  0
  1 25  1  0  0  0
  1 30  2  0  0  0
  1 89  1  0  0  0
  2  3  1  0  0  0
  2 25  1  0  0  0
  2 92  1  0  0  0
  2 93  1  0  0  0
  3  4  1  0  0  0
  3 94  1  0  0  0
  3 95  1  0  0  0
  4  5  1  0  0  0
  4 96  1  0  0  0
  4 97  1  0  0  0
  5  6  1  0  0  0
  5 26  1  0  0  0
  5 98  1  0  0  0
  6 25  1  0  0  0
  6 99  1  0  0  0
  6100  1  0  0  0
  7  8  2  0  0  0
  7 26  1  0  0  0
  7 29  1  0  0  0
  8  9  1  0  0  0
  8 22  1  0  0  0
  9 10  1  0  0  0
  9 27  2  0  0  0
 10 11  2  0  0  0
 10 15  1  0  0  0
 11 12  1  0  0  0
 11101  1  0  0  0
 12 13  2  0  0  0
 12102  1  0  0  0
 13 14  1  0  0  0
 13 31  1  0  0  0
 14 15  2  0  0  0
 14103  1  0  0  0
 15104  1  0  0  0
 16 17  2  0  0  0
 16 21  1  0  0  0
 16 31  1  0  0  0
 17 18  1  0  0  0
 17105  1  0  0  0
 18 19  2  0  0  0
 18106  1  0  0  0
 19 20  1  0  0  0
 19 24  1  0  0  0
 20 21  2  0  0  0
 20107  1  0  0  0
 21 23  1  0  0  0
 22 28  1  0  0  0
 22 32  2  0  0  0
 26 27  1  0  0  0
 28108  1  0  0  0
 28109  1  0  0  0
 29110  1  0  0  0
 29111  1  0  0  0
 33 34  1  0  0  0
 33 66  1  0  0  0
 33 70  2  0  0  0
 34 36  1  0  0  0
 34 59  1  0  0  0
 34112  1  0  0  0
 35 44  2  0  0  0
 35 45  1  0  0  0
 35 68  1  0  0  0
 36 56  1  0  0  0
 36113  1  0  0  0
 37 39  1  0  0  0
 37 47  1  0  0  0
 37 66  1  0  0  0
 37114  1  0  0  0
 38 43  2  0  0  0
 38 46  1  0  0  0
 38 47  1  0  0  0
 39 64  1  0  0  0
 39 67  2  0  0  0
 40 52  1  0  0  0
 40 53  2  0  0  0
 40 58  1  0  0  0
 41115  1  0  0  0
 41116  1  0  0  0
 41117  1  0  0  0
 41 48  1  0  0  0
 42 43  1  0  0  0
 42 66  1  0  0  0
 42118  1  0  0  0
 42119  1  0  0  0
 43 44  1  0  0  0
 44120  1  0  0  0
 45 46  2  0  0  0
 45121  1  0  0  0
 46122  1  0  0  0
 47123  1  0  0  0
 47124  1  0  0  0
 48 56  1  0  0  0
 48 65  1  0  0  0
 48125  1  0  0  0
 49 50  1  0  0  0
 49 53  1  0  0  0
 49 64  1  0  0  0
 49126  1  0  0  0
 50 51  1  0  0  0
 50127  1  0  0  0
 50128  1  0  0  0
 51 52  1  0  0  0
 51129  1  0  0  0
 51130  1  0  0  0
 52131  1  0  0  0
 52132  1  0  0  0
 53 54  1  0  0  0
 54 55  2  0  0  0
 54133  1  0  0  0
 55 57  1  0  0  0
 55134  1  0  0  0
 56 69  2  0  0  0
 57 58  2  0  0  0
 57135  1  0  0  0
 58136  1  0  0  0
 59 60  1  0  0  0
 59 61  1  0  0  0
 59 62  1  0  0  0
 60137  1  0  0  0
 60138  1  0  0  0
 60139  1  0  0  0
 61140  1  0  0  0
 61141  1  0  0  0
 61142  1  0  0  0
 62143  1  0  0  0
 62144  1  0  0  0
 62145  1  0  0  0
 63 65  1  0  0  0
 63146  1  0  0  0
 63147  1  0  0  0
 63148  1  0  0  0
 64149  1  0  0  0
 65150  1  0  0  0
 68 88  1  0  0  0
 71 72  2  0  0  0
 71 74  1  0  0  0
 71151  1  0  0  0
 72 76  1  0  0  0
 72152  1  0  0  0
 73 75  1  0  0  0
 73 76  2  0  0  0
 73153  1  0  0  0
 74 75  2  0  0  0
 74 81  1  0  0  0
 75 82  1  0  0  0
 76 89  1  0  0  0
 77 89  1  0  0  0
 77154  1  0  0  0
 77155  1  0  0  0
 77156  1  0  0  0
 78157  1  0  0  0
 78158  1  0  0  0
 78159  1  0  0  0
 78 90  1  0  0  0
 79 90  1  0  0  0
 79160  1  0  0  0
 79161  1  0  0  0
 79162  1  0  0  0
 80163  1  0  0  0
 80164  1  0  0  0
 80165  1  0  0  0
 80 91  1  0  0  0
 81 83  1  0  0  0
 81166  1  0  0  0
 81167  1  0  0  0
 82 84  1  0  0  0
 82168  1  0  0  0
 82169  1  0  0  0
 83 85  1  0  0  0
 83170  1  0  0  0
 83171  1  0  0  0
 84 86  1  0  0  0
 84172  1  0  0  0
 84173  1  0  0  0
 85 91  1  0  0  0
 85174  1  0  0  0
 85175  1  0  0  0
 86 90  1  0  0  0
 86176  1  0  0  0
 86177  1  0  0  0
 87 88  1  0  0  0
 87 91  1  0  0  0
 87178  1  0  0  0
 87179  1  0  0  0
 88180  1  0  0  0
 88181  1  0  0  0
 90182  1  0  0  0
 91183  1  0  0  0
M  CHG  2  90   1  91   1
M  ISO  4   1 100  68 101  88 101  89 100
M  END
> <chiral flag>
0

> <version>
0

> <s_m_source_file>
/data/baiqing/PycharmProjects/Reinvent-master-3.2/result/LINK_invent/BTK/process_docking_weight1_custom_sum_contain_oxygen_bond_distance_aromatic_linkinvent_7_9_3/rearranged_h_0099.sdf

> <i_m_source_file_index>
76

> <r_mmod_Potential_Energy-OPLS-2005>
6.05022192001343

> <r_mmod_Stretch_Energy-OPLS-2005>
37.776554107666

> <r_mmod_Bend_Energy-OPLS-2005>
111.168060302734

> <r_mmod_Torsional_Energy-OPLS-2005>
363.666809082031

> <r_mmod_Improper_Torsional_Energy-OPLS-2005>
27.1454944610596

> <r_mmod_Van_der_Waal_Energy-OPLS-2005>
154.054794311523

> <r_mmod_Electrostatic_Energy-OPLS-2005>
119.592269897461

> <r_mmod_Solvation_Energy-OPLS-2005>
-835.60302734375

> <b_mmod_Minimization_Converged-OPLS-2005>
0

> <r_mmod_RMS_Derivative-OPLS-2005>
2.44636416435242

$$$$
76
                    3D
 Structure written by MMmdl.
178186  0  0  1  0            999 V2000
  -30.5617  -14.7881   20.4648 C   0  0  0  0  0  0
  -30.4491  -12.4895   19.4924 C   0  0  0  0  0  0
  -29.5225  -12.5171   18.2557 C   0  0  0  0  0  0
  -28.0456  -12.3395   18.6582 C   0  0  0  0  0  0
  -27.6465  -13.2315   19.8651 C   0  0  2  0  0  0
  -28.6860  -13.1660   21.0044 C   0  0  0  0  0  0
  -25.2571  -13.8164   20.5750 C   0  0  0  0  0  0
  -24.1800  -13.0430   20.9172 C   0  0  0  0  0  0
  -24.6373  -11.6924   20.8681 C   0  0  0  0  0  0
  -23.9022  -10.4318   21.0314 C   0  0  0  0  0  0
  -24.3601   -9.4268   21.9100 C   0  0  0  0  0  0
  -23.6317   -8.2291   22.0697 C   0  0  0  0  0  0
  -22.4282   -8.0297   21.3501 C   0  0  0  0  0  0
  -21.9877   -9.0247   20.4576 C   0  0  0  0  0  0
  -22.7194  -10.2148   20.2980 C   0  0  0  0  0  0
  -21.6861   -6.0741   22.5275 C   0  0  0  0  0  0
  -21.4010   -6.5619   23.8206 C   0  0  0  0  0  0
  -21.3668   -5.6761   24.9162 C   0  0  0  0  0  0
  -21.6062   -4.3021   24.7182 C   0  0  0  0  0  0
  -21.8832   -3.8121   23.4292 C   0  0  0  0  0  0
  -21.9209   -4.6964   22.3364 C   0  0  0  0  0  0
  -22.7865  -13.5249   21.1852 C   0  0  0  0  0  0
  -22.1671   -4.2155   21.0943 F   0  0  0  0  0  0
  -21.5634   -3.4504   25.7677 F   0  0  0  0  0  0
  -29.9872  -13.5380   20.4352 N   0  0  0  0  0  0
  -26.2979  -12.9360   20.3369 N   0  0  0  0  0  0
  -25.9323  -11.6503   20.5763 N   0  0  0  0  0  0
  -22.0526  -12.8173   22.0386 N   0  0  0  0  0  0
  -25.4386  -15.1837   20.4303 N   0  0  0  0  0  0
  -31.7255  -14.9377   20.0801 O   0  0  0  0  0  0
  -21.6641   -6.8906   21.4248 O   0  0  0  0  0  0
  -22.3503  -14.5553   20.6753 O   0  0  0  0  0  0
  -24.6289  -31.8600   23.2009 C   0  0  0  0  0  0
  -25.9154  -32.4776   23.8349 C   0  0  1  0  0  0
  -27.2218  -27.2849   20.1346 C   0  0  0  0  0  0
  -25.5972  -33.8569   24.2264 N   0  0  0  0  0  0
  -23.4208  -30.4886   21.5390 C   0  0  2  0  0  0
  -24.8745  -28.9474   20.1004 C   0  0  0  0  0  0
  -22.7468  -29.4634   22.4825 C   0  0  0  0  0  0
  -18.0299  -28.1371   22.8482 C   0  0  0  0  0  0
  -24.1483  -36.7286   23.2624 C   0  0  0  0  0  0
  -25.9658  -30.7890   21.3727 C   0  0  0  0  0  0
  -26.0441  -29.4118   20.7144 C   0  0  0  0  0  0
  -27.2220  -28.5973   20.7158 C   0  0  0  0  0  0
  -26.0296  -26.8860   19.4880 C   0  0  0  0  0  0
  -24.8764  -27.6941   19.4701 C   0  0  0  0  0  0
  -23.6426  -29.8353   20.1490 C   0  0  0  0  0  0
  -25.4106  -36.3050   24.0298 C   0  0  1  0  0  0
  -20.5908  -28.3687   23.1243 C   0  0  2  0  0  0
  -20.6757  -26.9397   22.5385 C   0  0  0  0  0  0
  -19.5728  -26.6377   21.5189 C   0  0  0  0  0  0
  -18.1926  -26.7914   22.1617 C   0  0  0  0  0  0
  -19.1551  -28.8833   23.2889 C   0  0  0  0  0  0
  -18.9482  -30.1437   23.8910 C   0  0  0  0  0  0
  -17.6478  -30.6576   24.0565 C   0  0  0  0  0  0
  -25.9070  -34.9436   23.5078 C   0  0  0  0  0  0
  -16.5372  -29.9073   23.6319 C   0  0  0  0  0  0
  -16.7288  -28.6486   23.0353 C   0  0  0  0  0  0
  -26.4551  -31.6574   25.0711 C   0  0  0  0  0  0
  -25.3781  -31.3744   26.1434 C   0  0  0  0  0  0
  -27.0371  -30.2958   24.6187 C   0  0  0  0  0  0
  -27.6093  -32.4295   25.7521 C   0  0  0  0  0  0
  -27.5563  -37.1791   24.8456 C   0  0  0  0  0  0
  -21.4168  -29.3068   22.3615 N   0  0  0  0  0  0
  -26.4259  -37.3757   23.9416 N   0  0  0  0  0  0
  -24.6908  -31.0599   22.0970 N   0  0  0  0  0  0
  -23.4204  -28.8161   23.2894 O   0  0  0  0  0  0
  -28.3303  -26.4079   20.1912 O   0  0  0  0  0  0
  -26.5598  -34.8906   22.4619 O   0  0  0  0  0  0
  -23.5465  -32.1413   23.7336 O   0  0  0  0  0  0
  -29.7387  -21.2599   20.8504 C   0  0  0  0  0  0
  -29.1174  -22.3132   20.1670 C   0  0  0  0  0  0
  -28.3297  -21.5770   19.2119 C   0  0  0  0  0  0
  -27.9983  -20.4046   19.8708 C   0  0  0  0  0  0
  -27.9590  -20.8362   16.8101 C   0  0  0  0  0  0
  -28.6040  -23.1429   17.1721 C   0  0  0  0  0  0
  -26.4371  -18.9249   21.3514 C   0  0  0  0  0  0
  -24.1395  -19.8442   19.3566 C   0  0  0  0  0  0
  -25.7824  -18.1784   18.4593 C   0  0  0  0  0  0
  -29.5741  -18.6181   21.1159 C   0  0  0  0  0  0
  -29.7487  -17.3172   20.1549 C   0  0  0  0  0  0
  -28.0884  -24.9248   20.2362 C   0  0  0  0  0  0
  -27.8140  -21.9956   17.8251 C   0  0  0  0  0  0
  -29.3336  -23.8993   20.3341 C   0  0  2  0  0  0
  -26.5821  -19.9076   20.1746 C   0  0  2  0  0  0
  -25.6176  -19.6015   18.9934 C   0  0  0  0  0  0
  -29.1573  -19.9980   20.5554 N   0  0  0  0  0  0
  -29.7335  -15.8763   20.7140 N   0  0  0  0  0  0
  -30.3979  -24.3807   19.4411 N   0  3  0  0  0  0
  -31.4805  -12.6512   19.1733 H   0  0  0  0  0  0
  -30.4393  -11.5128   19.9791 H   0  0  0  0  0  0
  -29.8169  -11.7398   17.5478 H   0  0  0  0  0  0
  -29.6454  -13.4677   17.7339 H   0  0  0  0  0  0
  -27.9004  -11.2885   18.9120 H   0  0  0  0  0  0
  -27.3968  -12.5401   17.8025 H   0  0  0  0  0  0
  -27.6398  -14.2583   19.4926 H   0  0  0  0  0  0
  -28.7316  -12.1666   21.4377 H   0  0  0  0  0  0
  -28.4102  -13.8383   21.8191 H   0  0  0  0  0  0
  -25.2753   -9.5752   22.4654 H   0  0  0  0  0  0
  -24.0027   -7.4661   22.7372 H   0  0  0  0  0  0
  -21.0825   -8.8736   19.8854 H   0  0  0  0  0  0
  -22.3626  -10.9672   19.6071 H   0  0  0  0  0  0
  -21.1997   -7.6119   23.9688 H   0  0  0  0  0  0
  -21.1482   -6.0498   25.9070 H   0  0  0  0  0  0
  -22.0606   -2.7588   23.2784 H   0  0  0  0  0  0
  -22.4222  -11.9906   22.4829 H   0  0  0  0  0  0
  -21.1152  -13.1165   22.2552 H   0  0  0  0  0  0
  -24.6789  -15.8486   20.4953 H   0  0  0  0  0  0
  -26.3103  -15.6073   20.1425 H   0  0  0  0  0  0
  -26.7231  -32.5440   23.1120 H   0  0  0  0  0  0
  -25.0180  -33.9749   25.0439 H   0  0  0  0  0  0
  -22.7178  -31.3135   21.4005 H   0  0  0  0  0  0
  -23.3735  -35.9633   23.3261 H   0  0  0  0  0  0
  -24.3604  -36.8951   22.2057 H   0  0  0  0  0  0
  -23.7261  -37.6478   23.6687 H   0  0  0  0  0  0
  -26.0931  -31.5616   20.6129 H   0  0  0  0  0  0
  -26.8440  -30.8433   22.0056 H   0  0  0  0  0  0
  -28.1154  -28.9528   21.2087 H   0  0  0  0  0  0
  -25.9464  -25.9396   18.9790 H   0  0  0  0  0  0
  -23.9920  -27.3352   18.9600 H   0  0  0  0  0  0
  -23.7534  -30.6227   19.3992 H   0  0  0  0  0  0
  -22.7596  -29.2754   19.8385 H   0  0  0  0  0  0
  -25.1295  -36.1873   25.0785 H   0  0  0  0  0  0
  -21.0068  -28.3267   24.1341 H   0  0  0  0  0  0
  -20.5602  -26.2316   23.3606 H   0  0  0  0  0  0
  -21.6627  -26.7373   22.1224 H   0  0  0  0  0  0
  -19.6881  -25.6294   21.1227 H   0  0  0  0  0  0
  -19.6653  -27.3165   20.6708 H   0  0  0  0  0  0
  -17.4180  -26.6671   21.4040 H   0  0  0  0  0  0
  -18.0338  -26.0060   22.9022 H   0  0  0  0  0  0
  -19.7967  -30.7250   24.2284 H   0  0  0  0  0  0
  -17.5040  -31.6267   24.5156 H   0  0  0  0  0  0
  -15.5367  -30.2997   23.7610 H   0  0  0  0  0  0
  -15.8697  -28.0818   22.7052 H   0  0  0  0  0  0
  -24.5963  -30.7080   25.7786 H   0  0  0  0  0  0
  -24.8996  -32.2941   26.4800 H   0  0  0  0  0  0
  -25.8121  -30.8983   27.0237 H   0  0  0  0  0  0
  -26.2941  -29.6710   24.1211 H   0  0  0  0  0  0
  -27.4033  -29.7216   25.4721 H   0  0  0  0  0  0
  -27.8846  -30.4184   23.9430 H   0  0  0  0  0  0
  -27.2674  -33.3577   26.2107 H   0  0  0  0  0  0
  -28.3944  -32.6868   25.0399 H   0  0  0  0  0  0
  -28.0716  -31.8405   26.5463 H   0  0  0  0  0  0
  -28.2541  -38.0116   24.7501 H   0  0  0  0  0  0
  -28.1081  -36.2644   24.6251 H   0  0  0  0  0  0
  -27.2299  -37.1409   25.8860 H   0  0  0  0  0  0
  -20.9270  -29.8937   21.7007 H   0  0  0  0  0  0
  -26.0115  -38.2810   24.1458 H   0  0  0  0  0  0
  -30.5389  -21.2986   21.5798 H   0  0  0  0  0  0
  -27.6537  -19.8647   17.1909 H   0  0  0  0  0  0
  -29.0020  -20.7287   16.5133 H   0  0  0  0  0  0
  -27.3927  -21.0350   15.8988 H   0  0  0  0  0  0
  -28.4749  -24.1149   17.6289 H   0  0  0  0  0  0
  -28.2954  -23.2680   16.1320 H   0  0  0  0  0  0
  -29.6666  -22.8948   17.1577 H   0  0  0  0  0  0
  -26.9452  -19.3094   22.2343 H   0  0  0  0  0  0
  -26.8241  -17.9356   21.1176 H   0  0  0  0  0  0
  -25.3966  -18.8083   21.6479 H   0  0  0  0  0  0
  -23.4951  -19.6421   18.5019 H   0  0  0  0  0  0
  -23.9598  -20.8745   19.6601 H   0  0  0  0  0  0
  -23.8084  -19.1938   20.1642 H   0  0  0  0  0  0
  -25.2096  -18.0339   17.5439 H   0  0  0  0  0  0
  -25.4123  -17.4616   19.1885 H   0  0  0  0  0  0
  -26.8275  -17.9487   18.2594 H   0  0  0  0  0  0
  -30.5294  -18.7647   21.6144 H   0  0  0  0  0  0
  -28.9062  -18.3676   21.9356 H   0  0  0  0  0  0
  -30.6365  -17.4490   19.5326 H   0  0  0  0  0  0
  -28.9176  -17.3501   19.4511 H   0  0  0  0  0  0
  -27.4299  -24.7287   21.0801 H   0  0  0  0  0  0
  -27.5044  -24.6424   19.3713 H   0  0  0  0  0  0
  -26.7644  -22.2765   17.9142 H   0  0  0  0  0  0
  -29.7249  -24.0302   21.3446 H   0  0  0  0  0  0
  -26.1394  -20.8119   20.5979 H   0  0  0  0  0  0
  -25.8006  -20.3013   18.1827 H   0  0  0  0  0  0
  -28.8439  -15.5985   21.0996 H   0  0  0  0  0  0
  -30.1363  -24.2529   18.4802 H   0  0  0  0  0  0
  -31.2753  -23.9212   19.6063 H   0  0  0  0  0  0
  -30.5181  -25.3666   19.6020 H   0  0  0  0  0  0
  1 25  1  0  0  0
  1 30  2  0  0  0
  1 88  1  0  0  0
  2  3  1  0  0  0
  2 25  1  0  0  0
  2 90  1  0  0  0
  2 91  1  0  0  0
  3  4  1  0  0  0
  3 92  1  0  0  0
  3 93  1  0  0  0
  4  5  1  0  0  0
  4 94  1  0  0  0
  4 95  1  0  0  0
  5  6  1  0  0  0
  5 26  1  0  0  0
  5 96  1  0  0  0
  6 25  1  0  0  0
  6 97  1  0  0  0
  6 98  1  0  0  0
  7  8  2  0  0  0
  7 26  1  0  0  0
  7 29  1  0  0  0
  8  9  1  0  0  0
  8 22  1  0  0  0
  9 10  1  0  0  0
  9 27  2  0  0  0
 10 11  2  0  0  0
 10 15  1  0  0  0
 11 12  1  0  0  0
 11 99  1  0  0  0
 12 13  2  0  0  0
 12100  1  0  0  0
 13 14  1  0  0  0
 13 31  1  0  0  0
 14 15  2  0  0  0
 14101  1  0  0  0
 15102  1  0  0  0
 16 17  2  0  0  0
 16 21  1  0  0  0
 16 31  1  0  0  0
 17 18  1  0  0  0
 17103  1  0  0  0
 18 19  2  0  0  0
 18104  1  0  0  0
 19 20  1  0  0  0
 19 24  1  0  0  0
 20 21  2  0  0  0
 20105  1  0  0  0
 21 23  1  0  0  0
 22 28  1  0  0  0
 22 32  2  0  0  0
 26 27  1  0  0  0
 28106  1  0  0  0
 28107  1  0  0  0
 29108  1  0  0  0
 29109  1  0  0  0
 33 34  1  0  0  0
 33 66  1  0  0  0
 33 70  2  0  0  0
 34 36  1  0  0  0
 34 59  1  0  0  0
 34110  1  0  0  0
 35 44  2  0  0  0
 35 45  1  0  0  0
 35 68  1  0  0  0
 36 56  1  0  0  0
 36111  1  0  0  0
 37 39  1  0  0  0
 37 47  1  0  0  0
 37 66  1  0  0  0
 37112  1  0  0  0
 38 43  2  0  0  0
 38 46  1  0  0  0
 38 47  1  0  0  0
 39 64  1  0  0  0
 39 67  2  0  0  0
 40 52  1  0  0  0
 40 53  2  0  0  0
 40 58  1  0  0  0
 41113  1  0  0  0
 41114  1  0  0  0
 41115  1  0  0  0
 41 48  1  0  0  0
 42 43  1  0  0  0
 42 66  1  0  0  0
 42116  1  0  0  0
 42117  1  0  0  0
 43 44  1  0  0  0
 44118  1  0  0  0
 45 46  2  0  0  0
 45119  1  0  0  0
 46120  1  0  0  0
 47121  1  0  0  0
 47122  1  0  0  0
 48 56  1  0  0  0
 48 65  1  0  0  0
 48123  1  0  0  0
 49 50  1  0  0  0
 49 53  1  0  0  0
 49 64  1  0  0  0
 49124  1  0  0  0
 50 51  1  0  0  0
 50125  1  0  0  0
 50126  1  0  0  0
 51 52  1  0  0  0
 51127  1  0  0  0
 51128  1  0  0  0
 52129  1  0  0  0
 52130  1  0  0  0
 53 54  1  0  0  0
 54 55  2  0  0  0
 54131  1  0  0  0
 55 57  1  0  0  0
 55132  1  0  0  0
 56 69  2  0  0  0
 57 58  2  0  0  0
 57133  1  0  0  0
 58134  1  0  0  0
 59 60  1  0  0  0
 59 61  1  0  0  0
 59 62  1  0  0  0
 60135  1  0  0  0
 60136  1  0  0  0
 60137  1  0  0  0
 61138  1  0  0  0
 61139  1  0  0  0
 61140  1  0  0  0
 62141  1  0  0  0
 62142  1  0  0  0
 62143  1  0  0  0
 63 65  1  0  0  0
 63144  1  0  0  0
 63145  1  0  0  0
 63146  1  0  0  0
 64147  1  0  0  0
 65148  1  0  0  0
 68 82  1  0  0  0
 71 72  2  0  0  0
 71 87  1  0  0  0
 71149  1  0  0  0
 72 73  1  0  0  0
 72 84  1  0  0  0
 73 74  2  0  0  0
 73 83  1  0  0  0
 74 85  1  0  0  0
 74 87  1  0  0  0
 75150  1  0  0  0
 75151  1  0  0  0
 75152  1  0  0  0
 75 83  1  0  0  0
 76 83  1  0  0  0
 76153  1  0  0  0
 76154  1  0  0  0
 76155  1  0  0  0
 77156  1  0  0  0
 77157  1  0  0  0
 77158  1  0  0  0
 77 85  1  0  0  0
 78159  1  0  0  0
 78160  1  0  0  0
 78161  1  0  0  0
 78 86  1  0  0  0
 79 86  1  0  0  0
 79162  1  0  0  0
 79163  1  0  0  0
 79164  1  0  0  0
 80 81  1  0  0  0
 80 87  1  0  0  0
 80165  1  0  0  0
 80166  1  0  0  0
 81 88  1  0  0  0
 81167  1  0  0  0
 81168  1  0  0  0
 82 84  1  0  0  0
 82169  1  0  0  0
 82170  1  0  0  0
 83171  1  0  0  0
 84 89  1  0  0  0
 84172  1  0  0  0
 85 86  1  0  0  0
 85173  1  0  0  0
 86174  1  0  0  0
 88175  1  0  0  0
 89176  1  0  0  0
 89177  1  0  0  0
 89178  1  0  0  0
M  CHG  1  89   1
M  ISO  4   1 100  68 101  82 101  88 100
M  END
> <chiral flag>
0

> <version>
0

> <s_m_source_file>
/data/baiqing/PycharmProjects/Reinvent-master-3.2/result/LINK_invent/BTK/process_docking_weight1_custom_sum_contain_oxygen_bond_distance_aromatic_linkinvent_7_9_3/rearranged_h_0099.sdf

> <i_m_source_file_index>
77

> <r_mmod_Potential_Energy-OPLS-2005>
74.2089920043945

> <r_mmod_Stretch_Energy-OPLS-2005>
134.622909545898

> <r_mmod_Bend_Energy-OPLS-2005>
202.303085327148

> <r_mmod_Torsional_Energy-OPLS-2005>
390.984649658203

> <r_mmod_Improper_Torsional_Energy-OPLS-2005>
12.1731252670288

> <r_mmod_Van_der_Waal_Energy-OPLS-2005>
120.757850646973

> <r_mmod_Electrostatic_Energy-OPLS-2005>
-437.375

> <r_mmod_Solvation_Energy-OPLS-2005>
-440.317321777344

> <b_mmod_Minimization_Converged-OPLS-2005>
0

> <r_mmod_RMS_Derivative-OPLS-2005>
6.24125814437866

$$$$
77
                    3D
 Structure written by MMmdl.
170177  0  0  1  0            999 V2000
  -30.6843  -14.4766   20.4839 C   0  0  0  0  0  0
  -30.4222  -12.2791   19.4238 C   0  0  0  0  0  0
  -29.4934  -12.4521   18.2031 C   0  0  0  0  0  0
  -28.0114  -12.3368   18.6208 C   0  0  0  0  0  0
  -27.6543  -13.1930   19.8673 C   0  0  2  0  0  0
  -28.7056  -13.0090   20.9876 C   0  0  0  0  0  0
  -25.2586  -13.8118   20.5710 C   0  0  0  0  0  0
  -24.1824  -13.0420   20.9212 C   0  0  0  0  0  0
  -24.6358  -11.6881   20.8771 C   0  0  0  0  0  0
  -23.9014  -10.4281   21.0433 C   0  0  0  0  0  0
  -24.3576   -9.4199   21.9206 C   0  0  0  0  0  0
  -23.6269   -8.2225   22.0759 C   0  0  0  0  0  0
  -22.4254   -8.0265   21.3548 C   0  0  0  0  0  0
  -21.9883   -9.0239   20.4650 C   0  0  0  0  0  0
  -22.7195  -10.2128   20.3068 C   0  0  0  0  0  0
  -21.6847   -6.0721   22.5279 C   0  0  0  0  0  0
  -21.4014   -6.5634   23.8214 C   0  0  0  0  0  0
  -21.3654   -5.6789   24.9182 C   0  0  0  0  0  0
  -21.6040   -4.3050   24.7231 C   0  0  0  0  0  0
  -21.8819   -3.8136   23.4355 C   0  0  0  0  0  0
  -21.9189   -4.6949   22.3413 C   0  0  0  0  0  0
  -22.7849  -13.5240   21.1846 C   0  0  0  0  0  0
  -22.1667   -4.2139   21.0992 F   0  0  0  0  0  0
  -21.5621   -3.4534   25.7745 F   0  0  0  0  0  0
  -30.0311  -13.2868   20.4152 N   0  0  0  0  0  0
  -26.2991  -12.9245   20.3374 N   0  0  0  0  0  0
  -25.9279  -11.6424   20.5801 N   0  0  0  0  0  0
  -22.0469  -12.8259   22.0395 N   0  0  0  0  0  0
  -25.4342  -15.1834   20.4136 N   0  0  0  0  0  0
  -31.8678  -14.6222   20.1674 O   0  0  0  0  0  0
  -21.6629   -6.8858   21.4235 O   0  0  0  0  0  0
  -22.3558  -14.5546   20.6669 O   0  0  0  0  0  0
  -24.6133  -31.8684   23.2107 C   0  0  0  0  0  0
  -25.9036  -32.4818   23.8396 C   0  0  1  0  0  0
  -27.2413  -27.4463   20.0799 C   0  0  0  0  0  0
  -25.5901  -33.8618   24.2330 N   0  0  0  0  0  0
  -23.3991  -30.4924   21.5517 C   0  0  2  0  0  0
  -24.8423  -28.9539   20.1184 C   0  0  0  0  0  0
  -22.7396  -29.4665   22.5002 C   0  0  0  0  0  0
  -18.0270  -28.1378   22.8496 C   0  0  0  0  0  0
  -24.1485  -36.7318   23.2637 C   0  0  0  0  0  0
  -25.9264  -30.8348   21.3618 C   0  0  0  0  0  0
  -26.0006  -29.4688   20.7104 C   0  0  0  0  0  0
  -27.1965  -28.7204   20.6902 C   0  0  0  0  0  0
  -26.0551  -26.9305   19.5065 C   0  0  0  0  0  0
  -24.8631  -27.6818   19.5206 C   0  0  0  0  0  0
  -23.6055  -29.8223   20.1668 C   0  0  0  0  0  0
  -25.4105  -36.3112   24.0339 C   0  0  1  0  0  0
  -20.5854  -28.3659   23.1326 C   0  0  2  0  0  0
  -20.6756  -26.9397   22.5420 C   0  0  0  0  0  0
  -19.5739  -26.6387   21.5212 C   0  0  0  0  0  0
  -18.1915  -26.7925   22.1621 C   0  0  0  0  0  0
  -19.1517  -28.8836   23.2907 C   0  0  0  0  0  0
  -18.9446  -30.1443   23.8913 C   0  0  0  0  0  0
  -17.6450  -30.6585   24.0567 C   0  0  0  0  0  0
  -25.9040  -34.9478   23.5133 C   0  0  0  0  0  0
  -16.5339  -29.9090   23.6325 C   0  0  0  0  0  0
  -16.7262  -28.6507   23.0345 C   0  0  0  0  0  0
  -26.4466  -31.6601   25.0729 C   0  0  0  0  0  0
  -25.3738  -31.3709   26.1488 C   0  0  0  0  0  0
  -27.0292  -30.3046   24.6097 C   0  0  0  0  0  0
  -27.6051  -32.4319   25.7484 C   0  0  0  0  0  0
  -27.5583  -37.1809   24.8459 C   0  0  0  0  0  0
  -21.4125  -29.3037   22.3744 N   0  0  0  0  0  0
  -26.4288  -37.3799   23.9413 N   0  0  0  0  0  0
  -24.6645  -31.0798   22.1000 N   0  0  0  0  0  0
  -23.4180  -28.8202   23.3031 O   0  0  0  0  0  0
  -28.4571  -26.7933   20.0811 O   0  0  0  0  0  0
  -26.5593  -34.8926   22.4691 O   0  0  0  0  0  0
  -23.5331  -32.1432   23.7515 O   0  0  0  0  0  0
  -30.5945  -20.3216   19.2959 C   0  0  0  0  0  0
  -32.3293  -21.7826   20.2954 C   0  0  0  0  0  0
  -29.5655  -16.1931   19.1941 C   0  0  0  0  0  0
  -31.6402  -20.6716   23.0272 C   0  0  0  0  0  0
  -29.5751  -23.1874   19.9030 C   0  0  0  0  0  0
  -28.7782  -24.3976   20.4404 C   0  0  0  0  0  0
  -29.8960  -22.1155   20.9784 C   0  0  0  0  0  0
  -30.7896  -17.6109   21.5804 C   0  0  0  0  0  0
  -29.7385  -16.4702   21.6178 C   0  0  0  0  0  0
  -30.2125  -19.0016   21.9275 C   0  0  0  0  0  0
  -28.6579  -25.5439   19.4151 C   0  0  0  0  0  0
  -30.9918  -21.0607   20.6023 C   0  0  0  0  0  0
  -29.8578  -15.5474   20.4817 N   0  0  0  0  0  0
  -31.2301  -20.0770   21.7277 N   0  3  1  0  0  0
  -31.4681  -12.3705   19.1237 H   0  0  0  0  0  0
  -30.3172  -11.2798   19.8499 H   0  0  0  0  0  0
  -29.7239  -11.6959   17.4512 H   0  0  0  0  0  0
  -29.6747  -13.4125   17.7207 H   0  0  0  0  0  0
  -27.8165  -11.2850   18.8335 H   0  0  0  0  0  0
  -27.3593  -12.6006   17.7860 H   0  0  0  0  0  0
  -27.6707  -14.2312   19.5480 H   0  0  0  0  0  0
  -28.6805  -11.9888   21.3748 H   0  0  0  0  0  0
  -28.4896  -13.6602   21.8360 H   0  0  0  0  0  0
  -25.2731   -9.5687   22.4773 H   0  0  0  0  0  0
  -23.9998   -7.4612   22.7467 H   0  0  0  0  0  0
  -21.0821   -8.8742   19.8957 H   0  0  0  0  0  0
  -22.3656  -10.9660   19.6168 H   0  0  0  0  0  0
  -21.2020   -7.6146   23.9711 H   0  0  0  0  0  0
  -21.1473   -6.0527   25.9079 H   0  0  0  0  0  0
  -22.0601   -2.7597   23.2857 H   0  0  0  0  0  0
  -22.4055  -11.9948   22.4857 H   0  0  0  0  0  0
  -21.1072  -13.1297   22.2516 H   0  0  0  0  0  0
  -24.6719  -15.8430   20.5279 H   0  0  0  0  0  0
  -26.3008  -15.6210   20.1254 H   0  0  0  0  0  0
  -26.7104  -32.5529   23.1157 H   0  0  0  0  0  0
  -25.0058  -33.9781   25.0478 H   0  0  0  0  0  0
  -22.6875  -31.3086   21.4137 H   0  0  0  0  0  0
  -23.3746  -35.9654   23.3298 H   0  0  0  0  0  0
  -24.3582  -36.8933   22.2053 H   0  0  0  0  0  0
  -23.7233  -37.6522   23.6646 H   0  0  0  0  0  0
  -26.0397  -31.6004   20.5926 H   0  0  0  0  0  0
  -26.8148  -30.8864   21.9797 H   0  0  0  0  0  0
  -28.0944  -29.1233   21.1377 H   0  0  0  0  0  0
  -26.0158  -25.9541   19.0495 H   0  0  0  0  0  0
  -23.9677  -27.2731   19.0729 H   0  0  0  0  0  0
  -23.7151  -30.5958   19.4061 H   0  0  0  0  0  0
  -22.7284  -29.2435   19.8712 H   0  0  0  0  0  0
  -25.1275  -36.1981   25.0828 H   0  0  0  0  0  0
  -20.9953  -28.3222   24.1443 H   0  0  0  0  0  0
  -20.5660  -26.2263   23.3602 H   0  0  0  0  0  0
  -21.6627  -26.7442   22.1213 H   0  0  0  0  0  0
  -19.6893  -25.6303   21.1224 H   0  0  0  0  0  0
  -19.6676  -27.3209   20.6750 H   0  0  0  0  0  0
  -17.4186  -26.6687   21.4017 H   0  0  0  0  0  0
  -18.0308  -26.0061   22.9013 H   0  0  0  0  0  0
  -19.7923  -30.7250   24.2288 H   0  0  0  0  0  0
  -17.5008  -31.6265   24.5170 H   0  0  0  0  0  0
  -15.5337  -30.2996   23.7640 H   0  0  0  0  0  0
  -15.8664  -28.0833   22.7044 H   0  0  0  0  0  0
  -24.5898  -30.7068   25.7832 H   0  0  0  0  0  0
  -24.8942  -32.2866   26.4960 H   0  0  0  0  0  0
  -25.8102  -30.8862   27.0231 H   0  0  0  0  0  0
  -26.2831  -29.6818   24.1150 H   0  0  0  0  0  0
  -27.4061  -29.7277   25.4551 H   0  0  0  0  0  0
  -27.8667  -30.4369   23.9244 H   0  0  0  0  0  0
  -27.2676  -33.3610   26.2093 H   0  0  0  0  0  0
  -28.3843  -32.6895   25.0297 H   0  0  0  0  0  0
  -28.0739  -31.8421   26.5373 H   0  0  0  0  0  0
  -28.2594  -38.0116   24.7527 H   0  0  0  0  0  0
  -28.1082  -36.2645   24.6250 H   0  0  0  0  0  0
  -27.2307  -37.1435   25.8864 H   0  0  0  0  0  0
  -20.9279  -29.8767   21.6976 H   0  0  0  0  0  0
  -26.0178  -38.2877   24.1418 H   0  0  0  0  0  0
  -30.5780  -21.0008   18.4429 H   0  0  0  0  0  0
  -29.6017  -19.8763   19.3364 H   0  0  0  0  0  0
  -31.3045  -19.5335   19.0448 H   0  0  0  0  0  0
  -32.3077  -22.2984   19.3355 H   0  0  0  0  0  0
  -33.1651  -21.0844   20.2428 H   0  0  0  0  0  0
  -32.5739  -22.5375   21.0415 H   0  0  0  0  0  0
  -28.8410  -17.0010   19.2971 H   0  0  0  0  0  0
  -29.1612  -15.4878   18.4711 H   0  0  0  0  0  0
  -30.4705  -16.6115   18.7509 H   0  0  0  0  0  0
  -31.9471  -19.8846   23.7170 H   0  0  0  0  0  0
  -30.8218  -21.2119   23.5011 H   0  0  0  0  0  0
  -32.4896  -21.3454   22.9333 H   0  0  0  0  0  0
  -30.5050  -23.5733   19.4882 H   0  0  0  0  0  0
  -29.0395  -22.7363   19.0671 H   0  0  0  0  0  0
  -29.2916  -24.7843   21.3209 H   0  0  0  0  0  0
  -27.7874  -24.0898   20.7757 H   0  0  0  0  0  0
  -28.9678  -21.6094   21.2466 H   0  0  0  0  0  0
  -30.2093  -22.6464   21.8764 H   0  0  0  0  0  0
  -31.2614  -17.6665   20.6001 H   0  0  0  0  0  0
  -31.5976  -17.3653   22.2712 H   0  0  0  0  0  0
  -28.7257  -16.8772   21.6141 H   0  0  0  0  0  0
  -29.8182  -15.9174   22.5564 H   0  0  0  0  0  0
  -29.8708  -18.9854   22.9630 H   0  0  0  0  0  0
  -29.3096  -19.1947   21.3516 H   0  0  0  0  0  0
  -27.9420  -25.3115   18.6291 H   0  0  0  0  0  0
  -29.6109  -25.6517   18.8955 H   0  0  0  0  0  0
  -32.0536  -19.5724   21.4334 H   0  0  0  0  0  0
  1 25  1  0  0  0
  1 30  2  0  0  0
  1 83  1  0  0  0
  2  3  1  0  0  0
  2 25  1  0  0  0
  2 85  1  0  0  0
  2 86  1  0  0  0
  3  4  1  0  0  0
  3 87  1  0  0  0
  3 88  1  0  0  0
  4  5  1  0  0  0
  4 89  1  0  0  0
  4 90  1  0  0  0
  5  6  1  0  0  0
  5 26  1  0  0  0
  5 91  1  0  0  0
  6 25  1  0  0  0
  6 92  1  0  0  0
  6 93  1  0  0  0
  7  8  2  0  0  0
  7 26  1  0  0  0
  7 29  1  0  0  0
  8  9  1  0  0  0
  8 22  1  0  0  0
  9 10  1  0  0  0
  9 27  2  0  0  0
 10 11  2  0  0  0
 10 15  1  0  0  0
 11 12  1  0  0  0
 11 94  1  0  0  0
 12 13  2  0  0  0
 12 95  1  0  0  0
 13 14  1  0  0  0
 13 31  1  0  0  0
 14 15  2  0  0  0
 14 96  1  0  0  0
 15 97  1  0  0  0
 16 17  2  0  0  0
 16 21  1  0  0  0
 16 31  1  0  0  0
 17 18  1  0  0  0
 17 98  1  0  0  0
 18 19  2  0  0  0
 18 99  1  0  0  0
 19 20  1  0  0  0
 19 24  1  0  0  0
 20 21  2  0  0  0
 20100  1  0  0  0
 21 23  1  0  0  0
 22 28  1  0  0  0
 22 32  2  0  0  0
 26 27  1  0  0  0
 28101  1  0  0  0
 28102  1  0  0  0
 29103  1  0  0  0
 29104  1  0  0  0
 33 34  1  0  0  0
 33 66  1  0  0  0
 33 70  2  0  0  0
 34 36  1  0  0  0
 34 59  1  0  0  0
 34105  1  0  0  0
 35 44  2  0  0  0
 35 45  1  0  0  0
 35 68  1  0  0  0
 36 56  1  0  0  0
 36106  1  0  0  0
 37 39  1  0  0  0
 37 47  1  0  0  0
 37 66  1  0  0  0
 37107  1  0  0  0
 38 43  2  0  0  0
 38 46  1  0  0  0
 38 47  1  0  0  0
 39 64  1  0  0  0
 39 67  2  0  0  0
 40 52  1  0  0  0
 40 53  2  0  0  0
 40 58  1  0  0  0
 41108  1  0  0  0
 41109  1  0  0  0
 41110  1  0  0  0
 41 48  1  0  0  0
 42 43  1  0  0  0
 42 66  1  0  0  0
 42111  1  0  0  0
 42112  1  0  0  0
 43 44  1  0  0  0
 44113  1  0  0  0
 45 46  2  0  0  0
 45114  1  0  0  0
 46115  1  0  0  0
 47116  1  0  0  0
 47117  1  0  0  0
 48 56  1  0  0  0
 48 65  1  0  0  0
 48118  1  0  0  0
 49 50  1  0  0  0
 49 53  1  0  0  0
 49 64  1  0  0  0
 49119  1  0  0  0
 50 51  1  0  0  0
 50120  1  0  0  0
 50121  1  0  0  0
 51 52  1  0  0  0
 51122  1  0  0  0
 51123  1  0  0  0
 52124  1  0  0  0
 52125  1  0  0  0
 53 54  1  0  0  0
 54 55  2  0  0  0
 54126  1  0  0  0
 55 57  1  0  0  0
 55127  1  0  0  0
 56 69  2  0  0  0
 57 58  2  0  0  0
 57128  1  0  0  0
 58129  1  0  0  0
 59 60  1  0  0  0
 59 61  1  0  0  0
 59 62  1  0  0  0
 60130  1  0  0  0
 60131  1  0  0  0
 60132  1  0  0  0
 61133  1  0  0  0
 61134  1  0  0  0
 61135  1  0  0  0
 62136  1  0  0  0
 62137  1  0  0  0
 62138  1  0  0  0
 63 65  1  0  0  0
 63139  1  0  0  0
 63140  1  0  0  0
 63141  1  0  0  0
 64142  1  0  0  0
 65143  1  0  0  0
 68 81  1  0  0  0
 71144  1  0  0  0
 71145  1  0  0  0
 71146  1  0  0  0
 71 82  1  0  0  0
 72 82  1  0  0  0
 72147  1  0  0  0
 72148  1  0  0  0
 72149  1  0  0  0
 73 83  1  0  0  0
 73150  1  0  0  0
 73151  1  0  0  0
 73152  1  0  0  0
 74153  1  0  0  0
 74154  1  0  0  0
 74155  1  0  0  0
 74 84  1  0  0  0
 75 76  1  0  0  0
 75 77  1  0  0  0
 75156  1  0  0  0
 75157  1  0  0  0
 76 81  1  0  0  0
 76158  1  0  0  0
 76159  1  0  0  0
 77 82  1  0  0  0
 77160  1  0  0  0
 77161  1  0  0  0
 78 79  1  0  0  0
 78 80  1  0  0  0
 78162  1  0  0  0
 78163  1  0  0  0
 79 83  1  0  0  0
 79164  1  0  0  0
 79165  1  0  0  0
 80 84  1  0  0  0
 80166  1  0  0  0
 80167  1  0  0  0
 81168  1  0  0  0
 81169  1  0  0  0
 82 84  1  0  0  0
 84170  1  0  0  0
M  CHG  1  84   1
M  ISO  4   1 100  68 101  81 101  83 100
M  END
> <chiral flag>
0

> <version>
0

> <s_m_source_file>
/data/baiqing/PycharmProjects/Reinvent-master-3.2/result/LINK_invent/BTK/process_docking_weight1_custom_sum_contain_oxygen_bond_distance_aromatic_linkinvent_7_9_3/rearranged_h_0099.sdf

> <i_m_source_file_index>
78

> <r_mmod_Potential_Energy-OPLS-2005>
110.965515136719

> <r_mmod_Stretch_Energy-OPLS-2005>
40.1110687255859

> <r_mmod_Bend_Energy-OPLS-2005>
119.628173828125

> <r_mmod_Torsional_Energy-OPLS-2005>
334.652160644531

> <r_mmod_Improper_Torsional_Energy-OPLS-2005>
14.6707735061646

> <r_mmod_Van_der_Waal_Energy-OPLS-2005>
143.996368408203

> <r_mmod_Electrostatic_Energy-OPLS-2005>
-148.665954589844

> <r_mmod_Solvation_Energy-OPLS-2005>
-411.47021484375

> <b_mmod_Minimization_Converged-OPLS-2005>
0

> <r_mmod_RMS_Derivative-OPLS-2005>
1.79629635810852

$$$$
78
                    3D
 Structure written by MMmdl.
169177  0  0  1  0            999 V2000
  -30.6329  -14.7117   20.4686 C   0  0  0  0  0  0
  -30.4268  -12.4385   19.4738 C   0  0  0  0  0  0
  -29.5043  -12.5129   18.2378 C   0  0  0  0  0  0
  -28.0293  -12.3443   18.6498 C   0  0  0  0  0  0
  -27.6419  -13.2336   19.8617 C   0  0  2  0  0  0
  -28.6870  -13.1584   20.9967 C   0  0  0  0  0  0
  -25.2487  -13.8203   20.5713 C   0  0  0  0  0  0
  -24.1772  -13.0429   20.9207 C   0  0  0  0  0  0
  -24.6377  -11.6923   20.8744 C   0  0  0  0  0  0
  -23.9049  -10.4302   21.0403 C   0  0  0  0  0  0
  -24.3604   -9.4219   21.9182 C   0  0  0  0  0  0
  -23.6292   -8.2238   22.0739 C   0  0  0  0  0  0
  -22.4278   -8.0275   21.3525 C   0  0  0  0  0  0
  -21.9908   -9.0245   20.4635 C   0  0  0  0  0  0
  -22.7217  -10.2137   20.3061 C   0  0  0  0  0  0
  -21.6854   -6.0734   22.5268 C   0  0  0  0  0  0
  -21.4023   -6.5639   23.8203 C   0  0  0  0  0  0
  -21.3663   -5.6787   24.9165 C   0  0  0  0  0  0
  -21.6046   -4.3047   24.7215 C   0  0  0  0  0  0
  -21.8821   -3.8142   23.4334 C   0  0  0  0  0  0
  -21.9199   -4.6962   22.3392 C   0  0  0  0  0  0
  -22.7802  -13.5212   21.1876 C   0  0  0  0  0  0
  -22.1661   -4.2153   21.0958 F   0  0  0  0  0  0
  -21.5642   -3.4530   25.7727 F   0  0  0  0  0  0
  -29.9906  -13.4964   20.4141 N   0  0  0  0  0  0
  -26.2931  -12.9416   20.3370 N   0  0  0  0  0  0
  -25.9319  -11.6549   20.5790 N   0  0  0  0  0  0
  -22.0471  -12.8176   22.0436 N   0  0  0  0  0  0
  -25.4170  -15.1926   20.4114 N   0  0  0  0  0  0
  -31.8169  -14.7924   20.1347 O   0  0  0  0  0  0
  -21.6642   -6.8873   21.4227 O   0  0  0  0  0  0
  -22.3468  -14.5522   20.6753 O   0  0  0  0  0  0
  -24.6298  -31.8580   23.2037 C   0  0  0  0  0  0
  -25.9121  -32.4771   23.8385 C   0  0  1  0  0  0
  -27.2078  -27.2595   20.1330 C   0  0  0  0  0  0
  -25.5916  -33.8579   24.2294 N   0  0  0  0  0  0
  -23.4282  -30.4810   21.5469 C   0  0  2  0  0  0
  -24.8746  -28.9421   20.1066 C   0  0  0  0  0  0
  -22.7493  -29.4602   22.4935 C   0  0  0  0  0  0
  -18.0266  -28.1396   22.8486 C   0  0  0  0  0  0
  -24.1487  -36.7289   23.2646 C   0  0  0  0  0  0
  -25.9748  -30.7695   21.3874 C   0  0  0  0  0  0
  -26.0459  -29.3950   20.7272 C   0  0  0  0  0  0
  -27.2134  -28.5647   20.7345 C   0  0  0  0  0  0
  -26.0180  -26.8976   19.4544 C   0  0  0  0  0  0
  -24.8683  -27.7039   19.4547 C   0  0  0  0  0  0
  -23.6448  -29.8263   20.1591 C   0  0  0  0  0  0
  -25.4118  -36.3094   24.0340 C   0  0  1  0  0  0
  -20.5875  -28.3711   23.1281 C   0  0  2  0  0  0
  -20.6779  -26.9435   22.5421 C   0  0  0  0  0  0
  -19.5756  -26.6393   21.5223 C   0  0  0  0  0  0
  -18.1918  -26.7934   22.1622 C   0  0  0  0  0  0
  -19.1521  -28.8868   23.2866 C   0  0  0  0  0  0
  -18.9457  -30.1460   23.8901 C   0  0  0  0  0  0
  -17.6459  -30.6604   24.0559 C   0  0  0  0  0  0
  -25.9059  -34.9452   23.5123 C   0  0  0  0  0  0
  -16.5345  -29.9107   23.6335 C   0  0  0  0  0  0
  -16.7256  -28.6517   23.0373 C   0  0  0  0  0  0
  -26.4484  -31.6590   25.0768 C   0  0  0  0  0  0
  -25.3701  -31.3697   26.1479 C   0  0  0  0  0  0
  -27.0338  -30.3019   24.6246 C   0  0  0  0  0  0
  -27.6084  -32.4314   25.7495 C   0  0  0  0  0  0
  -27.5572  -37.1800   24.8468 C   0  0  0  0  0  0
  -21.4199  -29.3042   22.3667 N   0  0  0  0  0  0
  -26.4295  -37.3786   23.9406 N   0  0  0  0  0  0
  -24.6968  -31.0542   22.1021 N   0  0  0  0  0  0
  -23.4165  -28.8141   23.3051 O   0  0  0  0  0  0
  -28.2848  -26.3412   20.2429 O   0  0  0  0  0  0
  -26.5631  -34.8927   22.4695 O   0  0  0  0  0  0
  -23.5448  -32.1436   23.7311 O   0  0  0  0  0  0
  -29.4115  -19.7153   20.0483 C   0  0  0  0  0  0
  -29.6984  -18.6431   20.8885 C   0  0  0  0  0  0
  -29.4027  -19.1612   22.2146 C   0  0  0  0  0  0
  -28.8130  -20.4241   22.0525 C   0  0  0  0  0  0
  -28.1398  -21.3551   23.0239 C   0  0  0  0  0  0
  -28.4346  -24.8958   18.3316 C   0  0  0  0  0  0
  -31.2924  -18.4725   23.7131 C   0  0  0  0  0  0
  -29.2786  -16.9944   23.6042 C   0  0  0  0  0  0
  -29.1848  -19.1265   24.8183 C   0  0  0  0  0  0
  -30.3895  -17.2809   20.4101 C   0  0  0  0  0  0
  -28.8479  -23.6511   20.5682 C   0  0  0  0  0  0
  -28.4337  -22.1516   20.0823 C   0  0  0  0  0  0
  -28.1076  -24.8996   19.8363 C   0  0  1  0  0  0
  -29.7604  -18.4556   23.5544 C   0  0  0  0  0  0
  -28.9202  -20.8461   20.7270 N   0  0  0  0  0  0
  -29.8954  -15.8642   20.6703 N   0  0  0  0  0  0
  -31.4683  -12.5541   19.1684 H   0  0  0  0  0  0
  -30.3633  -11.4598   19.9513 H   0  0  0  0  0  0
  -29.7787  -11.7464   17.5122 H   0  0  0  0  0  0
  -29.6394  -13.4738   17.7380 H   0  0  0  0  0  0
  -27.8698  -11.2938   18.8965 H   0  0  0  0  0  0
  -27.3767  -12.5600   17.8031 H   0  0  0  0  0  0
  -27.6421  -14.2592   19.4926 H   0  0  0  0  0  0
  -28.7140  -12.1605   21.4378 H   0  0  0  0  0  0
  -28.4315  -13.8454   21.8057 H   0  0  0  0  0  0
  -25.2745   -9.5703   22.4758 H   0  0  0  0  0  0
  -24.0016   -7.4629   22.7446 H   0  0  0  0  0  0
  -21.0855   -8.8749   19.8923 H   0  0  0  0  0  0
  -22.3663  -10.9678   19.6178 H   0  0  0  0  0  0
  -21.2003   -7.6149   23.9704 H   0  0  0  0  0  0
  -21.1495   -6.0520   25.9069 H   0  0  0  0  0  0
  -22.0602   -2.7608   23.2827 H   0  0  0  0  0  0
  -22.4118  -11.9835   22.4798 H   0  0  0  0  0  0
  -21.1097  -13.1181   22.2683 H   0  0  0  0  0  0
  -24.6536  -15.8500   20.5282 H   0  0  0  0  0  0
  -26.2662  -15.6331   20.0789 H   0  0  0  0  0  0
  -26.7176  -32.5402   23.1119 H   0  0  0  0  0  0
  -25.0057  -33.9737   25.0429 H   0  0  0  0  0  0
  -22.7249  -31.3031   21.4041 H   0  0  0  0  0  0
  -23.3775  -35.9583   23.3309 H   0  0  0  0  0  0
  -24.3581  -36.8939   22.2062 H   0  0  0  0  0  0
  -23.7218  -37.6484   23.6674 H   0  0  0  0  0  0
  -26.1147  -31.5274   20.6158 H   0  0  0  0  0  0
  -26.8522  -30.8175   22.0208 H   0  0  0  0  0  0
  -28.1049  -28.9010   21.2459 H   0  0  0  0  0  0
  -25.9197  -25.9695   18.9164 H   0  0  0  0  0  0
  -23.9792  -27.3609   18.9429 H   0  0  0  0  0  0
  -23.7617  -30.6063   19.4057 H   0  0  0  0  0  0
  -22.7644  -29.2562   19.8573 H   0  0  0  0  0  0
  -25.1285  -36.1978   25.0831 H   0  0  0  0  0  0
  -20.9929  -28.3307   24.1415 H   0  0  0  0  0  0
  -20.5740  -26.2307   23.3621 H   0  0  0  0  0  0
  -21.6647  -26.7506   22.1192 H   0  0  0  0  0  0
  -19.6956  -25.6306   21.1262 H   0  0  0  0  0  0
  -19.6720  -27.3198   20.6750 H   0  0  0  0  0  0
  -17.4205  -26.6674   21.4001 H   0  0  0  0  0  0
  -18.0316  -26.0066   22.9013 H   0  0  0  0  0  0
  -19.7930  -30.7248   24.2312 H   0  0  0  0  0  0
  -17.5022  -31.6288   24.5143 H   0  0  0  0  0  0
  -15.5352  -30.3019   23.7676 H   0  0  0  0  0  0
  -15.8638  -28.0831   22.7143 H   0  0  0  0  0  0
  -24.5941  -30.6981   25.7791 H   0  0  0  0  0  0
  -24.8781  -32.2808   26.4877 H   0  0  0  0  0  0
  -25.8016  -30.8912   27.0279 H   0  0  0  0  0  0
  -26.2930  -29.6769   24.1249 H   0  0  0  0  0  0
  -27.4011  -29.7285   25.4767 H   0  0  0  0  0  0
  -27.8799  -30.4329   23.9508 H   0  0  0  0  0  0
  -27.2801  -33.3695   26.1984 H   0  0  0  0  0  0
  -28.3902  -32.6752   25.0286 H   0  0  0  0  0  0
  -28.0720  -31.8479   26.5459 H   0  0  0  0  0  0
  -28.2601  -38.0087   24.7535 H   0  0  0  0  0  0
  -28.1064  -36.2629   24.6283 H   0  0  0  0  0  0
  -27.2273  -37.1444   25.8866 H   0  0  0  0  0  0
  -20.9406  -29.8724   21.6824 H   0  0  0  0  0  0
  -26.0192  -38.2863   24.1422 H   0  0  0  0  0  0
  -29.5388  -19.7778   18.9753 H   0  0  0  0  0  0
  -27.5164  -20.8164   23.7326 H   0  0  0  0  0  0
  -27.4413  -22.0294   22.5315 H   0  0  0  0  0  0
  -28.8646  -21.9549   23.5734 H   0  0  0  0  0  0
  -28.2610  -23.9240   17.8746 H   0  0  0  0  0  0
  -29.4758  -25.1704   18.1593 H   0  0  0  0  0  0
  -27.8261  -25.6100   17.7807 H   0  0  0  0  0  0
  -31.7919  -17.9466   22.9023 H   0  0  0  0  0  0
  -31.6043  -17.9961   24.6436 H   0  0  0  0  0  0
  -31.6795  -19.4919   23.7210 H   0  0  0  0  0  0
  -29.9265  -16.3360   23.0403 H   0  0  0  0  0  0
  -28.2542  -16.8840   23.2481 H   0  0  0  0  0  0
  -29.3153  -16.5975   24.6188 H   0  0  0  0  0  0
  -29.5201  -20.1564   24.9323 H   0  0  0  0  0  0
  -29.5142  -18.6075   25.7200 H   0  0  0  0  0  0
  -28.0964  -19.0921   24.8351 H   0  0  0  0  0  0
  -31.4229  -17.3357   20.7522 H   0  0  0  0  0  0
  -30.4603  -17.3532   19.3241 H   0  0  0  0  0  0
  -29.9240  -23.7709   20.4564 H   0  0  0  0  0  0
  -28.6643  -23.7424   21.6371 H   0  0  0  0  0  0
  -28.6888  -22.0683   19.0259 H   0  0  0  0  0  0
  -27.3444  -22.1021   20.1006 H   0  0  0  0  0  0
  -27.0607  -24.6336   19.9800 H   0  0  0  0  0  0
  -28.9186  -15.7579   20.8948 H   0  0  0  0  0  0
  1 25  1  0  0  0
  1 30  2  0  0  0
  1 86  1  0  0  0
  2  3  1  0  0  0
  2 25  1  0  0  0
  2 87  1  0  0  0
  2 88  1  0  0  0
  3  4  1  0  0  0
  3 89  1  0  0  0
  3 90  1  0  0  0
  4  5  1  0  0  0
  4 91  1  0  0  0
  4 92  1  0  0  0
  5  6  1  0  0  0
  5 26  1  0  0  0
  5 93  1  0  0  0
  6 25  1  0  0  0
  6 94  1  0  0  0
  6 95  1  0  0  0
  7  8  2  0  0  0
  7 26  1  0  0  0
  7 29  1  0  0  0
  8  9  1  0  0  0
  8 22  1  0  0  0
  9 10  1  0  0  0
  9 27  2  0  0  0
 10 11  2  0  0  0
 10 15  1  0  0  0
 11 12  1  0  0  0
 11 96  1  0  0  0
 12 13  2  0  0  0
 12 97  1  0  0  0
 13 14  1  0  0  0
 13 31  1  0  0  0
 14 15  2  0  0  0
 14 98  1  0  0  0
 15 99  1  0  0  0
 16 17  2  0  0  0
 16 21  1  0  0  0
 16 31  1  0  0  0
 17 18  1  0  0  0
 17100  1  0  0  0
 18 19  2  0  0  0
 18101  1  0  0  0
 19 20  1  0  0  0
 19 24  1  0  0  0
 20 21  2  0  0  0
 20102  1  0  0  0
 21 23  1  0  0  0
 22 28  1  0  0  0
 22 32  2  0  0  0
 26 27  1  0  0  0
 28103  1  0  0  0
 28104  1  0  0  0
 29105  1  0  0  0
 29106  1  0  0  0
 33 34  1  0  0  0
 33 66  1  0  0  0
 33 70  2  0  0  0
 34 36  1  0  0  0
 34 59  1  0  0  0
 34107  1  0  0  0
 35 44  2  0  0  0
 35 45  1  0  0  0
 35 68  1  0  0  0
 36 56  1  0  0  0
 36108  1  0  0  0
 37 39  1  0  0  0
 37 47  1  0  0  0
 37 66  1  0  0  0
 37109  1  0  0  0
 38 43  2  0  0  0
 38 46  1  0  0  0
 38 47  1  0  0  0
 39 64  1  0  0  0
 39 67  2  0  0  0
 40 52  1  0  0  0
 40 53  2  0  0  0
 40 58  1  0  0  0
 41110  1  0  0  0
 41111  1  0  0  0
 41112  1  0  0  0
 41 48  1  0  0  0
 42 43  1  0  0  0
 42 66  1  0  0  0
 42113  1  0  0  0
 42114  1  0  0  0
 43 44  1  0  0  0
 44115  1  0  0  0
 45 46  2  0  0  0
 45116  1  0  0  0
 46117  1  0  0  0
 47118  1  0  0  0
 47119  1  0  0  0
 48 56  1  0  0  0
 48 65  1  0  0  0
 48120  1  0  0  0
 49 50  1  0  0  0
 49 53  1  0  0  0
 49 64  1  0  0  0
 49121  1  0  0  0
 50 51  1  0  0  0
 50122  1  0  0  0
 50123  1  0  0  0
 51 52  1  0  0  0
 51124  1  0  0  0
 51125  1  0  0  0
 52126  1  0  0  0
 52127  1  0  0  0
 53 54  1  0  0  0
 54 55  2  0  0  0
 54128  1  0  0  0
 55 57  1  0  0  0
 55129  1  0  0  0
 56 69  2  0  0  0
 57 58  2  0  0  0
 57130  1  0  0  0
 58131  1  0  0  0
 59 60  1  0  0  0
 59 61  1  0  0  0
 59 62  1  0  0  0
 60132  1  0  0  0
 60133  1  0  0  0
 60134  1  0  0  0
 61135  1  0  0  0
 61136  1  0  0  0
 61137  1  0  0  0
 62138  1  0  0  0
 62139  1  0  0  0
 62140  1  0  0  0
 63 65  1  0  0  0
 63141  1  0  0  0
 63142  1  0  0  0
 63143  1  0  0  0
 64144  1  0  0  0
 65145  1  0  0  0
 68 83  1  0  0  0
 71 72  2  0  0  0
 71 85  1  0  0  0
 71146  1  0  0  0
 72 73  1  0  0  0
 72 80  1  0  0  0
 73 74  2  0  0  0
 73 84  1  0  0  0
 74 75  1  0  0  0
 74 85  1  0  0  0
 75147  1  0  0  0
 75148  1  0  0  0
 75149  1  0  0  0
 76150  1  0  0  0
 76151  1  0  0  0
 76152  1  0  0  0
 76 83  1  0  0  0
 77153  1  0  0  0
 77154  1  0  0  0
 77155  1  0  0  0
 77 84  1  0  0  0
 78 84  1  0  0  0
 78156  1  0  0  0
 78157  1  0  0  0
 78158  1  0  0  0
 79 84  1  0  0  0
 79159  1  0  0  0
 79160  1  0  0  0
 79161  1  0  0  0
 80 86  1  0  0  0
 80162  1  0  0  0
 80163  1  0  0  0
 81 82  1  0  0  0
 81 83  1  0  0  0
 81164  1  0  0  0
 81165  1  0  0  0
 82 85  1  0  0  0
 82166  1  0  0  0
 82167  1  0  0  0
 83168  1  0  0  0
 86169  1  0  0  0
M  ISO  4   1 100  68 101  83 101  86 100
M  END
> <chiral flag>
0

> <version>
0

> <s_m_source_file>
/data/baiqing/PycharmProjects/Reinvent-master-3.2/result/LINK_invent/BTK/process_docking_weight1_custom_sum_contain_oxygen_bond_distance_aromatic_linkinvent_7_9_3/rearranged_h_0099.sdf

> <i_m_source_file_index>
79

> <r_mmod_Potential_Energy-OPLS-2005>
96.2772521972656

> <r_mmod_Stretch_Energy-OPLS-2005>
125.685661315918

> <r_mmod_Bend_Energy-OPLS-2005>
199.177795410156

> <r_mmod_Torsional_Energy-OPLS-2005>
226.262557983398

> <r_mmod_Improper_Torsional_Energy-OPLS-2005>
7.42062282562256

> <r_mmod_Van_der_Waal_Energy-OPLS-2005>
138.645843505859

> <r_mmod_Electrostatic_Energy-OPLS-2005>
-483.399719238281

> <r_mmod_Solvation_Energy-OPLS-2005>
-200.458618164062

> <b_mmod_Minimization_Converged-OPLS-2005>
0

> <r_mmod_RMS_Derivative-OPLS-2005>
2.72335529327393

$$$$
79
                    3D
 Structure written by MMmdl.
170178  0  0  1  0            999 V2000
  -30.5465  -15.0239   20.4108 C   0  0  0  0  0  0
  -30.4524  -12.6401   19.5023 C   0  0  0  0  0  0
  -29.5332  -12.5543   18.2617 C   0  0  0  0  0  0
  -28.0700  -12.3289   18.6806 C   0  0  0  0  0  0
  -27.6342  -13.2649   19.8360 C   0  0  2  0  0  0
  -28.6855  -13.3285   20.9718 C   0  0  0  0  0  0
  -25.2509  -13.8313   20.5757 C   0  0  0  0  0  0
  -24.1800  -13.0462   20.9283 C   0  0  0  0  0  0
  -24.6452  -11.6988   20.8772 C   0  0  0  0  0  0
  -23.9129  -10.4332   21.0405 C   0  0  0  0  0  0
  -24.3643   -9.4247   21.9186 C   0  0  0  0  0  0
  -23.6319   -8.2259   22.0755 C   0  0  0  0  0  0
  -22.4298   -8.0316   21.3551 C   0  0  0  0  0  0
  -21.9950   -9.0292   20.4639 C   0  0  0  0  0  0
  -22.7298  -10.2173   20.3065 C   0  0  0  0  0  0
  -21.6852   -6.0765   22.5290 C   0  0  0  0  0  0
  -21.4017   -6.5655   23.8236 C   0  0  0  0  0  0
  -21.3660   -5.6793   24.9194 C   0  0  0  0  0  0
  -21.6035   -4.3056   24.7232 C   0  0  0  0  0  0
  -21.8813   -3.8156   23.4346 C   0  0  0  0  0  0
  -21.9191   -4.6986   22.3400 C   0  0  0  0  0  0
  -22.7818  -13.5245   21.1871 C   0  0  0  0  0  0
  -22.1654   -4.2163   21.0982 F   0  0  0  0  0  0
  -21.5631   -3.4544   25.7744 F   0  0  0  0  0  0
  -29.9495  -13.7543   20.3671 N   0  0  0  0  0  0
  -26.2921  -12.9505   20.3262 N   0  0  0  0  0  0
  -25.9395  -11.6645   20.5776 N   0  0  0  0  0  0
  -22.0416  -12.8219   22.0445 N   0  0  0  0  0  0
  -25.4112  -15.2000   20.4145 N   0  0  0  0  0  0
  -31.7468  -15.0647   20.1256 O   0  0  0  0  0  0
  -21.6642   -6.8909   21.4269 O   0  0  0  0  0  0
  -22.3484  -14.5523   20.6748 O   0  0  0  0  0  0
  -24.6447  -31.8460   23.2035 C   0  0  0  0  0  0
  -25.9235  -32.4627   23.8377 C   0  0  1  0  0  0
  -27.1623  -27.1033   20.1562 C   0  0  0  0  0  0
  -25.6087  -33.8476   24.2159 N   0  0  0  0  0  0
  -23.4357  -30.4943   21.5596 C   0  0  2  0  0  0
  -24.8734  -28.9446   20.1037 C   0  0  0  0  0  0
  -22.7509  -29.4466   22.4760 C   0  0  0  0  0  0
  -18.0393  -28.1350   22.8320 C   0  0  0  0  0  0
  -24.1493  -36.7259   23.2634 C   0  0  0  0  0  0
  -25.9958  -30.7155   21.3946 C   0  0  0  0  0  0
  -26.0634  -29.3352   20.7305 C   0  0  0  0  0  0
  -27.2054  -28.4455   20.7400 C   0  0  0  0  0  0
  -25.9422  -26.8184   19.5016 C   0  0  0  0  0  0
  -24.8333  -27.6848   19.4873 C   0  0  0  0  0  0
  -23.6830  -29.9027   20.1516 C   0  0  0  0  0  0
  -25.4088  -36.2975   24.0352 C   0  0  1  0  0  0
  -20.5910  -28.3652   23.1282 C   0  0  2  0  0  0
  -20.6920  -26.9346   22.5527 C   0  0  0  0  0  0
  -19.5873  -26.5971   21.5421 C   0  0  0  0  0  0
  -18.1995  -26.7954   22.1379 C   0  0  0  0  0  0
  -19.1587  -28.8767   23.2813 C   0  0  0  0  0  0
  -18.9491  -30.1338   23.8824 C   0  0  0  0  0  0
  -17.6470  -30.6319   24.0697 C   0  0  0  0  0  0
  -25.9123  -34.9399   23.5040 C   0  0  0  0  0  0
  -16.5374  -29.8923   23.6295 C   0  0  0  0  0  0
  -16.7336  -28.6517   22.9994 C   0  0  0  0  0  0
  -26.4545  -31.6496   25.0785 C   0  0  0  0  0  0
  -25.3739  -31.3753   26.1477 C   0  0  0  0  0  0
  -27.0376  -30.2893   24.6268 C   0  0  0  0  0  0
  -27.6056  -32.4248   25.7579 C   0  0  0  0  0  0
  -27.5572  -37.1852   24.8497 C   0  0  0  0  0  0
  -21.4226  -29.2884   22.3519 N   0  0  0  0  0  0
  -26.4225  -37.3736   23.9485 N   0  0  0  0  0  0
  -24.7136  -31.0314   22.1107 N   0  0  0  0  0  0
  -23.4085  -28.8083   23.3039 O   0  0  0  0  0  0
  -28.1731  -26.0631   20.2514 O   0  0  0  0  0  0
  -26.5652  -34.8960   22.4598 O   0  0  0  0  0  0
  -23.5603  -32.1481   23.7248 O   0  0  0  0  0  0
  -26.9286  -19.6205   19.2749 C   0  0  0  0  0  0
  -27.9265  -18.6736   19.5445 C   0  0  0  0  0  0
  -27.0500  -20.9963   19.6122 C   0  0  0  0  0  0
  -29.0862  -19.0395   20.2162 C   0  0  0  0  0  0
  -28.2735  -21.4728   20.1940 C   0  0  0  0  0  0
  -27.9125  -23.1491   22.1566 C   0  0  0  0  0  0
  -22.3630  -22.7801   18.0317 C   0  0  0  0  0  0
  -23.5952  -24.4175   16.6432 C   0  0  0  0  0  0
  -25.7606  -21.8172   19.4925 C   0  0  0  0  0  0
  -30.1159  -17.7939   20.6003 C   0  0  0  0  0  0
  -25.5951  -22.7075   18.2390 C   0  0  0  0  0  0
  -24.6362  -22.1906   17.1272 C   0  0  0  0  0  0
  -27.9826  -24.5252   19.9013 C   0  0  0  0  0  0
  -28.4635  -23.0751   20.7105 C   0  0  1  0  0  0
  -29.2243  -20.4432   20.5099 N   0  0  0  0  0  0
  -29.7814  -16.2247   20.5831 N   0  0  0  0  0  0
  -23.3775  -22.9868   16.9615 N   0  3  0  0  0  0
  -31.4846  -12.7977   19.1856 H   0  0  0  0  0  0
  -30.4533  -11.6950   20.0482 H   0  0  0  0  0  0
  -29.8610  -11.7539   17.5961 H   0  0  0  0  0  0
  -29.6114  -13.4795   17.6912 H   0  0  0  0  0  0
  -27.9752  -11.2917   19.0037 H   0  0  0  0  0  0
  -27.4034  -12.4429   17.8240 H   0  0  0  0  0  0
  -27.5864  -14.2622   19.3965 H   0  0  0  0  0  0
  -28.7933  -12.3665   21.4757 H   0  0  0  0  0  0
  -28.3848  -14.0489   21.7365 H   0  0  0  0  0  0
  -25.2803   -9.5708   22.4784 H   0  0  0  0  0  0
  -24.0010   -7.4673   22.7501 H   0  0  0  0  0  0
  -21.0867   -8.8831   19.8965 H   0  0  0  0  0  0
  -22.3755  -10.9711   19.6164 H   0  0  0  0  0  0
  -21.1999   -7.6161   23.9749 H   0  0  0  0  0  0
  -21.1490   -6.0517   25.9086 H   0  0  0  0  0  0
  -22.0580   -2.7626   23.2844 H   0  0  0  0  0  0
  -22.3960  -11.9859   22.4821 H   0  0  0  0  0  0
  -21.1038  -13.1262   22.2604 H   0  0  0  0  0  0
  -24.6382  -15.8508   20.5229 H   0  0  0  0  0  0
  -26.2433  -15.6371   20.0342 H   0  0  0  0  0  0
  -26.7306  -32.5091   23.1144 H   0  0  0  0  0  0
  -25.0197  -33.9560   25.0254 H   0  0  0  0  0  0
  -22.7382  -31.3284   21.4509 H   0  0  0  0  0  0
  -23.3772  -35.9591   23.3195 H   0  0  0  0  0  0
  -24.3568  -36.8964   22.2093 H   0  0  0  0  0  0
  -23.7380  -37.6503   23.6667 H   0  0  0  0  0  0
  -26.1591  -31.4626   20.6152 H   0  0  0  0  0  0
  -26.8651  -30.7366   22.0364 H   0  0  0  0  0  0
  -28.1022  -28.7585   21.2663 H   0  0  0  0  0  0
  -25.7673  -25.8720   19.0241 H   0  0  0  0  0  0
  -23.9294  -27.3353   19.0099 H   0  0  0  0  0  0
  -23.9021  -30.7470   19.4845 H   0  0  0  0  0  0
  -22.7701  -29.4717   19.7374 H   0  0  0  0  0  0
  -25.1298  -36.1750   25.0857 H   0  0  0  0  0  0
  -20.9930  -28.3475   24.1447 H   0  0  0  0  0  0
  -20.6341  -26.2317   23.3775 H   0  0  0  0  0  0
  -21.6706  -26.7589   22.1103 H   0  0  0  0  0  0
  -19.7016  -25.5700   21.1971 H   0  0  0  0  0  0
  -19.6814  -27.2406   20.6743 H   0  0  0  0  0  0
  -17.4393  -26.7013   21.3623 H   0  0  0  0  0  0
  -18.0034  -26.0049   22.8552 H   0  0  0  0  0  0
  -19.7979  -30.7025   24.2289 H   0  0  0  0  0  0
  -17.5084  -31.5784   24.5647 H   0  0  0  0  0  0
  -15.5378  -30.2784   23.7720 H   0  0  0  0  0  0
  -15.8656  -28.1096   22.6447 H   0  0  0  0  0  0
  -24.5949  -30.6948   25.7987 H   0  0  0  0  0  0
  -24.8889  -32.2963   26.4726 H   0  0  0  0  0  0
  -25.8091  -30.9222   27.0373 H   0  0  0  0  0  0
  -26.2963  -29.6709   24.1176 H   0  0  0  0  0  0
  -27.4012  -29.7027   25.4737 H   0  0  0  0  0  0
  -27.8848  -30.4187   23.9502 H   0  0  0  0  0  0
  -27.2538  -33.3553   26.2021 H   0  0  0  0  0  0
  -28.3945  -32.6790   25.0477 H   0  0  0  0  0  0
  -28.0526  -31.8418   26.5640 H   0  0  0  0  0  0
  -28.2610  -38.0121   24.7446 H   0  0  0  0  0  0
  -28.1037  -36.2719   24.6296 H   0  0  0  0  0  0
  -27.2270  -37.1465   25.8873 H   0  0  0  0  0  0
  -20.9316  -29.8303   21.6532 H   0  0  0  0  0  0
  -26.0048  -38.2775   24.1449 H   0  0  0  0  0  0
  -26.0087  -19.2409   18.8566 H   0  0  0  0  0  0
  -27.7591  -17.6332   19.3021 H   0  0  0  0  0  0
  -26.8372  -23.3476   22.1562 H   0  0  0  0  0  0
  -28.4349  -23.8924   22.7598 H   0  0  0  0  0  0
  -28.0730  -22.2189   22.6886 H   0  0  0  0  0  0
  -22.0625  -21.7377   18.1082 H   0  0  0  0  0  0
  -21.4510  -23.3478   17.8261 H   0  0  0  0  0  0
  -22.7131  -23.0878   19.0137 H   0  0  0  0  0  0
  -22.7105  -24.8353   16.1599 H   0  0  0  0  0  0
  -24.4217  -24.5596   15.9457 H   0  0  0  0  0  0
  -23.7914  -25.0051   17.5406 H   0  0  0  0  0  0
  -25.5941  -22.3876   20.4100 H   0  0  0  0  0  0
  -24.9201  -21.1208   19.5091 H   0  0  0  0  0  0
  -30.4328  -18.0012   21.6167 H   0  0  0  0  0  0
  -31.0297  -17.9272   20.0145 H   0  0  0  0  0  0
  -26.5745  -22.9550   17.8288 H   0  0  0  0  0  0
  -25.1834  -23.6376   18.6202 H   0  0  0  0  0  0
  -24.3702  -21.1407   17.2697 H   0  0  0  0  0  0
  -25.1750  -22.2124   16.1753 H   0  0  0  0  0  0
  -26.9326  -24.3788   19.7176 H   0  0  0  0  0  0
  -28.4286  -24.4571   18.9087 H   0  0  0  0  0  0
  -29.5455  -23.1633   20.8195 H   0  0  0  0  0  0
  -28.8211  -16.0463   20.8223 H   0  0  0  0  0  0
  -22.9353  -22.6295   16.1255 H   0  0  0  0  0  0
  1 25  1  0  0  0
  1 30  2  0  0  0
  1 86  1  0  0  0
  2  3  1  0  0  0
  2 25  1  0  0  0
  2 88  1  0  0  0
  2 89  1  0  0  0
  3  4  1  0  0  0
  3 90  1  0  0  0
  3 91  1  0  0  0
  4  5  1  0  0  0
  4 92  1  0  0  0
  4 93  1  0  0  0
  5  6  1  0  0  0
  5 26  1  0  0  0
  5 94  1  0  0  0
  6 25  1  0  0  0
  6 95  1  0  0  0
  6 96  1  0  0  0
  7  8  2  0  0  0
  7 26  1  0  0  0
  7 29  1  0  0  0
  8  9  1  0  0  0
  8 22  1  0  0  0
  9 10  1  0  0  0
  9 27  2  0  0  0
 10 11  2  0  0  0
 10 15  1  0  0  0
 11 12  1  0  0  0
 11 97  1  0  0  0
 12 13  2  0  0  0
 12 98  1  0  0  0
 13 14  1  0  0  0
 13 31  1  0  0  0
 14 15  2  0  0  0
 14 99  1  0  0  0
 15100  1  0  0  0
 16 17  2  0  0  0
 16 21  1  0  0  0
 16 31  1  0  0  0
 17 18  1  0  0  0
 17101  1  0  0  0
 18 19  2  0  0  0
 18102  1  0  0  0
 19 20  1  0  0  0
 19 24  1  0  0  0
 20 21  2  0  0  0
 20103  1  0  0  0
 21 23  1  0  0  0
 22 28  1  0  0  0
 22 32  2  0  0  0
 26 27  1  0  0  0
 28104  1  0  0  0
 28105  1  0  0  0
 29106  1  0  0  0
 29107  1  0  0  0
 33 34  1  0  0  0
 33 66  1  0  0  0
 33 70  2  0  0  0
 34 36  1  0  0  0
 34 59  1  0  0  0
 34108  1  0  0  0
 35 44  2  0  0  0
 35 45  1  0  0  0
 35 68  1  0  0  0
 36 56  1  0  0  0
 36109  1  0  0  0
 37 39  1  0  0  0
 37 47  1  0  0  0
 37 66  1  0  0  0
 37110  1  0  0  0
 38 43  2  0  0  0
 38 46  1  0  0  0
 38 47  1  0  0  0
 39 64  1  0  0  0
 39 67  2  0  0  0
 40 52  1  0  0  0
 40 53  2  0  0  0
 40 58  1  0  0  0
 41111  1  0  0  0
 41112  1  0  0  0
 41113  1  0  0  0
 41 48  1  0  0  0
 42 43  1  0  0  0
 42 66  1  0  0  0
 42114  1  0  0  0
 42115  1  0  0  0
 43 44  1  0  0  0
 44116  1  0  0  0
 45 46  2  0  0  0
 45117  1  0  0  0
 46118  1  0  0  0
 47119  1  0  0  0
 47120  1  0  0  0
 48 56  1  0  0  0
 48 65  1  0  0  0
 48121  1  0  0  0
 49 50  1  0  0  0
 49 53  1  0  0  0
 49 64  1  0  0  0
 49122  1  0  0  0
 50 51  1  0  0  0
 50123  1  0  0  0
 50124  1  0  0  0
 51 52  1  0  0  0
 51125  1  0  0  0
 51126  1  0  0  0
 52127  1  0  0  0
 52128  1  0  0  0
 53 54  1  0  0  0
 54 55  2  0  0  0
 54129  1  0  0  0
 55 57  1  0  0  0
 55130  1  0  0  0
 56 69  2  0  0  0
 57 58  2  0  0  0
 57131  1  0  0  0
 58132  1  0  0  0
 59 60  1  0  0  0
 59 61  1  0  0  0
 59 62  1  0  0  0
 60133  1  0  0  0
 60134  1  0  0  0
 60135  1  0  0  0
 61136  1  0  0  0
 61137  1  0  0  0
 61138  1  0  0  0
 62139  1  0  0  0
 62140  1  0  0  0
 62141  1  0  0  0
 63 65  1  0  0  0
 63142  1  0  0  0
 63143  1  0  0  0
 63144  1  0  0  0
 64145  1  0  0  0
 65146  1  0  0  0
 68 83  1  0  0  0
 71 72  2  0  0  0
 71 73  1  0  0  0
 71147  1  0  0  0
 72 74  1  0  0  0
 72148  1  0  0  0
 73 75  2  0  0  0
 73 79  1  0  0  0
 74 80  1  0  0  0
 74 85  2  0  0  0
 75 84  1  0  0  0
 75 85  1  0  0  0
 76149  1  0  0  0
 76150  1  0  0  0
 76151  1  0  0  0
 76 84  1  0  0  0
 77152  1  0  0  0
 77153  1  0  0  0
 77154  1  0  0  0
 77 87  1  0  0  0
 78 87  1  0  0  0
 78155  1  0  0  0
 78156  1  0  0  0
 78157  1  0  0  0
 79 81  1  0  0  0
 79158  1  0  0  0
 79159  1  0  0  0
 80 86  1  0  0  0
 80160  1  0  0  0
 80161  1  0  0  0
 81 82  1  0  0  0
 81162  1  0  0  0
 81163  1  0  0  0
 82 87  1  0  0  0
 82164  1  0  0  0
 82165  1  0  0  0
 83 84  1  0  0  0
 83166  1  0  0  0
 83167  1  0  0  0
 84168  1  0  0  0
 86169  1  0  0  0
 87170  1  0  0  0
M  CHG  1  87   1
M  ISO  4   1 100  68 101  83 101  86 100
M  END
> <chiral flag>
0

> <version>
0

> <s_m_source_file>
/data/baiqing/PycharmProjects/Reinvent-master-3.2/result/LINK_invent/BTK/process_docking_weight1_custom_sum_contain_oxygen_bond_distance_aromatic_linkinvent_7_9_3/rearranged_h_0099.sdf

> <i_m_source_file_index>
80

> <r_mmod_Potential_Energy-OPLS-2005>
312.106323242188

> <r_mmod_Stretch_Energy-OPLS-2005>
334.982788085938

> <r_mmod_Bend_Energy-OPLS-2005>
324.086822509766

> <r_mmod_Torsional_Energy-OPLS-2005>
240.166976928711

> <r_mmod_Improper_Torsional_Energy-OPLS-2005>
6.37387752532959

> <r_mmod_Van_der_Waal_Energy-OPLS-2005>
126.236824035645

> <r_mmod_Electrostatic_Energy-OPLS-2005>
-464.128448486328

> <r_mmod_Solvation_Energy-OPLS-2005>
-499.235321044922

> <b_mmod_Minimization_Converged-OPLS-2005>
0

> <r_mmod_RMS_Derivative-OPLS-2005>
15.5161790847778

$$$$
80
                    3D
 Structure written by MMmdl.
163171  0  0  1  0            999 V2000
  -30.6331  -14.7285   20.4796 C   0  0  0  0  0  0
  -30.4297  -12.4549   19.4583 C   0  0  0  0  0  0
  -29.5035  -12.5198   18.2250 C   0  0  0  0  0  0
  -28.0299  -12.3484   18.6386 C   0  0  0  0  0  0
  -27.6413  -13.2337   19.8527 C   0  0  2  0  0  0
  -28.6880  -13.1573   20.9847 C   0  0  0  0  0  0
  -25.2515  -13.8212   20.5694 C   0  0  0  0  0  0
  -24.1795  -13.0443   20.9220 C   0  0  0  0  0  0
  -24.6389  -11.6939   20.8758 C   0  0  0  0  0  0
  -23.9045  -10.4306   21.0414 C   0  0  0  0  0  0
  -24.3604   -9.4235   21.9191 C   0  0  0  0  0  0
  -23.6299   -8.2260   22.0757 C   0  0  0  0  0  0
  -22.4288   -8.0298   21.3559 C   0  0  0  0  0  0
  -21.9909   -9.0255   20.4652 C   0  0  0  0  0  0
  -22.7227  -10.2148   20.3062 C   0  0  0  0  0  0
  -21.6852   -6.0745   22.5283 C   0  0  0  0  0  0
  -21.4014   -6.5649   23.8220 C   0  0  0  0  0  0
  -21.3653   -5.6795   24.9177 C   0  0  0  0  0  0
  -21.6038   -4.3059   24.7223 C   0  0  0  0  0  0
  -21.8829   -3.8156   23.4341 C   0  0  0  0  0  0
  -21.9200   -4.6975   22.3400 C   0  0  0  0  0  0
  -22.7832  -13.5234   21.1897 C   0  0  0  0  0  0
  -22.1682   -4.2156   21.0978 F   0  0  0  0  0  0
  -21.5621   -3.4544   25.7734 F   0  0  0  0  0  0
  -29.9881  -13.5123   20.3984 N   0  0  0  0  0  0
  -26.2933  -12.9405   20.3292 N   0  0  0  0  0  0
  -25.9317  -11.6548   20.5738 N   0  0  0  0  0  0
  -22.0487  -12.8191   22.0446 N   0  0  0  0  0  0
  -25.4186  -15.1918   20.4099 N   0  0  0  0  0  0
  -31.8281  -14.8155   20.1916 O   0  0  0  0  0  0
  -21.6665   -6.8894   21.4250 O   0  0  0  0  0  0
  -22.3522  -14.5547   20.6791 O   0  0  0  0  0  0
  -24.6292  -31.8544   23.1964 C   0  0  0  0  0  0
  -25.9111  -32.4735   23.8318 C   0  0  1  0  0  0
  -27.2221  -27.2806   20.1366 C   0  0  0  0  0  0
  -25.5898  -33.8540   24.2229 N   0  0  0  0  0  0
  -23.4262  -30.4753   21.5390 C   0  0  2  0  0  0
  -24.8750  -28.9219   20.1154 C   0  0  0  0  0  0
  -22.7483  -29.4589   22.4908 C   0  0  0  0  0  0
  -18.0283  -28.1371   22.8477 C   0  0  0  0  0  0
  -24.1488  -36.7288   23.2645 C   0  0  0  0  0  0
  -25.9700  -30.7786   21.3722 C   0  0  0  0  0  0
  -26.0470  -29.4016   20.7158 C   0  0  0  0  0  0
  -27.2280  -28.5952   20.7096 C   0  0  0  0  0  0
  -26.0308  -26.8641   19.5065 C   0  0  0  0  0  0
  -24.8707  -27.6592   19.5022 C   0  0  0  0  0  0
  -23.6428  -29.8024   20.1583 C   0  0  0  0  0  0
  -25.4106  -36.3053   24.0322 C   0  0  1  0  0  0
  -20.5880  -28.3654   23.1269 C   0  0  2  0  0  0
  -20.6752  -26.9370   22.5411 C   0  0  0  0  0  0
  -19.5741  -26.6361   21.5201 C   0  0  0  0  0  0
  -18.1921  -26.7918   22.1618 C   0  0  0  0  0  0
  -19.1535  -28.8840   23.2863 C   0  0  0  0  0  0
  -18.9462  -30.1448   23.8860 C   0  0  0  0  0  0
  -17.6460  -30.6563   24.0559 C   0  0  0  0  0  0
  -25.9044  -34.9417   23.5083 C   0  0  0  0  0  0
  -16.5350  -29.9065   23.6330 C   0  0  0  0  0  0
  -16.7280  -28.6495   23.0338 C   0  0  0  0  0  0
  -26.4475  -31.6576   25.0717 C   0  0  0  0  0  0
  -25.3691  -31.3749   26.1432 C   0  0  0  0  0  0
  -27.0331  -30.2977   24.6252 C   0  0  0  0  0  0
  -27.6011  -32.4325   25.7494 C   0  0  0  0  0  0
  -27.5569  -37.1790   24.8451 C   0  0  0  0  0  0
  -21.4186  -29.3015   22.3654 N   0  0  0  0  0  0
  -26.4272  -37.3746   23.9398 N   0  0  0  0  0  0
  -24.6935  -31.0532   22.0925 N   0  0  0  0  0  0
  -23.4196  -28.8137   23.2992 O   0  0  0  0  0  0
  -28.3188  -26.3980   20.1641 O   0  0  0  0  0  0
  -26.5631  -34.8900   22.4671 O   0  0  0  0  0  0
  -23.5431  -32.1352   23.7264 O   0  0  0  0  0  0
  -30.9815  -21.8389   19.0092 C   0  0  0  0  0  0
  -29.9364  -21.2696   19.6918 C   0  0  0  0  0  0
  -31.2249  -19.6579   18.7330 C   0  0  0  0  0  0
  -33.3158  -18.3341   18.1251 C   0  0  0  0  0  0
  -31.2765  -18.2480   16.6033 C   0  0  0  0  0  0
  -28.8419  -22.2153   20.3200 C   0  0  0  0  0  0
  -28.9406  -23.7929   19.8845 C   0  0  0  0  0  0
  -29.4737  -18.5498   20.0969 C   0  0  0  0  0  0
  -30.3180  -17.3466   20.8157 C   0  0  0  0  0  0
  -28.0903  -24.9705   20.5696 C   0  0  0  0  0  0
  -31.7761  -18.4165   18.0496 C   0  0  0  0  0  0
  -30.1817  -19.8375   19.5964 N   0  0  0  0  0  0
  -31.7209  -20.8585   18.4479 N   0  3  0  0  0  0
  -29.8814  -15.8778   20.6832 N   0  0  0  0  0  0
  -31.4681  -12.5873   19.1519 H   0  0  0  0  0  0
  -30.3767  -11.4718   19.9277 H   0  0  0  0  0  0
  -29.7768  -11.7530   17.4995 H   0  0  0  0  0  0
  -29.6326  -13.4795   17.7232 H   0  0  0  0  0  0
  -27.8756  -11.2956   18.8815 H   0  0  0  0  0  0
  -27.3755  -12.5672   17.7932 H   0  0  0  0  0  0
  -27.6366  -14.2600   19.4864 H   0  0  0  0  0  0
  -28.7156  -12.1538   21.4119 H   0  0  0  0  0  0
  -28.4220  -13.8275   21.8030 H   0  0  0  0  0  0
  -25.2751   -9.5732   22.4758 H   0  0  0  0  0  0
  -24.0034   -7.4643   22.7463 H   0  0  0  0  0  0
  -21.0850   -8.8757   19.8926 H   0  0  0  0  0  0
  -22.3682  -10.9678   19.6174 H   0  0  0  0  0  0
  -21.1990   -7.6158   23.9716 H   0  0  0  0  0  0
  -21.1475   -6.0530   25.9070 H   0  0  0  0  0  0
  -22.0596   -2.7618   23.2837 H   0  0  0  0  0  0
  -22.4119  -11.9822   22.4760 H   0  0  0  0  0  0
  -21.1095  -13.1195   22.2672 H   0  0  0  0  0  0
  -24.6425  -15.8392   20.5024 H   0  0  0  0  0  0
  -26.2550  -15.6302   20.0468 H   0  0  0  0  0  0
  -26.7202  -32.5398   23.1073 H   0  0  0  0  0  0
  -24.9956  -33.9669   25.0312 H   0  0  0  0  0  0
  -22.7210  -31.2947   21.3858 H   0  0  0  0  0  0
  -23.3726  -35.9644   23.3298 H   0  0  0  0  0  0
  -24.3583  -36.8931   22.2063 H   0  0  0  0  0  0
  -23.7269  -37.6495   23.6692 H   0  0  0  0  0  0
  -26.1049  -31.5443   20.6073 H   0  0  0  0  0  0
  -26.8475  -30.8279   22.0049 H   0  0  0  0  0  0
  -28.1311  -28.9560   21.1830 H   0  0  0  0  0  0
  -25.9836  -25.8986   19.0236 H   0  0  0  0  0  0
  -23.9731  -27.2780   19.0357 H   0  0  0  0  0  0
  -23.7603  -30.5707   19.3929 H   0  0  0  0  0  0
  -22.7656  -29.2253   19.8604 H   0  0  0  0  0  0
  -25.1296  -36.1887   25.0813 H   0  0  0  0  0  0
  -20.9982  -28.3240   24.1386 H   0  0  0  0  0  0
  -20.5596  -26.2276   23.3612 H   0  0  0  0  0  0
  -21.6629  -26.7354   22.1238 H   0  0  0  0  0  0
  -19.6886  -25.6273   21.1228 H   0  0  0  0  0  0
  -19.6688  -27.3168   20.6726 H   0  0  0  0  0  0
  -17.4180  -26.6645   21.4027 H   0  0  0  0  0  0
  -18.0326  -26.0058   22.9016 H   0  0  0  0  0  0
  -19.7940  -30.7274   24.2199 H   0  0  0  0  0  0
  -17.5019  -31.6247   24.5166 H   0  0  0  0  0  0
  -15.5351  -30.2960   23.7676 H   0  0  0  0  0  0
  -15.8678  -28.0826   22.7040 H   0  0  0  0  0  0
  -24.5857  -30.7101   25.7770 H   0  0  0  0  0  0
  -24.8885  -32.2933   26.4807 H   0  0  0  0  0  0
  -25.7989  -30.8959   27.0235 H   0  0  0  0  0  0
  -26.2953  -29.6694   24.1235 H   0  0  0  0  0  0
  -27.3936  -29.7258   25.4814 H   0  0  0  0  0  0
  -27.8857  -30.4199   23.9561 H   0  0  0  0  0  0
  -27.2600  -33.3624   26.2032 H   0  0  0  0  0  0
  -28.3834  -32.6874   25.0344 H   0  0  0  0  0  0
  -28.0656  -31.8480   26.5434 H   0  0  0  0  0  0
  -28.2559  -38.0107   24.7490 H   0  0  0  0  0  0
  -28.1091  -36.2632   24.6280 H   0  0  0  0  0  0
  -27.2293  -37.1439   25.8855 H   0  0  0  0  0  0
  -20.9358  -29.8794   21.6913 H   0  0  0  0  0  0
  -26.0149  -38.2819   24.1402 H   0  0  0  0  0  0
  -31.2288  -22.8746   18.8299 H   0  0  0  0  0  0
  -33.6546  -18.2128   19.1539 H   0  0  0  0  0  0
  -33.8029  -19.2243   17.7224 H   0  0  0  0  0  0
  -33.6961  -17.4823   17.5573 H   0  0  0  0  0  0
  -30.1932  -18.1362   16.5778 H   0  0  0  0  0  0
  -31.6952  -17.3400   16.1646 H   0  0  0  0  0  0
  -31.5431  -19.0745   15.9475 H   0  0  0  0  0  0
  -28.9027  -22.1468   21.4058 H   0  0  0  0  0  0
  -27.8521  -21.8429   20.0528 H   0  0  0  0  0  0
  -28.7503  -23.8530   18.8121 H   0  0  0  0  0  0
  -29.9689  -24.1234   20.0187 H   0  0  0  0  0  0
  -28.6592  -18.8617   20.7523 H   0  0  0  0  0  0
  -28.9950  -18.1263   19.2131 H   0  0  0  0  0  0
  -30.3022  -17.5646   21.8853 H   0  0  0  0  0  0
  -31.3807  -17.4148   20.5900 H   0  0  0  0  0  0
  -28.3230  -24.9399   21.6350 H   0  0  0  0  0  0
  -27.0367  -24.7041   20.5177 H   0  0  0  0  0  0
  -31.3794  -17.5484   18.5524 H   0  0  0  0  0  0
  -32.5259  -21.0313   17.8587 H   0  0  0  0  0  0
  -28.8972  -15.7066   20.8237 H   0  0  0  0  0  0
  1 25  1  0  0  0
  1 30  2  0  0  0
  1 84  1  0  0  0
  2  3  1  0  0  0
  2 25  1  0  0  0
  2 85  1  0  0  0
  2 86  1  0  0  0
  3  4  1  0  0  0
  3 87  1  0  0  0
  3 88  1  0  0  0
  4  5  1  0  0  0
  4 89  1  0  0  0
  4 90  1  0  0  0
  5  6  1  0  0  0
  5 26  1  0  0  0
  5 91  1  0  0  0
  6 25  1  0  0  0
  6 92  1  0  0  0
  6 93  1  0  0  0
  7  8  2  0  0  0
  7 26  1  0  0  0
  7 29  1  0  0  0
  8  9  1  0  0  0
  8 22  1  0  0  0
  9 10  1  0  0  0
  9 27  2  0  0  0
 10 11  2  0  0  0
 10 15  1  0  0  0
 11 12  1  0  0  0
 11 94  1  0  0  0
 12 13  2  0  0  0
 12 95  1  0  0  0
 13 14  1  0  0  0
 13 31  1  0  0  0
 14 15  2  0  0  0
 14 96  1  0  0  0
 15 97  1  0  0  0
 16 17  2  0  0  0
 16 21  1  0  0  0
 16 31  1  0  0  0
 17 18  1  0  0  0
 17 98  1  0  0  0
 18 19  2  0  0  0
 18 99  1  0  0  0
 19 20  1  0  0  0
 19 24  1  0  0  0
 20 21  2  0  0  0
 20100  1  0  0  0
 21 23  1  0  0  0
 22 28  1  0  0  0
 22 32  2  0  0  0
 26 27  1  0  0  0
 28101  1  0  0  0
 28102  1  0  0  0
 29103  1  0  0  0
 29104  1  0  0  0
 33 34  1  0  0  0
 33 66  1  0  0  0
 33 70  2  0  0  0
 34 36  1  0  0  0
 34 59  1  0  0  0
 34105  1  0  0  0
 35 44  2  0  0  0
 35 45  1  0  0  0
 35 68  1  0  0  0
 36 56  1  0  0  0
 36106  1  0  0  0
 37 39  1  0  0  0
 37 47  1  0  0  0
 37 66  1  0  0  0
 37107  1  0  0  0
 38 43  2  0  0  0
 38 46  1  0  0  0
 38 47  1  0  0  0
 39 64  1  0  0  0
 39 67  2  0  0  0
 40 52  1  0  0  0
 40 53  2  0  0  0
 40 58  1  0  0  0
 41108  1  0  0  0
 41109  1  0  0  0
 41110  1  0  0  0
 41 48  1  0  0  0
 42 43  1  0  0  0
 42 66  1  0  0  0
 42111  1  0  0  0
 42112  1  0  0  0
 43 44  1  0  0  0
 44113  1  0  0  0
 45 46  2  0  0  0
 45114  1  0  0  0
 46115  1  0  0  0
 47116  1  0  0  0
 47117  1  0  0  0
 48 56  1  0  0  0
 48 65  1  0  0  0
 48118  1  0  0  0
 49 50  1  0  0  0
 49 53  1  0  0  0
 49 64  1  0  0  0
 49119  1  0  0  0
 50 51  1  0  0  0
 50120  1  0  0  0
 50121  1  0  0  0
 51 52  1  0  0  0
 51122  1  0  0  0
 51123  1  0  0  0
 52124  1  0  0  0
 52125  1  0  0  0
 53 54  1  0  0  0
 54 55  2  0  0  0
 54126  1  0  0  0
 55 57  1  0  0  0
 55127  1  0  0  0
 56 69  2  0  0  0
 57 58  2  0  0  0
 57128  1  0  0  0
 58129  1  0  0  0
 59 60  1  0  0  0
 59 61  1  0  0  0
 59 62  1  0  0  0
 60130  1  0  0  0
 60131  1  0  0  0
 60132  1  0  0  0
 61133  1  0  0  0
 61134  1  0  0  0
 61135  1  0  0  0
 62136  1  0  0  0
 62137  1  0  0  0
 62138  1  0  0  0
 63 65  1  0  0  0
 63139  1  0  0  0
 63140  1  0  0  0
 63141  1  0  0  0
 64142  1  0  0  0
 65143  1  0  0  0
 68 80  1  0  0  0
 71 72  2  0  0  0
 71 83  1  0  0  0
 71144  1  0  0  0
 72 76  1  0  0  0
 72 82  1  0  0  0
 73 81  1  0  0  0
 73 82  1  0  0  0
 73 83  2  0  0  0
 74145  1  0  0  0
 74146  1  0  0  0
 74147  1  0  0  0
 74 81  1  0  0  0
 75 81  1  0  0  0
 75148  1  0  0  0
 75149  1  0  0  0
 75150  1  0  0  0
 76 77  1  0  0  0
 76151  1  0  0  0
 76152  1  0  0  0
 77 80  1  0  0  0
 77153  1  0  0  0
 77154  1  0  0  0
 78 79  1  0  0  0
 78 82  1  0  0  0
 78155  1  0  0  0
 78156  1  0  0  0
 79 84  1  0  0  0
 79157  1  0  0  0
 79158  1  0  0  0
 80159  1  0  0  0
 80160  1  0  0  0
 81161  1  0  0  0
 83162  1  0  0  0
 84163  1  0  0  0
M  CHG  1  83   1
M  ISO  4   1 100  68 101  80 101  84 100
M  END
> <chiral flag>
0

> <version>
0

> <s_m_source_file>
/data/baiqing/PycharmProjects/Reinvent-master-3.2/result/LINK_invent/BTK/process_docking_weight1_custom_sum_contain_oxygen_bond_distance_aromatic_linkinvent_7_9_3/rearranged_h_0099.sdf

> <i_m_source_file_index>
81

> <r_mmod_Potential_Energy-OPLS-2005>
142.585189819336

> <r_mmod_Stretch_Energy-OPLS-2005>
142.312805175781

> <r_mmod_Bend_Energy-OPLS-2005>
200.591186523438

> <r_mmod_Torsional_Energy-OPLS-2005>
250.976623535156

> <r_mmod_Improper_Torsional_Energy-OPLS-2005>
5.44258594512939

> <r_mmod_Van_der_Waal_Energy-OPLS-2005>
122.904632568359

> <r_mmod_Electrostatic_Energy-OPLS-2005>
-241.450210571289

> <r_mmod_Solvation_Energy-OPLS-2005>
-414.662200927734

> <b_mmod_Minimization_Converged-OPLS-2005>
0

> <r_mmod_RMS_Derivative-OPLS-2005>
4.9746470451355

$$$$
81
                    3D
 Structure written by MMmdl.
161169  0  0  1  0            999 V2000
  -30.5124  -15.0048   20.3700 C   0  0  0  0  0  0
  -30.4383  -12.6171   19.5057 C   0  0  0  0  0  0
  -29.5254  -12.5345   18.2592 C   0  0  0  0  0  0
  -28.0579  -12.3156   18.6752 C   0  0  0  0  0  0
  -27.6254  -13.2541   19.8320 C   0  0  2  0  0  0
  -28.6646  -13.3043   20.9709 C   0  0  0  0  0  0
  -25.2422  -13.8236   20.5697 C   0  0  0  0  0  0
  -24.1758  -13.0446   20.9225 C   0  0  0  0  0  0
  -24.6398  -11.6935   20.8750 C   0  0  0  0  0  0
  -23.9086  -10.4302   21.0399 C   0  0  0  0  0  0
  -24.3632   -9.4212   21.9174 C   0  0  0  0  0  0
  -23.6304   -8.2245   22.0753 C   0  0  0  0  0  0
  -22.4283   -8.0289   21.3543 C   0  0  0  0  0  0
  -21.9919   -9.0270   20.4650 C   0  0  0  0  0  0
  -22.7251  -10.2142   20.3055 C   0  0  0  0  0  0
  -21.6862   -6.0741   22.5281 C   0  0  0  0  0  0
  -21.4024   -6.5640   23.8219 C   0  0  0  0  0  0
  -21.3653   -5.6786   24.9173 C   0  0  0  0  0  0
  -21.6037   -4.3053   24.7219 C   0  0  0  0  0  0
  -21.8810   -3.8147   23.4341 C   0  0  0  0  0  0
  -21.9190   -4.6964   22.3397 C   0  0  0  0  0  0
  -22.7773  -13.5207   21.1866 C   0  0  0  0  0  0
  -22.1647   -4.2142   21.0973 F   0  0  0  0  0  0
  -21.5621   -3.4529   25.7732 F   0  0  0  0  0  0
  -29.9366  -13.7284   20.3711 N   0  0  0  0  0  0
  -26.2855  -12.9480   20.3209 N   0  0  0  0  0  0
  -25.9326  -11.6599   20.5727 N   0  0  0  0  0  0
  -22.0400  -12.8232   22.0439 N   0  0  0  0  0  0
  -25.4067  -15.1961   20.4097 N   0  0  0  0  0  0
  -31.7237  -15.0461   20.1236 O   0  0  0  0  0  0
  -21.6639   -6.8889   21.4251 O   0  0  0  0  0  0
  -22.3449  -14.5488   20.6674 O   0  0  0  0  0  0
  -24.6471  -31.8396   23.1853 C   0  0  0  0  0  0
  -25.9236  -32.4659   23.8255 C   0  0  1  0  0  0
  -27.2088  -27.0953   20.1645 C   0  0  0  0  0  0
  -25.5970  -33.8470   24.2164 N   0  0  0  0  0  0
  -23.4517  -30.4586   21.5303 C   0  0  2  0  0  0
  -24.9013  -28.8769   20.1126 C   0  0  0  0  0  0
  -22.7580  -29.4524   22.4833 C   0  0  0  0  0  0
  -18.0310  -28.1384   22.8484 C   0  0  0  0  0  0
  -24.1503  -36.7248   23.2639 C   0  0  0  0  0  0
  -26.0108  -30.6999   21.3915 C   0  0  0  0  0  0
  -26.0802  -29.3073   20.7356 C   0  0  0  0  0  0
  -27.2358  -28.4336   20.7417 C   0  0  0  0  0  0
  -26.0073  -26.7767   19.4976 C   0  0  0  0  0  0
  -24.8794  -27.6268   19.4756 C   0  0  0  0  0  0
  -23.6820  -29.7870   20.1509 C   0  0  0  0  0  0
  -25.4130  -36.3008   24.0310 C   0  0  1  0  0  0
  -20.5924  -28.3720   23.1227 C   0  0  2  0  0  0
  -20.6794  -26.9419   22.5397 C   0  0  0  0  0  0
  -19.5765  -26.6371   21.5212 C   0  0  0  0  0  0
  -18.1951  -26.7923   22.1629 C   0  0  0  0  0  0
  -19.1566  -28.8869   23.2847 C   0  0  0  0  0  0
  -18.9477  -30.1468   23.8863 C   0  0  0  0  0  0
  -17.6472  -30.6583   24.0553 C   0  0  0  0  0  0
  -25.9078  -34.9386   23.5044 C   0  0  0  0  0  0
  -16.5365  -29.9073   23.6331 C   0  0  0  0  0  0
  -16.7292  -28.6491   23.0356 C   0  0  0  0  0  0
  -26.4542  -31.6539   25.0715 C   0  0  0  0  0  0
  -25.3722  -31.3759   26.1412 C   0  0  0  0  0  0
  -27.0397  -30.2916   24.6337 C   0  0  0  0  0  0
  -27.6054  -32.4313   25.7505 C   0  0  0  0  0  0
  -27.5572  -37.1780   24.8461 C   0  0  0  0  0  0
  -21.4269  -29.3052   22.3591 N   0  0  0  0  0  0
  -26.4286  -37.3726   23.9404 N   0  0  0  0  0  0
  -24.7231  -31.0220   22.0902 N   0  0  0  0  0  0
  -23.4211  -28.8078   23.2996 O   0  0  0  0  0  0
  -28.2558  -26.0935   20.1866 O   0  0  0  0  0  0
  -26.5660  -34.8884   22.4621 O   0  0  0  0  0  0
  -23.5579  -32.1299   23.7043 O   0  0  0  0  0  0
  -30.3282  -19.1424   18.0057 C   0  0  0  0  0  0
  -29.9067  -20.2892   18.6901 C   0  0  0  0  0  0
  -30.1987  -17.8355   18.5421 C   0  0  0  0  0  0
  -29.3277  -20.1840   19.9559 C   0  0  0  0  0  0
  -29.7773  -17.6485   19.9018 C   0  0  0  0  0  0
  -31.8815  -16.5826   17.0786 C   0  0  0  0  0  0
  -29.4771  -16.8198   16.3217 C   0  0  0  0  0  0
  -30.3553  -23.5579   20.0519 C   0  0  0  0  0  0
  -28.6764  -21.5841   20.5833 C   0  0  0  0  0  0
  -27.9940  -24.5677   20.4907 C   0  0  0  0  0  0
  -30.4181  -16.6915   17.5369 C   0  0  0  0  0  0
  -28.8681  -23.1865   19.9944 C   0  0  1  0  0  0
  -29.3075  -18.8629   20.5278 N   0  0  0  0  0  0
  -29.7109  -16.1984   20.4621 N   0  0  0  0  0  0
  -31.4719  -12.7749   19.1946 H   0  0  0  0  0  0
  -30.4385  -11.6726   20.0516 H   0  0  0  0  0  0
  -29.8575  -11.7330   17.5966 H   0  0  0  0  0  0
  -29.6046  -13.4554   17.6808 H   0  0  0  0  0  0
  -27.9626  -11.2778   18.9937 H   0  0  0  0  0  0
  -27.3979  -12.4336   17.8148 H   0  0  0  0  0  0
  -27.5819  -14.2517   19.3926 H   0  0  0  0  0  0
  -28.7593  -12.3320   21.4562 H   0  0  0  0  0  0
  -28.3548  -14.0083   21.7448 H   0  0  0  0  0  0
  -25.2777   -9.5678   22.4740 H   0  0  0  0  0  0
  -24.0003   -7.4637   22.7476 H   0  0  0  0  0  0
  -21.0842   -8.8800   19.8976 H   0  0  0  0  0  0
  -22.3716  -10.9676   19.6157 H   0  0  0  0  0  0
  -21.2042   -7.6152   23.9729 H   0  0  0  0  0  0
  -21.1472   -6.0513   25.9076 H   0  0  0  0  0  0
  -22.0603   -2.7611   23.2838 H   0  0  0  0  0  0
  -22.4013  -11.9950   22.4916 H   0  0  0  0  0  0
  -21.1002  -13.1275   22.2584 H   0  0  0  0  0  0
  -24.6319  -15.8436   20.5182 H   0  0  0  0  0  0
  -26.2427  -15.6392   20.0537 H   0  0  0  0  0  0
  -26.7296  -32.5243   23.0966 H   0  0  0  0  0  0
  -25.0107  -33.9585   25.0305 H   0  0  0  0  0  0
  -22.7562  -31.2858   21.3733 H   0  0  0  0  0  0
  -23.3753  -35.9591   23.3286 H   0  0  0  0  0  0
  -24.3583  -36.8892   22.2053 H   0  0  0  0  0  0
  -23.7276  -37.6448   23.6688 H   0  0  0  0  0  0
  -26.1750  -31.4515   20.6179 H   0  0  0  0  0  0
  -26.8768  -30.7477   22.0400 H   0  0  0  0  0  0
  -28.1348  -28.7611   21.2443 H   0  0  0  0  0  0
  -25.9219  -25.8287   18.9883 H   0  0  0  0  0  0
  -23.9844  -27.2965   18.9672 H   0  0  0  0  0  0
  -23.8273  -30.5607   19.3961 H   0  0  0  0  0  0
  -22.7953  -29.2345   19.8353 H   0  0  0  0  0  0
  -25.1318  -36.1818   25.0799 H   0  0  0  0  0  0
  -21.0025  -28.3311   24.1345 H   0  0  0  0  0  0
  -20.5694  -26.2331   23.3621 H   0  0  0  0  0  0
  -21.6655  -26.7422   22.1182 H   0  0  0  0  0  0
  -19.6919  -25.6276   21.1256 H   0  0  0  0  0  0
  -19.6689  -27.3169   20.6734 H   0  0  0  0  0  0
  -17.4214  -26.6669   21.4036 H   0  0  0  0  0  0
  -18.0345  -26.0066   22.9026 H   0  0  0  0  0  0
  -19.7951  -30.7297   24.2212 H   0  0  0  0  0  0
  -17.5021  -31.6260   24.5160 H   0  0  0  0  0  0
  -15.5362  -30.2958   23.7666 H   0  0  0  0  0  0
  -15.8700  -28.0796   22.7079 H   0  0  0  0  0  0
  -24.5877  -30.7131   25.7747 H   0  0  0  0  0  0
  -24.8948  -32.2959   26.4793 H   0  0  0  0  0  0
  -25.7999  -30.8953   27.0223 H   0  0  0  0  0  0
  -26.3019  -29.6628   24.1338 H   0  0  0  0  0  0
  -27.3969  -29.7226   25.4933 H   0  0  0  0  0  0
  -27.8952  -30.4110   23.9684 H   0  0  0  0  0  0
  -27.2624  -33.3625   26.2026 H   0  0  0  0  0  0
  -28.3894  -32.6860   25.0361 H   0  0  0  0  0  0
  -28.0696  -31.8484   26.5470 H   0  0  0  0  0  0
  -28.2572  -38.0092   24.7482 H   0  0  0  0  0  0
  -28.1078  -36.2606   24.6306 H   0  0  0  0  0  0
  -27.2285  -37.1448   25.8865 H   0  0  0  0  0  0
  -20.9476  -29.8768   21.6774 H   0  0  0  0  0  0
  -26.0139  -38.2791   24.1387 H   0  0  0  0  0  0
  -30.6986  -19.2736   16.9994 H   0  0  0  0  0  0
  -29.9705  -21.2488   18.1956 H   0  0  0  0  0  0
  -32.5616  -16.4988   17.9263 H   0  0  0  0  0  0
  -32.1877  -17.4447   16.4881 H   0  0  0  0  0  0
  -32.0235  -15.6976   16.4581 H   0  0  0  0  0  0
  -28.4341  -16.8901   16.6343 H   0  0  0  0  0  0
  -29.5588  -15.9463   15.6744 H   0  0  0  0  0  0
  -29.6921  -17.6964   15.7115 H   0  0  0  0  0  0
  -30.9774  -22.8161   19.5516 H   0  0  0  0  0  0
  -30.6963  -23.6410   21.0840 H   0  0  0  0  0  0
  -30.5315  -24.5166   19.5617 H   0  0  0  0  0  0
  -28.9561  -21.5912   21.6369 H   0  0  0  0  0  0
  -27.6020  -21.3979   20.5935 H   0  0  0  0  0  0
  -28.0009  -24.5283   21.5804 H   0  0  0  0  0  0
  -26.9544  -24.3577   20.2439 H   0  0  0  0  0  0
  -30.1390  -15.7401   17.9689 H   0  0  0  0  0  0
  -28.6206  -23.1067   18.9352 H   0  0  0  0  0  0
  -28.8241  -16.0070   20.8991 H   0  0  0  0  0  0
  1 25  1  0  0  0
  1 30  2  0  0  0
  1 84  1  0  0  0
  2  3  1  0  0  0
  2 25  1  0  0  0
  2 85  1  0  0  0
  2 86  1  0  0  0
  3  4  1  0  0  0
  3 87  1  0  0  0
  3 88  1  0  0  0
  4  5  1  0  0  0
  4 89  1  0  0  0
  4 90  1  0  0  0
  5  6  1  0  0  0
  5 26  1  0  0  0
  5 91  1  0  0  0
  6 25  1  0  0  0
  6 92  1  0  0  0
  6 93  1  0  0  0
  7  8  2  0  0  0
  7 26  1  0  0  0
  7 29  1  0  0  0
  8  9  1  0  0  0
  8 22  1  0  0  0
  9 10  1  0  0  0
  9 27  2  0  0  0
 10 11  2  0  0  0
 10 15  1  0  0  0
 11 12  1  0  0  0
 11 94  1  0  0  0
 12 13  2  0  0  0
 12 95  1  0  0  0
 13 14  1  0  0  0
 13 31  1  0  0  0
 14 15  2  0  0  0
 14 96  1  0  0  0
 15 97  1  0  0  0
 16 17  2  0  0  0
 16 21  1  0  0  0
 16 31  1  0  0  0
 17 18  1  0  0  0
 17 98  1  0  0  0
 18 19  2  0  0  0
 18 99  1  0  0  0
 19 20  1  0  0  0
 19 24  1  0  0  0
 20 21  2  0  0  0
 20100  1  0  0  0
 21 23  1  0  0  0
 22 28  1  0  0  0
 22 32  2  0  0  0
 26 27  1  0  0  0
 28101  1  0  0  0
 28102  1  0  0  0
 29103  1  0  0  0
 29104  1  0  0  0
 33 34  1  0  0  0
 33 66  1  0  0  0
 33 70  2  0  0  0
 34 36  1  0  0  0
 34 59  1  0  0  0
 34105  1  0  0  0
 35 44  2  0  0  0
 35 45  1  0  0  0
 35 68  1  0  0  0
 36 56  1  0  0  0
 36106  1  0  0  0
 37 39  1  0  0  0
 37 47  1  0  0  0
 37 66  1  0  0  0
 37107  1  0  0  0
 38 43  2  0  0  0
 38 46  1  0  0  0
 38 47  1  0  0  0
 39 64  1  0  0  0
 39 67  2  0  0  0
 40 52  1  0  0  0
 40 53  2  0  0  0
 40 58  1  0  0  0
 41108  1  0  0  0
 41109  1  0  0  0
 41110  1  0  0  0
 41 48  1  0  0  0
 42 43  1  0  0  0
 42 66  1  0  0  0
 42111  1  0  0  0
 42112  1  0  0  0
 43 44  1  0  0  0
 44113  1  0  0  0
 45 46  2  0  0  0
 45114  1  0  0  0
 46115  1  0  0  0
 47116  1  0  0  0
 47117  1  0  0  0
 48 56  1  0  0  0
 48 65  1  0  0  0
 48118  1  0  0  0
 49 50  1  0  0  0
 49 53  1  0  0  0
 49 64  1  0  0  0
 49119  1  0  0  0
 50 51  1  0  0  0
 50120  1  0  0  0
 50121  1  0  0  0
 51 52  1  0  0  0
 51122  1  0  0  0
 51123  1  0  0  0
 52124  1  0  0  0
 52125  1  0  0  0
 53 54  1  0  0  0
 54 55  2  0  0  0
 54126  1  0  0  0
 55 57  1  0  0  0
 55127  1  0  0  0
 56 69  2  0  0  0
 57 58  2  0  0  0
 57128  1  0  0  0
 58129  1  0  0  0
 59 60  1  0  0  0
 59 61  1  0  0  0
 59 62  1  0  0  0
 60130  1  0  0  0
 60131  1  0  0  0
 60132  1  0  0  0
 61133  1  0  0  0
 61134  1  0  0  0
 61135  1  0  0  0
 62136  1  0  0  0
 62137  1  0  0  0
 62138  1  0  0  0
 63 65  1  0  0  0
 63139  1  0  0  0
 63140  1  0  0  0
 63141  1  0  0  0
 64142  1  0  0  0
 65143  1  0  0  0
 68 80  1  0  0  0
 71 72  2  0  0  0
 71 73  1  0  0  0
 71144  1  0  0  0
 72 74  1  0  0  0
 72145  1  0  0  0
 73 75  2  0  0  0
 73 81  1  0  0  0
 74 79  1  0  0  0
 74 83  2  0  0  0
 75 83  1  0  0  0
 75 84  1  0  0  0
 76146  1  0  0  0
 76147  1  0  0  0
 76148  1  0  0  0
 76 81  1  0  0  0
 77 81  1  0  0  0
 77149  1  0  0  0
 77150  1  0  0  0
 77151  1  0  0  0
 78152  1  0  0  0
 78153  1  0  0  0
 78154  1  0  0  0
 78 82  1  0  0  0
 79 82  1  0  0  0
 79155  1  0  0  0
 79156  1  0  0  0
 80 82  1  0  0  0
 80157  1  0  0  0
 80158  1  0  0  0
 81159  1  0  0  0
 82160  1  0  0  0
 84161  1  0  0  0
M  ISO  4   1 100  68 101  80 101  84 100
M  END
> <chiral flag>
0

> <version>
0

> <s_m_source_file>
/data/baiqing/PycharmProjects/Reinvent-master-3.2/result/LINK_invent/BTK/process_docking_weight1_custom_sum_contain_oxygen_bond_distance_aromatic_linkinvent_7_9_3/rearranged_h_0099.sdf

> <i_m_source_file_index>
82

> <r_mmod_Potential_Energy-OPLS-2005>
517.300170898438

> <r_mmod_Stretch_Energy-OPLS-2005>
319.737945556641

> <r_mmod_Bend_Energy-OPLS-2005>
281.294647216797

> <r_mmod_Torsional_Energy-OPLS-2005>
261.906555175781

> <r_mmod_Improper_Torsional_Energy-OPLS-2005>
5.33694362640381

> <r_mmod_Van_der_Waal_Energy-OPLS-2005>
129.583541870117

> <r_mmod_Electrostatic_Energy-OPLS-2005>
-494.256591796875

> <r_mmod_Solvation_Energy-OPLS-2005>
-216.624954223633

> <b_mmod_Minimization_Converged-OPLS-2005>
0

> <r_mmod_RMS_Derivative-OPLS-2005>
2.65675354003906

$$$$
82
                    3D
 Structure written by MMmdl.
161169  0  0  1  0            999 V2000
  -30.6862  -14.5335   20.5625 C   0  0  0  0  0  0
  -30.4477  -12.3414   19.4475 C   0  0  0  0  0  0
  -29.5170  -12.5045   18.2304 C   0  0  0  0  0  0
  -28.0391  -12.3551   18.6363 C   0  0  0  0  0  0
  -27.6684  -13.2113   19.8772 C   0  0  2  0  0  0
  -28.7090  -13.0222   21.0062 C   0  0  0  0  0  0
  -25.2614  -13.8170   20.5598 C   0  0  0  0  0  0
  -24.1838  -13.0469   20.9216 C   0  0  0  0  0  0
  -24.6421  -11.6956   20.8737 C   0  0  0  0  0  0
  -23.9061  -10.4341   21.0426 C   0  0  0  0  0  0
  -24.3640   -9.4271   21.9204 C   0  0  0  0  0  0
  -23.6348   -8.2289   22.0776 C   0  0  0  0  0  0
  -22.4330   -8.0286   21.3572 C   0  0  0  0  0  0
  -21.9938   -9.0240   20.4683 C   0  0  0  0  0  0
  -22.7236  -10.2140   20.3092 C   0  0  0  0  0  0
  -21.6859   -6.0755   22.5278 C   0  0  0  0  0  0
  -21.3990   -6.5670   23.8198 C   0  0  0  0  0  0
  -21.3651   -5.6816   24.9169 C   0  0  0  0  0  0
  -21.6097   -4.3087   24.7209 C   0  0  0  0  0  0
  -21.8795   -3.8169   23.4311 C   0  0  0  0  0  0
  -21.9195   -4.6994   22.3387 C   0  0  0  0  0  0
  -22.7877  -13.5323   21.1869 C   0  0  0  0  0  0
  -22.1658   -4.2212   21.0937 F   0  0  0  0  0  0
  -21.5667   -3.4558   25.7698 F   0  0  0  0  0  0
  -30.0377  -13.3388   20.4513 N   0  0  0  0  0  0
  -26.3047  -12.9323   20.3344 N   0  0  0  0  0  0
  -25.9338  -11.6494   20.5740 N   0  0  0  0  0  0
  -22.0452  -12.8293   22.0347 N   0  0  0  0  0  0
  -25.4358  -15.1869   20.3812 N   0  0  0  0  0  0
  -31.8288  -14.7110   20.1302 O   0  0  0  0  0  0
  -21.6672   -6.8895   21.4260 O   0  0  0  0  0  0
  -22.3599  -14.5630   20.6718 O   0  0  0  0  0  0
  -24.6202  -31.8641   23.2089 C   0  0  0  0  0  0
  -25.9085  -32.4790   23.8416 C   0  0  1  0  0  0
  -27.2278  -27.3912   20.1225 C   0  0  0  0  0  0
  -25.5898  -33.8592   24.2313 N   0  0  0  0  0  0
  -23.4095  -30.4898   21.5490 C   0  0  2  0  0  0
  -24.8558  -28.9503   20.1137 C   0  0  0  0  0  0
  -22.7433  -29.4638   22.4962 C   0  0  0  0  0  0
  -18.0282  -28.1372   22.8482 C   0  0  0  0  0  0
  -24.1488  -36.7321   23.2644 C   0  0  0  0  0  0
  -25.9442  -30.8189   21.3666 C   0  0  0  0  0  0
  -26.0190  -29.4527   20.7102 C   0  0  0  0  0  0
  -27.2106  -28.6833   20.7054 C   0  0  0  0  0  0
  -26.0485  -26.9196   19.5045 C   0  0  0  0  0  0
  -24.8681  -27.6858   19.5024 C   0  0  0  0  0  0
  -23.6198  -29.8208   20.1646 C   0  0  0  0  0  0
  -25.4110  -36.3091   24.0328 C   0  0  1  0  0  0
  -20.5865  -28.3659   23.1293 C   0  0  2  0  0  0
  -20.6752  -26.9389   22.5407 C   0  0  0  0  0  0
  -19.5738  -26.6374   21.5203 C   0  0  0  0  0  0
  -18.1920  -26.7917   22.1622 C   0  0  0  0  0  0
  -19.1532  -28.8836   23.2878 C   0  0  0  0  0  0
  -18.9463  -30.1438   23.8898 C   0  0  0  0  0  0
  -17.6469  -30.6574   24.0564 C   0  0  0  0  0  0
  -25.9052  -34.9458   23.5119 C   0  0  0  0  0  0
  -16.5353  -29.9080   23.6316 C   0  0  0  0  0  0
  -16.7272  -28.6484   23.0347 C   0  0  0  0  0  0
  -26.4505  -31.6605   25.0768 C   0  0  0  0  0  0
  -25.3754  -31.3761   26.1518 C   0  0  0  0  0  0
  -27.0335  -30.3026   24.6186 C   0  0  0  0  0  0
  -27.6041  -32.4352   25.7544 C   0  0  0  0  0  0
  -27.5570  -37.1822   24.8450 C   0  0  0  0  0  0
  -21.4154  -29.3038   22.3716 N   0  0  0  0  0  0
  -26.4278  -37.3787   23.9387 N   0  0  0  0  0  0
  -24.6767  -31.0722   22.0989 N   0  0  0  0  0  0
  -23.4186  -28.8180   23.3025 O   0  0  0  0  0  0
  -28.3669  -26.6005   20.1630 O   0  0  0  0  0  0
  -26.5631  -34.8914   22.4697 O   0  0  0  0  0  0
  -23.5381  -32.1394   23.7468 O   0  0  0  0  0  0
  -29.5443  -20.4967   20.0452 C   0  0  0  0  0  0
  -28.9717  -19.2878   20.5292 C   0  0  0  0  0  0
  -27.8874  -19.4180   21.4365 C   0  0  0  0  0  0
  -29.0215  -21.7590   20.4436 C   0  0  0  0  0  0
  -27.4558  -20.7157   21.8072 C   0  0  0  0  0  0
  -27.1643  -18.2050   22.0153 C   0  0  0  0  0  0
  -26.3710  -20.9212   22.8507 C   0  0  0  0  0  0
  -29.4576  -17.8989   20.0408 C   0  0  0  0  0  0
  -29.5454  -23.0885   19.8542 C   0  0  0  0  0  0
  -29.4500  -24.3805   20.7369 C   0  0  0  0  0  0
  -30.2415  -17.0221   21.0772 C   0  0  0  0  0  0
  -28.1546  -25.2323   20.6049 C   0  0  0  0  0  0
  -27.9827  -21.8489   21.2961 N   0  0  0  0  0  0
  -29.9381  -15.5642   21.0142 N   0  0  0  0  0  0
  -31.4899  -12.4595   19.1503 H   0  0  0  0  0  0
  -30.3731  -11.3388   19.8651 H   0  0  0  0  0  0
  -29.7755  -11.7747   17.4605 H   0  0  0  0  0  0
  -29.6761  -13.4888   17.7796 H   0  0  0  0  0  0
  -27.8573  -11.2987   18.8434 H   0  0  0  0  0  0
  -27.3943  -12.6128   17.7984 H   0  0  0  0  0  0
  -27.7083  -14.2552   19.5646 H   0  0  0  0  0  0
  -28.6927  -11.9927   21.3626 H   0  0  0  0  0  0
  -28.4673  -13.6363   21.8724 H   0  0  0  0  0  0
  -25.2797   -9.5821   22.4753 H   0  0  0  0  0  0
  -24.0100   -7.4747   22.7508 H   0  0  0  0  0  0
  -21.0877   -8.8751   19.9024 H   0  0  0  0  0  0
  -22.3669  -10.9679   19.6220 H   0  0  0  0  0  0
  -21.1898   -7.6165   23.9718 H   0  0  0  0  0  0
  -21.1541   -6.0535   25.9098 H   0  0  0  0  0  0
  -22.0584   -2.7631   23.2743 H   0  0  0  0  0  0
  -22.3998  -11.9923   22.4696 H   0  0  0  0  0  0
  -21.1120  -13.1443   22.2582 H   0  0  0  0  0  0
  -24.6551  -15.8317   20.4242 H   0  0  0  0  0  0
  -26.2515  -15.5778   19.9284 H   0  0  0  0  0  0
  -26.7159  -32.5494   23.1181 H   0  0  0  0  0  0
  -24.9993  -33.9753   25.0406 H   0  0  0  0  0  0
  -22.6998  -31.3074   21.4082 H   0  0  0  0  0  0
  -23.3728  -35.9684   23.3319 H   0  0  0  0  0  0
  -24.3585  -36.8937   22.2058 H   0  0  0  0  0  0
  -23.7278  -37.6542   23.6662 H   0  0  0  0  0  0
  -26.0660  -31.5851   20.5990 H   0  0  0  0  0  0
  -26.8269  -30.8689   21.9912 H   0  0  0  0  0  0
  -28.1061  -29.0645   21.1754 H   0  0  0  0  0  0
  -26.0204  -25.9537   19.0187 H   0  0  0  0  0  0
  -23.9738  -27.2932   19.0376 H   0  0  0  0  0  0
  -23.7327  -30.5924   19.4035 H   0  0  0  0  0  0
  -22.7424  -29.2427   19.8663 H   0  0  0  0  0  0
  -25.1302  -36.1959   25.0828 H   0  0  0  0  0  0
  -20.9964  -28.3232   24.1407 H   0  0  0  0  0  0
  -20.5620  -26.2288   23.3611 H   0  0  0  0  0  0
  -21.6633  -26.7405   22.1237 H   0  0  0  0  0  0
  -19.6900  -25.6285   21.1226 H   0  0  0  0  0  0
  -19.6670  -27.3180   20.6729 H   0  0  0  0  0  0
  -17.4187  -26.6641   21.4023 H   0  0  0  0  0  0
  -18.0331  -26.0052   22.9019 H   0  0  0  0  0  0
  -19.7942  -30.7237   24.2260 H   0  0  0  0  0  0
  -17.5032  -31.6257   24.5173 H   0  0  0  0  0  0
  -15.5350  -30.3003   23.7637 H   0  0  0  0  0  0
  -15.8657  -28.0817   22.7076 H   0  0  0  0  0  0
  -24.5867  -30.7168   25.7888 H   0  0  0  0  0  0
  -24.9028  -32.2950   26.4988 H   0  0  0  0  0  0
  -25.8097  -30.8914   27.0258 H   0  0  0  0  0  0
  -26.2908  -29.6789   24.1192 H   0  0  0  0  0  0
  -27.4040  -29.7275   25.4678 H   0  0  0  0  0  0
  -27.8770  -30.4342   23.9396 H   0  0  0  0  0  0
  -27.2599  -33.3610   26.2172 H   0  0  0  0  0  0
  -28.3829  -32.6996   25.0374 H   0  0  0  0  0  0
  -28.0733  -31.8459   26.5428 H   0  0  0  0  0  0
  -28.2601  -38.0113   24.7484 H   0  0  0  0  0  0
  -28.1053  -36.2633   24.6283 H   0  0  0  0  0  0
  -27.2281  -37.1494   25.8857 H   0  0  0  0  0  0
  -20.9325  -29.8776   21.6939 H   0  0  0  0  0  0
  -26.0160  -38.2861   24.1397 H   0  0  0  0  0  0
  -30.3602  -20.4693   19.3347 H   0  0  0  0  0  0
  -27.3123  -17.2915   21.4415 H   0  0  0  0  0  0
  -26.0858  -18.3731   22.0442 H   0  0  0  0  0  0
  -27.5079  -18.0142   23.0320 H   0  0  0  0  0  0
  -26.6309  -20.3671   23.7550 H   0  0  0  0  0  0
  -25.4046  -20.5592   22.4950 H   0  0  0  0  0  0
  -26.2653  -21.9695   23.1304 H   0  0  0  0  0  0
  -30.0847  -18.0473   19.1637 H   0  0  0  0  0  0
  -28.5834  -17.3613   19.6745 H   0  0  0  0  0  0
  -29.0986  -23.2596   18.8741 H   0  0  0  0  0  0
  -30.6028  -22.9201   19.6509 H   0  0  0  0  0  0
  -30.2856  -25.0282   20.4726 H   0  0  0  0  0  0
  -29.6265  -24.1102   21.7777 H   0  0  0  0  0  0
  -29.9909  -17.3663   22.0781 H   0  0  0  0  0  0
  -31.3121  -17.2053   20.9715 H   0  0  0  0  0  0
  -27.6802  -25.2761   21.5884 H   0  0  0  0  0  0
  -27.4542  -24.6951   19.9667 H   0  0  0  0  0  0
  -29.0199  -15.2995   21.3384 H   0  0  0  0  0  0
  1 25  1  0  0  0
  1 30  2  0  0  0
  1 84  1  0  0  0
  2  3  1  0  0  0
  2 25  1  0  0  0
  2 85  1  0  0  0
  2 86  1  0  0  0
  3  4  1  0  0  0
  3 87  1  0  0  0
  3 88  1  0  0  0
  4  5  1  0  0  0
  4 89  1  0  0  0
  4 90  1  0  0  0
  5  6  1  0  0  0
  5 26  1  0  0  0
  5 91  1  0  0  0
  6 25  1  0  0  0
  6 92  1  0  0  0
  6 93  1  0  0  0
  7  8  2  0  0  0
  7 26  1  0  0  0
  7 29  1  0  0  0
  8  9  1  0  0  0
  8 22  1  0  0  0
  9 10  1  0  0  0
  9 27  2  0  0  0
 10 11  2  0  0  0
 10 15  1  0  0  0
 11 12  1  0  0  0
 11 94  1  0  0  0
 12 13  2  0  0  0
 12 95  1  0  0  0
 13 14  1  0  0  0
 13 31  1  0  0  0
 14 15  2  0  0  0
 14 96  1  0  0  0
 15 97  1  0  0  0
 16 17  2  0  0  0
 16 21  1  0  0  0
 16 31  1  0  0  0
 17 18  1  0  0  0
 17 98  1  0  0  0
 18 19  2  0  0  0
 18 99  1  0  0  0
 19 20  1  0  0  0
 19 24  1  0  0  0
 20 21  2  0  0  0
 20100  1  0  0  0
 21 23  1  0  0  0
 22 28  1  0  0  0
 22 32  2  0  0  0
 26 27  1  0  0  0
 28101  1  0  0  0
 28102  1  0  0  0
 29103  1  0  0  0
 29104  1  0  0  0
 33 34  1  0  0  0
 33 66  1  0  0  0
 33 70  2  0  0  0
 34 36  1  0  0  0
 34 59  1  0  0  0
 34105  1  0  0  0
 35 44  2  0  0  0
 35 45  1  0  0  0
 35 68  1  0  0  0
 36 56  1  0  0  0
 36106  1  0  0  0
 37 39  1  0  0  0
 37 47  1  0  0  0
 37 66  1  0  0  0
 37107  1  0  0  0
 38 43  2  0  0  0
 38 46  1  0  0  0
 38 47  1  0  0  0
 39 64  1  0  0  0
 39 67  2  0  0  0
 40 52  1  0  0  0
 40 53  2  0  0  0
 40 58  1  0  0  0
 41108  1  0  0  0
 41109  1  0  0  0
 41110  1  0  0  0
 41 48  1  0  0  0
 42 43  1  0  0  0
 42 66  1  0  0  0
 42111  1  0  0  0
 42112  1  0  0  0
 43 44  1  0  0  0
 44113  1  0  0  0
 45 46  2  0  0  0
 45114  1  0  0  0
 46115  1  0  0  0
 47116  1  0  0  0
 47117  1  0  0  0
 48 56  1  0  0  0
 48 65  1  0  0  0
 48118  1  0  0  0
 49 50  1  0  0  0
 49 53  1  0  0  0
 49 64  1  0  0  0
 49119  1  0  0  0
 50 51  1  0  0  0
 50120  1  0  0  0
 50121  1  0  0  0
 51 52  1  0  0  0
 51122  1  0  0  0
 51123  1  0  0  0
 52124  1  0  0  0
 52125  1  0  0  0
 53 54  1  0  0  0
 54 55  2  0  0  0
 54126  1  0  0  0
 55 57  1  0  0  0
 55127  1  0  0  0
 56 69  2  0  0  0
 57 58  2  0  0  0
 57128  1  0  0  0
 58129  1  0  0  0
 59 60  1  0  0  0
 59 61  1  0  0  0
 59 62  1  0  0  0
 60130  1  0  0  0
 60131  1  0  0  0
 60132  1  0  0  0
 61133  1  0  0  0
 61134  1  0  0  0
 61135  1  0  0  0
 62136  1  0  0  0
 62137  1  0  0  0
 62138  1  0  0  0
 63 65  1  0  0  0
 63139  1  0  0  0
 63140  1  0  0  0
 63141  1  0  0  0
 64142  1  0  0  0
 65143  1  0  0  0
 68 82  1  0  0  0
 71 72  2  0  0  0
 71 74  1  0  0  0
 71144  1  0  0  0
 72 73  1  0  0  0
 72 78  1  0  0  0
 73 75  2  0  0  0
 73 76  1  0  0  0
 74 79  1  0  0  0
 74 83  2  0  0  0
 75 77  1  0  0  0
 75 83  1  0  0  0
 76145  1  0  0  0
 76146  1  0  0  0
 76147  1  0  0  0
 77148  1  0  0  0
 77149  1  0  0  0
 77150  1  0  0  0
 78 81  1  0  0  0
 78151  1  0  0  0
 78152  1  0  0  0
 79 80  1  0  0  0
 79153  1  0  0  0
 79154  1  0  0  0
 80 82  1  0  0  0
 80155  1  0  0  0
 80156  1  0  0  0
 81 84  1  0  0  0
 81157  1  0  0  0
 81158  1  0  0  0
 82159  1  0  0  0
 82160  1  0  0  0
 84161  1  0  0  0
M  ISO  4   1 100  68 101  82 101  84 100
M  END
> <chiral flag>
0

> <version>
0

> <s_m_source_file>
/data/baiqing/PycharmProjects/Reinvent-master-3.2/result/LINK_invent/BTK/process_docking_weight1_custom_sum_contain_oxygen_bond_distance_aromatic_linkinvent_7_9_3/rearranged_h_0099.sdf

> <i_m_source_file_index>
83

> <r_mmod_Potential_Energy-OPLS-2005>
-203.65412902832

> <r_mmod_Stretch_Energy-OPLS-2005>
49.9352149963379

> <r_mmod_Bend_Energy-OPLS-2005>
105.598014831543

> <r_mmod_Torsional_Energy-OPLS-2005>
240.73454284668

> <r_mmod_Improper_Torsional_Energy-OPLS-2005>
4.91741943359375

> <r_mmod_Van_der_Waal_Energy-OPLS-2005>
150.155334472656

> <r_mmod_Electrostatic_Energy-OPLS-2005>
-556.924194335938

> <r_mmod_Solvation_Energy-OPLS-2005>
-221.238082885742

> <b_mmod_Minimization_Converged-OPLS-2005>
0

> <r_mmod_RMS_Derivative-OPLS-2005>
6.88144302368164

$$$$
83
                    3D
 Structure written by MMmdl.
168176  0  0  1  0            999 V2000
  -30.7243  -14.3862   20.6496 C   0  0  0  0  0  0
  -30.4309  -12.2870   19.3935 C   0  0  0  0  0  0
  -29.4993  -12.5164   18.1875 C   0  0  0  0  0  0
  -28.0181  -12.3814   18.6005 C   0  0  0  0  0  0
  -27.6691  -13.1985   19.8744 C   0  0  2  0  0  0
  -28.7052  -12.9189   20.9837 C   0  0  0  0  0  0
  -25.2617  -13.8116   20.5577 C   0  0  0  0  0  0
  -24.1883  -13.0409   20.9175 C   0  0  0  0  0  0
  -24.6428  -11.6883   20.8753 C   0  0  0  0  0  0
  -23.9089  -10.4279   21.0448 C   0  0  0  0  0  0
  -24.3626   -9.4172   21.9218 C   0  0  0  0  0  0
  -23.6280   -8.2213   22.0770 C   0  0  0  0  0  0
  -22.4259   -8.0278   21.3565 C   0  0  0  0  0  0
  -21.9913   -9.0261   20.4661 C   0  0  0  0  0  0
  -22.7267  -10.2130   20.3077 C   0  0  0  0  0  0
  -21.6829   -6.0721   22.5296 C   0  0  0  0  0  0
  -21.3997   -6.5631   23.8231 C   0  0  0  0  0  0
  -21.3668   -5.6793   24.9198 C   0  0  0  0  0  0
  -21.6057   -4.3056   24.7255 C   0  0  0  0  0  0
  -21.8814   -3.8138   23.4378 C   0  0  0  0  0  0
  -21.9181   -4.6950   22.3427 C   0  0  0  0  0  0
  -22.7919  -13.5238   21.1865 C   0  0  0  0  0  0
  -22.1656   -4.2132   21.1009 F   0  0  0  0  0  0
  -21.5640   -3.4548   25.7773 F   0  0  0  0  0  0
  -30.0457  -13.2297   20.4514 N   0  0  0  0  0  0
  -26.3061  -12.9282   20.3303 N   0  0  0  0  0  0
  -25.9347  -11.6451   20.5742 N   0  0  0  0  0  0
  -22.0508  -12.8267   22.0418 N   0  0  0  0  0  0
  -25.4315  -15.1809   20.3843 N   0  0  0  0  0  0
  -31.7808  -14.6671   20.0752 O   0  0  0  0  0  0
  -21.6611   -6.8882   21.4263 O   0  0  0  0  0  0
  -22.3630  -14.5562   20.6726 O   0  0  0  0  0  0
  -24.6132  -31.8697   23.2104 C   0  0  0  0  0  0
  -25.9050  -32.4823   23.8378 C   0  0  1  0  0  0
  -27.2450  -27.4776   20.0820 C   0  0  0  0  0  0
  -25.5933  -33.8625   24.2318 N   0  0  0  0  0  0
  -23.3975  -30.4897   21.5509 C   0  0  2  0  0  0
  -24.8460  -28.9575   20.1150 C   0  0  0  0  0  0
  -22.7393  -29.4668   22.5037 C   0  0  0  0  0  0
  -18.0271  -28.1368   22.8486 C   0  0  0  0  0  0
  -24.1498  -36.7306   23.2633 C   0  0  0  0  0  0
  -25.9204  -30.8460   21.3583 C   0  0  0  0  0  0
  -26.0014  -29.4813   20.7091 C   0  0  0  0  0  0
  -27.2010  -28.7417   20.7028 C   0  0  0  0  0  0
  -26.0750  -26.9511   19.4942 C   0  0  0  0  0  0
  -24.8747  -27.6873   19.5102 C   0  0  0  0  0  0
  -23.6007  -29.8147   20.1666 C   0  0  0  0  0  0
  -25.4128  -36.3120   24.0333 C   0  0  1  0  0  0
  -20.5853  -28.3641   23.1341 C   0  0  2  0  0  0
  -20.6783  -26.9386   22.5435 C   0  0  0  0  0  0
  -19.5765  -26.6381   21.5234 C   0  0  0  0  0  0
  -18.1922  -26.7933   22.1606 C   0  0  0  0  0  0
  -19.1518  -28.8825   23.2901 C   0  0  0  0  0  0
  -18.9447  -30.1433   23.8904 C   0  0  0  0  0  0
  -17.6444  -30.6563   24.0563 C   0  0  0  0  0  0
  -25.9056  -34.9487   23.5116 C   0  0  0  0  0  0
  -16.5331  -29.9073   23.6316 C   0  0  0  0  0  0
  -16.7259  -28.6491   23.0335 C   0  0  0  0  0  0
  -26.4484  -31.6597   25.0699 C   0  0  0  0  0  0
  -25.3760  -31.3718   26.1458 C   0  0  0  0  0  0
  -27.0302  -30.3044   24.6054 C   0  0  0  0  0  0
  -27.6043  -32.4350   25.7468 C   0  0  0  0  0  0
  -27.5592  -37.1804   24.8455 C   0  0  0  0  0  0
  -21.4122  -29.3019   22.3778 N   0  0  0  0  0  0
  -26.4312  -37.3808   23.9392 N   0  0  0  0  0  0
  -24.6611  -31.0810   22.0992 N   0  0  0  0  0  0
  -23.4183  -28.8248   23.3094 O   0  0  0  0  0  0
  -28.4078  -26.7553   20.0967 O   0  0  0  0  0  0
  -26.5600  -34.8922   22.4668 O   0  0  0  0  0  0
  -23.5333  -32.1456   23.7520 O   0  0  0  0  0  0
  -28.2579  -17.8225   21.4308 C   0  0  0  0  0  0
  -27.6847  -18.8695   20.6293 C   0  0  0  0  0  0
  -29.5761  -17.5815   21.1255 C   0  0  0  0  0  0
  -28.5768  -19.3815   19.7090 C   0  0  0  0  0  0
  -27.5199  -17.0682   22.5052 C   0  0  0  0  0  0
  -26.2660  -19.3382   20.8117 C   0  0  0  0  0  0
  -29.7492  -25.5884   16.7572 C   0  0  0  0  0  0
  -30.5150  -16.6060   21.7686 C   0  0  0  0  0  0
  -28.3970  -20.4785   18.6948 C   0  0  0  0  0  0
  -29.2748  -24.2227   18.8713 C   0  0  0  0  0  0
  -28.7710  -22.9010   18.2520 C   0  0  0  0  0  0
  -29.1620  -26.7720   18.8924 C   0  0  0  0  0  0
  -28.9331  -25.4945   18.0575 C   0  0  1  0  0  0
  -30.1275  -15.2303   21.4963 N   0  0  0  0  0  0
  -29.0177  -21.7410   19.1404 N   0  3  0  0  0  0
  -30.1204  -18.5792   19.8103 S   0  0  0  0  0  0
  -31.4738  -12.3992   19.0930 H   0  0  0  0  0  0
  -30.3369  -11.2665   19.7663 H   0  0  0  0  0  0
  -29.7390  -11.8060   17.3959 H   0  0  0  0  0  0
  -29.6783  -13.5074   17.7693 H   0  0  0  0  0  0
  -27.8185  -11.3238   18.7759 H   0  0  0  0  0  0
  -27.3712  -12.6763   17.7736 H   0  0  0  0  0  0
  -27.7327  -14.2559   19.6155 H   0  0  0  0  0  0
  -28.6732  -11.8650   21.2594 H   0  0  0  0  0  0
  -28.4525  -13.4560   21.8985 H   0  0  0  0  0  0
  -25.2763   -9.5623   22.4804 H   0  0  0  0  0  0
  -23.9970   -7.4589   22.7479 H   0  0  0  0  0  0
  -21.0833   -8.8808   19.8962 H   0  0  0  0  0  0
  -22.3753  -10.9679   19.6185 H   0  0  0  0  0  0
  -21.1971   -7.6132   23.9740 H   0  0  0  0  0  0
  -21.1508   -6.0519   25.9114 H   0  0  0  0  0  0
  -22.0584   -2.7587   23.2896 H   0  0  0  0  0  0
  -22.3983  -11.9851   22.4793 H   0  0  0  0  0  0
  -21.1158  -13.1400   22.2607 H   0  0  0  0  0  0
  -24.6672  -15.8391   20.4774 H   0  0  0  0  0  0
  -26.2813  -15.6046   20.0344 H   0  0  0  0  0  0
  -26.7145  -32.5538   23.1165 H   0  0  0  0  0  0
  -25.0116  -33.9786   25.0491 H   0  0  0  0  0  0
  -22.6830  -31.3043   21.4122 H   0  0  0  0  0  0
  -23.3768  -35.9630   23.3312 H   0  0  0  0  0  0
  -24.3552  -36.8905   22.2037 H   0  0  0  0  0  0
  -23.7257  -37.6524   23.6623 H   0  0  0  0  0  0
  -26.0246  -31.6125   20.5889 H   0  0  0  0  0  0
  -26.8111  -30.9014   21.9707 H   0  0  0  0  0  0
  -28.0930  -29.1375   21.1668 H   0  0  0  0  0  0
  -26.0870  -25.9731   19.0382 H   0  0  0  0  0  0
  -23.9865  -27.2724   19.0554 H   0  0  0  0  0  0
  -23.6915  -30.5822   19.3968 H   0  0  0  0  0  0
  -22.7268  -29.2213   19.8891 H   0  0  0  0  0  0
  -25.1324  -36.1984   25.0831 H   0  0  0  0  0  0
  -20.9921  -28.3204   24.1473 H   0  0  0  0  0  0
  -20.5754  -26.2225   23.3604 H   0  0  0  0  0  0
  -21.6657  -26.7479   22.1206 H   0  0  0  0  0  0
  -19.6936  -25.6319   21.1230 H   0  0  0  0  0  0
  -19.6737  -27.3213   20.6792 H   0  0  0  0  0  0
  -17.4238  -26.6711   21.3959 H   0  0  0  0  0  0
  -18.0238  -26.0066   22.8978 H   0  0  0  0  0  0
  -19.7913  -30.7248   24.2287 H   0  0  0  0  0  0
  -17.4984  -31.6245   24.5172 H   0  0  0  0  0  0
  -15.5337  -30.2964   23.7639 H   0  0  0  0  0  0
  -15.8657  -28.0815   22.7036 H   0  0  0  0  0  0
  -24.5891  -30.7114   25.7797 H   0  0  0  0  0  0
  -24.9016  -32.2901   26.4942 H   0  0  0  0  0  0
  -25.8126  -30.8851   27.0192 H   0  0  0  0  0  0
  -26.2824  -29.6811   24.1142 H   0  0  0  0  0  0
  -27.4126  -29.7269   25.4476 H   0  0  0  0  0  0
  -27.8631  -30.4349   23.9140 H   0  0  0  0  0  0
  -27.2608  -33.3621   26.2060 H   0  0  0  0  0  0
  -28.3828  -32.6978   25.0302 H   0  0  0  0  0  0
  -28.0733  -31.8501   26.5384 H   0  0  0  0  0  0
  -28.2636  -38.0081   24.7527 H   0  0  0  0  0  0
  -28.1079  -36.2624   24.6293 H   0  0  0  0  0  0
  -27.2267  -37.1459   25.8844 H   0  0  0  0  0  0
  -20.9286  -29.8701   21.6967 H   0  0  0  0  0  0
  -26.0210  -38.2895   24.1399 H   0  0  0  0  0  0
  -26.5899  -17.5504   22.8006 H   0  0  0  0  0  0
  -28.1258  -16.9711   23.4059 H   0  0  0  0  0  0
  -27.2680  -16.0594   22.1808 H   0  0  0  0  0  0
  -25.5721  -18.4968   20.8265 H   0  0  0  0  0  0
  -25.9241  -20.0087   20.0261 H   0  0  0  0  0  0
  -26.1491  -19.8680   21.7578 H   0  0  0  0  0  0
  -29.5334  -24.7665   16.0746 H   0  0  0  0  0  0
  -30.8202  -25.5843   16.9652 H   0  0  0  0  0  0
  -29.5312  -26.5133   16.2218 H   0  0  0  0  0  0
  -30.5118  -16.7533   22.8497 H   0  0  0  0  0  0
  -31.5407  -16.7998   21.4506 H   0  0  0  0  0  0
  -27.3404  -20.6469   18.4886 H   0  0  0  0  0  0
  -28.8426  -20.1758   17.7466 H   0  0  0  0  0  0
  -30.3520  -24.1766   19.0372 H   0  0  0  0  0  0
  -28.8229  -24.3109   19.8603 H   0  0  0  0  0  0
  -29.2477  -22.7242   17.2876 H   0  0  0  0  0  0
  -27.6991  -22.9786   18.0657 H   0  0  0  0  0  0
  -28.9419  -27.6680   18.3067 H   0  0  0  0  0  0
  -30.2161  -26.8417   19.1643 H   0  0  0  0  0  0
  -27.8792  -25.4596   17.7821 H   0  0  0  0  0  0
  -29.2725  -14.9025   21.9164 H   0  0  0  0  0  0
  -30.0092  -21.5897   19.2270 H   0  0  0  0  0  0
  -28.6599  -21.9460   20.0582 H   0  0  0  0  0  0
  1 25  1  0  0  0
  1 30  2  0  0  0
  1 84  1  0  0  0
  2  3  1  0  0  0
  2 25  1  0  0  0
  2 87  1  0  0  0
  2 88  1  0  0  0
  3  4  1  0  0  0
  3 89  1  0  0  0
  3 90  1  0  0  0
  4  5  1  0  0  0
  4 91  1  0  0  0
  4 92  1  0  0  0
  5  6  1  0  0  0
  5 26  1  0  0  0
  5 93  1  0  0  0
  6 25  1  0  0  0
  6 94  1  0  0  0
  6 95  1  0  0  0
  7  8  2  0  0  0
  7 26  1  0  0  0
  7 29  1  0  0  0
  8  9  1  0  0  0
  8 22  1  0  0  0
  9 10  1  0  0  0
  9 27  2  0  0  0
 10 11  2  0  0  0
 10 15  1  0  0  0
 11 12  1  0  0  0
 11 96  1  0  0  0
 12 13  2  0  0  0
 12 97  1  0  0  0
 13 14  1  0  0  0
 13 31  1  0  0  0
 14 15  2  0  0  0
 14 98  1  0  0  0
 15 99  1  0  0  0
 16 17  2  0  0  0
 16 21  1  0  0  0
 16 31  1  0  0  0
 17 18  1  0  0  0
 17100  1  0  0  0
 18 19  2  0  0  0
 18101  1  0  0  0
 19 20  1  0  0  0
 19 24  1  0  0  0
 20 21  2  0  0  0
 20102  1  0  0  0
 21 23  1  0  0  0
 22 28  1  0  0  0
 22 32  2  0  0  0
 26 27  1  0  0  0
 28103  1  0  0  0
 28104  1  0  0  0
 29105  1  0  0  0
 29106  1  0  0  0
 33 34  1  0  0  0
 33 66  1  0  0  0
 33 70  2  0  0  0
 34 36  1  0  0  0
 34 59  1  0  0  0
 34107  1  0  0  0
 35 44  2  0  0  0
 35 45  1  0  0  0
 35 68  1  0  0  0
 36 56  1  0  0  0
 36108  1  0  0  0
 37 39  1  0  0  0
 37 47  1  0  0  0
 37 66  1  0  0  0
 37109  1  0  0  0
 38 43  2  0  0  0
 38 46  1  0  0  0
 38 47  1  0  0  0
 39 64  1  0  0  0
 39 67  2  0  0  0
 40 52  1  0  0  0
 40 53  2  0  0  0
 40 58  1  0  0  0
 41110  1  0  0  0
 41111  1  0  0  0
 41112  1  0  0  0
 41 48  1  0  0  0
 42 43  1  0  0  0
 42 66  1  0  0  0
 42113  1  0  0  0
 42114  1  0  0  0
 43 44  1  0  0  0
 44115  1  0  0  0
 45 46  2  0  0  0
 45116  1  0  0  0
 46117  1  0  0  0
 47118  1  0  0  0
 47119  1  0  0  0
 48 56  1  0  0  0
 48 65  1  0  0  0
 48120  1  0  0  0
 49 50  1  0  0  0
 49 53  1  0  0  0
 49 64  1  0  0  0
 49121  1  0  0  0
 50 51  1  0  0  0
 50122  1  0  0  0
 50123  1  0  0  0
 51 52  1  0  0  0
 51124  1  0  0  0
 51125  1  0  0  0
 52126  1  0  0  0
 52127  1  0  0  0
 53 54  1  0  0  0
 54 55  2  0  0  0
 54128  1  0  0  0
 55 57  1  0  0  0
 55129  1  0  0  0
 56 69  2  0  0  0
 57 58  2  0  0  0
 57130  1  0  0  0
 58131  1  0  0  0
 59 60  1  0  0  0
 59 61  1  0  0  0
 59 62  1  0  0  0
 60132  1  0  0  0
 60133  1  0  0  0
 60134  1  0  0  0
 61135  1  0  0  0
 61136  1  0  0  0
 61137  1  0  0  0
 62138  1  0  0  0
 62139  1  0  0  0
 62140  1  0  0  0
 63 65  1  0  0  0
 63141  1  0  0  0
 63142  1  0  0  0
 63143  1  0  0  0
 64144  1  0  0  0
 65145  1  0  0  0
 68 82  1  0  0  0
 71 72  1  0  0  0
 71 73  2  0  0  0
 71 75  1  0  0  0
 72 74  2  0  0  0
 72 76  1  0  0  0
 73 78  1  0  0  0
 73 86  1  0  0  0
 74 79  1  0  0  0
 74 86  1  0  0  0
 75146  1  0  0  0
 75147  1  0  0  0
 75148  1  0  0  0
 76149  1  0  0  0
 76150  1  0  0  0
 76151  1  0  0  0
 77152  1  0  0  0
 77153  1  0  0  0
 77154  1  0  0  0
 77 83  1  0  0  0
 78 84  1  0  0  0
 78155  1  0  0  0
 78156  1  0  0  0
 79 85  1  0  0  0
 79157  1  0  0  0
 79158  1  0  0  0
 80 81  1  0  0  0
 80 83  1  0  0  0
 80159  1  0  0  0
 80160  1  0  0  0
 81 85  1  0  0  0
 81161  1  0  0  0
 81162  1  0  0  0
 82 83  1  0  0  0
 82163  1  0  0  0
 82164  1  0  0  0
 83165  1  0  0  0
 84166  1  0  0  0
 85167  1  0  0  0
 85168  1  0  0  0
M  CHG  1  85   1
M  ISO  4   1 100  68 101  82 101  84 100
M  END
> <chiral flag>
0

> <version>
0

> <s_m_source_file>
/data/baiqing/PycharmProjects/Reinvent-master-3.2/result/LINK_invent/BTK/process_docking_weight1_custom_sum_contain_oxygen_bond_distance_aromatic_linkinvent_7_9_3/rearranged_h_0099.sdf

> <i_m_source_file_index>
84

> <r_mmod_Potential_Energy-OPLS-2005>
-324.587249755859

> <r_mmod_Stretch_Energy-OPLS-2005>
30.9488563537598

> <r_mmod_Bend_Energy-OPLS-2005>
95.2145614624023

> <r_mmod_Torsional_Energy-OPLS-2005>
215.143142700195

> <r_mmod_Improper_Torsional_Energy-OPLS-2005>
2.22775793075562

> <r_mmod_Van_der_Waal_Energy-OPLS-2005>
119.229797363281

> <r_mmod_Electrostatic_Energy-OPLS-2005>
-355.4833984375

> <r_mmod_Solvation_Energy-OPLS-2005>
-439.298553466797

> <b_mmod_Minimization_Converged-OPLS-2005>
0

> <r_mmod_RMS_Derivative-OPLS-2005>
3.10160684585571

$$$$
84
                    3D
 Structure written by MMmdl.
163171  0  0  1  0            999 V2000
  -30.6644  -14.7048   20.4681 C   0  0  0  0  0  0
  -30.4215  -12.4315   19.4775 C   0  0  0  0  0  0
  -29.5072  -12.5126   18.2365 C   0  0  0  0  0  0
  -28.0310  -12.3491   18.6463 C   0  0  0  0  0  0
  -27.6441  -13.2389   19.8590 C   0  0  2  0  0  0
  -28.6916  -13.1723   20.9933 C   0  0  0  0  0  0
  -25.2518  -13.8210   20.5725 C   0  0  0  0  0  0
  -24.1809  -13.0451   20.9226 C   0  0  0  0  0  0
  -24.6406  -11.6929   20.8748 C   0  0  0  0  0  0
  -23.9077  -10.4300   21.0391 C   0  0  0  0  0  0
  -24.3624   -9.4218   21.9170 C   0  0  0  0  0  0
  -23.6303   -8.2251   22.0746 C   0  0  0  0  0  0
  -22.4281   -8.0289   21.3547 C   0  0  0  0  0  0
  -21.9922   -9.0260   20.4647 C   0  0  0  0  0  0
  -22.7242  -10.2143   20.3051 C   0  0  0  0  0  0
  -21.6859   -6.0739   22.5269 C   0  0  0  0  0  0
  -21.4019   -6.5642   23.8202 C   0  0  0  0  0  0
  -21.3669   -5.6795   24.9168 C   0  0  0  0  0  0
  -21.6042   -4.3057   24.7213 C   0  0  0  0  0  0
  -21.8818   -3.8150   23.4333 C   0  0  0  0  0  0
  -21.9200   -4.6968   22.3393 C   0  0  0  0  0  0
  -22.7829  -13.5237   21.1870 C   0  0  0  0  0  0
  -22.1665   -4.2157   21.0966 F   0  0  0  0  0  0
  -21.5640   -3.4539   25.7727 F   0  0  0  0  0  0
  -29.9953  -13.5038   20.4059 N   0  0  0  0  0  0
  -26.2962  -12.9435   20.3348 N   0  0  0  0  0  0
  -25.9349  -11.6565   20.5770 N   0  0  0  0  0  0
  -22.0478  -12.8217   22.0419 N   0  0  0  0  0  0
  -25.4188  -15.1929   20.4120 N   0  0  0  0  0  0
  -31.8539  -14.7576   20.1483 O   0  0  0  0  0  0
  -21.6652   -6.8879   21.4231 O   0  0  0  0  0  0
  -22.3496  -14.5534   20.6713 O   0  0  0  0  0  0
  -24.6310  -31.8553   23.1969 C   0  0  0  0  0  0
  -25.9141  -32.4745   23.8328 C   0  0  1  0  0  0
  -27.2299  -27.2769   20.1073 C   0  0  0  0  0  0
  -25.5935  -33.8542   24.2261 N   0  0  0  0  0  0
  -23.4268  -30.4737   21.5428 C   0  0  2  0  0  0
  -24.8712  -28.9198   20.1087 C   0  0  0  0  0  0
  -22.7510  -29.4584   22.4956 C   0  0  0  0  0  0
  -18.0297  -28.1369   22.8491 C   0  0  0  0  0  0
  -24.1476  -36.7269   23.2647 C   0  0  0  0  0  0
  -25.9698  -30.7675   21.3756 C   0  0  0  0  0  0
  -26.0403  -29.3916   20.7159 C   0  0  0  0  0  0
  -27.2165  -28.5801   20.7076 C   0  0  0  0  0  0
  -26.0298  -26.8582   19.4895 C   0  0  0  0  0  0
  -24.8698  -27.6607   19.4879 C   0  0  0  0  0  0
  -23.6404  -29.8028   20.1601 C   0  0  0  0  0  0
  -25.4107  -36.3069   24.0339 C   0  0  1  0  0  0
  -20.5893  -28.3684   23.1278 C   0  0  2  0  0  0
  -20.6771  -26.9405   22.5411 C   0  0  0  0  0  0
  -19.5746  -26.6372   21.5211 C   0  0  0  0  0  0
  -18.1931  -26.7911   22.1624 C   0  0  0  0  0  0
  -19.1546  -28.8850   23.2866 C   0  0  0  0  0  0
  -18.9465  -30.1449   23.8886 C   0  0  0  0  0  0
  -17.6461  -30.6575   24.0555 C   0  0  0  0  0  0
  -25.9056  -34.9434   23.5105 C   0  0  0  0  0  0
  -16.5356  -29.9067   23.6326 C   0  0  0  0  0  0
  -16.7283  -28.6474   23.0371 C   0  0  0  0  0  0
  -26.4502  -31.6582   25.0733 C   0  0  0  0  0  0
  -25.3716  -31.3736   26.1454 C   0  0  0  0  0  0
  -27.0374  -30.3005   24.6227 C   0  0  0  0  0  0
  -27.6061  -32.4332   25.7503 C   0  0  0  0  0  0
  -27.5568  -37.1795   24.8475 C   0  0  0  0  0  0
  -21.4222  -29.3024   22.3684 N   0  0  0  0  0  0
  -26.4288  -37.3767   23.9415 N   0  0  0  0  0  0
  -24.6948  -31.0510   22.0945 N   0  0  0  0  0  0
  -23.4212  -28.8146   23.3076 O   0  0  0  0  0  0
  -28.3632  -26.4375   20.1845 O   0  0  0  0  0  0
  -26.5632  -34.8921   22.4680 O   0  0  0  0  0  0
  -23.5463  -32.1389   23.7262 O   0  0  0  0  0  0
  -29.9178  -19.7422   19.6948 C   0  0  0  0  0  0
  -28.6853  -20.4969   21.3417 C   0  0  0  0  0  0
  -29.2370  -20.9412   20.1679 C   0  0  0  0  0  0
  -29.8057  -18.6511   20.5533 C   0  0  0  0  0  0
  -30.4187  -22.6323   18.6607 C   0  0  0  0  0  0
  -29.7298  -17.9163   23.6625 C   0  0  0  0  0  0
  -27.4916  -17.4232   22.5102 C   0  0  0  0  0  0
  -30.5754  -17.2672   20.5063 C   0  0  0  0  0  0
  -28.7195  -23.7128   20.3041 C   0  0  0  0  0  0
  -28.4995  -25.1103   19.5060 C   0  0  0  0  0  0
  -29.1327  -22.3780   19.4737 C   0  0  2  0  0  0
  -28.5736  -18.4676   22.8146 C   0  0  0  0  0  0
  -29.0189  -19.1544   21.6010 N   0  0  0  0  0  0
  -29.9664  -15.8820   20.6668 N   0  0  0  0  0  0
  -31.4670  -12.5234   19.1792 H   0  0  0  0  0  0
  -30.3350  -11.4548   19.9574 H   0  0  0  0  0  0
  -29.7815  -11.7474   17.5101 H   0  0  0  0  0  0
  -29.6472  -13.4729   17.7395 H   0  0  0  0  0  0
  -27.8715  -11.2982   18.8902 H   0  0  0  0  0  0
  -27.3793  -12.5677   17.7990 H   0  0  0  0  0  0
  -27.6401  -14.2640   19.4892 H   0  0  0  0  0  0
  -28.7165  -12.1777   21.4426 H   0  0  0  0  0  0
  -28.4380  -13.8649   21.7972 H   0  0  0  0  0  0
  -25.2759   -9.5716   22.4753 H   0  0  0  0  0  0
  -24.0026   -7.4645   22.7466 H   0  0  0  0  0  0
  -21.0856   -8.8768   19.8950 H   0  0  0  0  0  0
  -22.3676  -10.9688   19.6177 H   0  0  0  0  0  0
  -21.1998   -7.6150   23.9708 H   0  0  0  0  0  0
  -21.1501   -6.0523   25.9072 H   0  0  0  0  0  0
  -22.0589   -2.7615   23.2820 H   0  0  0  0  0  0
  -22.4114  -11.9901   22.4823 H   0  0  0  0  0  0
  -21.1094  -13.1231   22.2619 H   0  0  0  0  0  0
  -24.6488  -15.8428   20.5219 H   0  0  0  0  0  0
  -26.2617  -15.6348   20.0702 H   0  0  0  0  0  0
  -26.7216  -32.5385   23.1078 H   0  0  0  0  0  0
  -25.0083  -33.9673   25.0412 H   0  0  0  0  0  0
  -22.7227  -31.2940   21.3966 H   0  0  0  0  0  0
  -23.3740  -35.9598   23.3327 H   0  0  0  0  0  0
  -24.3563  -36.8866   22.2055 H   0  0  0  0  0  0
  -23.7221  -37.6472   23.6658 H   0  0  0  0  0  0
  -26.1127  -31.5276   20.6058 H   0  0  0  0  0  0
  -26.8455  -30.8118   22.0117 H   0  0  0  0  0  0
  -28.1112  -28.9394   21.1957 H   0  0  0  0  0  0
  -25.9413  -25.8865   19.0302 H   0  0  0  0  0  0
  -23.9710  -27.2908   19.0147 H   0  0  0  0  0  0
  -23.7594  -30.5743   19.3986 H   0  0  0  0  0  0
  -22.7605  -29.2287   19.8638 H   0  0  0  0  0  0
  -25.1284  -36.1922   25.0832 H   0  0  0  0  0  0
  -20.9966  -28.3236   24.1404 H   0  0  0  0  0  0
  -20.5644  -26.2303   23.3617 H   0  0  0  0  0  0
  -21.6643  -26.7410   22.1220 H   0  0  0  0  0  0
  -19.6904  -25.6281   21.1243 H   0  0  0  0  0  0
  -19.6668  -27.3179   20.6735 H   0  0  0  0  0  0
  -17.4203  -26.6680   21.4019 H   0  0  0  0  0  0
  -18.0316  -26.0047   22.9009 H   0  0  0  0  0  0
  -19.7945  -30.7262   24.2252 H   0  0  0  0  0  0
  -17.5022  -31.6257   24.5150 H   0  0  0  0  0  0
  -15.5354  -30.2963   23.7650 H   0  0  0  0  0  0
  -15.8689  -28.0769   22.7121 H   0  0  0  0  0  0
  -24.5891  -30.7091   25.7775 H   0  0  0  0  0  0
  -24.8908  -32.2905   26.4869 H   0  0  0  0  0  0
  -25.8018  -30.8914   27.0241 H   0  0  0  0  0  0
  -26.2984  -29.6739   24.1223 H   0  0  0  0  0  0
  -27.4042  -29.7277   25.4752 H   0  0  0  0  0  0
  -27.8854  -30.4304   23.9503 H   0  0  0  0  0  0
  -27.2679  -33.3642   26.2070 H   0  0  0  0  0  0
  -28.3868  -32.6875   25.0322 H   0  0  0  0  0  0
  -28.0746  -31.8472   26.5421 H   0  0  0  0  0  0
  -28.2611  -38.0067   24.7501 H   0  0  0  0  0  0
  -28.1040  -36.2598   24.6328 H   0  0  0  0  0  0
  -27.2296  -37.1484   25.8884 H   0  0  0  0  0  0
  -20.9444  -29.8734   21.6855 H   0  0  0  0  0  0
  -26.0160  -38.2851   24.1385 H   0  0  0  0  0  0
  -30.5017  -19.6876   18.7866 H   0  0  0  0  0  0
  -28.0784  -21.0454   22.0509 H   0  0  0  0  0  0
  -31.2887  -22.7316   19.3102 H   0  0  0  0  0  0
  -30.3566  -23.5302   18.0488 H   0  0  0  0  0  0
  -30.6146  -21.8200   17.9613 H   0  0  0  0  0  0
  -29.3636  -17.6294   24.6484 H   0  0  0  0  0  0
  -30.5068  -18.6680   23.8112 H   0  0  0  0  0  0
  -30.1908  -17.0325   23.2251 H   0  0  0  0  0  0
  -27.0985  -16.9862   23.4285 H   0  0  0  0  0  0
  -27.8602  -16.6069   21.8967 H   0  0  0  0  0  0
  -26.6568  -17.8773   21.9770 H   0  0  0  0  0  0
  -31.3831  -17.3267   21.2370 H   0  0  0  0  0  0
  -31.1015  -17.2406   19.5504 H   0  0  0  0  0  0
  -27.7943  -23.5026   20.8400 H   0  0  0  0  0  0
  -29.4735  -23.8782   21.0731 H   0  0  0  0  0  0
  -27.7468  -24.9535   18.7386 H   0  0  0  0  0  0
  -29.4049  -25.2701   18.9235 H   0  0  0  0  0  0
  -28.3392  -22.2427   18.7379 H   0  0  0  0  0  0
  -28.0939  -19.2223   23.4405 H   0  0  0  0  0  0
  -28.9817  -15.8226   20.8687 H   0  0  0  0  0  0
  1 25  1  0  0  0
  1 30  2  0  0  0
  1 84  1  0  0  0
  2  3  1  0  0  0
  2 25  1  0  0  0
  2 85  1  0  0  0
  2 86  1  0  0  0
  3  4  1  0  0  0
  3 87  1  0  0  0
  3 88  1  0  0  0
  4  5  1  0  0  0
  4 89  1  0  0  0
  4 90  1  0  0  0
  5  6  1  0  0  0
  5 26  1  0  0  0
  5 91  1  0  0  0
  6 25  1  0  0  0
  6 92  1  0  0  0
  6 93  1  0  0  0
  7  8  2  0  0  0
  7 26  1  0  0  0
  7 29  1  0  0  0
  8  9  1  0  0  0
  8 22  1  0  0  0
  9 10  1  0  0  0
  9 27  2  0  0  0
 10 11  2  0  0  0
 10 15  1  0  0  0
 11 12  1  0  0  0
 11 94  1  0  0  0
 12 13  2  0  0  0
 12 95  1  0  0  0
 13 14  1  0  0  0
 13 31  1  0  0  0
 14 15  2  0  0  0
 14 96  1  0  0  0
 15 97  1  0  0  0
 16 17  2  0  0  0
 16 21  1  0  0  0
 16 31  1  0  0  0
 17 18  1  0  0  0
 17 98  1  0  0  0
 18 19  2  0  0  0
 18 99  1  0  0  0
 19 20  1  0  0  0
 19 24  1  0  0  0
 20 21  2  0  0  0
 20100  1  0  0  0
 21 23  1  0  0  0
 22 28  1  0  0  0
 22 32  2  0  0  0
 26 27  1  0  0  0
 28101  1  0  0  0
 28102  1  0  0  0
 29103  1  0  0  0
 29104  1  0  0  0
 33 34  1  0  0  0
 33 66  1  0  0  0
 33 70  2  0  0  0
 34 36  1  0  0  0
 34 59  1  0  0  0
 34105  1  0  0  0
 35 44  2  0  0  0
 35 45  1  0  0  0
 35 68  1  0  0  0
 36 56  1  0  0  0
 36106  1  0  0  0
 37 39  1  0  0  0
 37 47  1  0  0  0
 37 66  1  0  0  0
 37107  1  0  0  0
 38 43  2  0  0  0
 38 46  1  0  0  0
 38 47  1  0  0  0
 39 64  1  0  0  0
 39 67  2  0  0  0
 40 52  1  0  0  0
 40 53  2  0  0  0
 40 58  1  0  0  0
 41108  1  0  0  0
 41109  1  0  0  0
 41110  1  0  0  0
 41 48  1  0  0  0
 42 43  1  0  0  0
 42 66  1  0  0  0
 42111  1  0  0  0
 42112  1  0  0  0
 43 44  1  0  0  0
 44113  1  0  0  0
 45 46  2  0  0  0
 45114  1  0  0  0
 46115  1  0  0  0
 47116  1  0  0  0
 47117  1  0  0  0
 48 56  1  0  0  0
 48 65  1  0  0  0
 48118  1  0  0  0
 49 50  1  0  0  0
 49 53  1  0  0  0
 49 64  1  0  0  0
 49119  1  0  0  0
 50 51  1  0  0  0
 50120  1  0  0  0
 50121  1  0  0  0
 51 52  1  0  0  0
 51122  1  0  0  0
 51123  1  0  0  0
 52124  1  0  0  0
 52125  1  0  0  0
 53 54  1  0  0  0
 54 55  2  0  0  0
 54126  1  0  0  0
 55 57  1  0  0  0
 55127  1  0  0  0
 56 69  2  0  0  0
 57 58  2  0  0  0
 57128  1  0  0  0
 58129  1  0  0  0
 59 60  1  0  0  0
 59 61  1  0  0  0
 59 62  1  0  0  0
 60130  1  0  0  0
 60131  1  0  0  0
 60132  1  0  0  0
 61133  1  0  0  0
 61134  1  0  0  0
 61135  1  0  0  0
 62136  1  0  0  0
 62137  1  0  0  0
 62138  1  0  0  0
 63 65  1  0  0  0
 63139  1  0  0  0
 63140  1  0  0  0
 63141  1  0  0  0
 64142  1  0  0  0
 65143  1  0  0  0
 68 80  1  0  0  0
 71 73  1  0  0  0
 71 74  2  0  0  0
 71144  1  0  0  0
 72 73  2  0  0  0
 72 83  1  0  0  0
 72145  1  0  0  0
 73 81  1  0  0  0
 74 78  1  0  0  0
 74 83  1  0  0  0
 75146  1  0  0  0
 75147  1  0  0  0
 75148  1  0  0  0
 75 81  1  0  0  0
 76149  1  0  0  0
 76150  1  0  0  0
 76151  1  0  0  0
 76 82  1  0  0  0
 77 82  1  0  0  0
 77152  1  0  0  0
 77153  1  0  0  0
 77154  1  0  0  0
 78 84  1  0  0  0
 78155  1  0  0  0
 78156  1  0  0  0
 79 80  1  0  0  0
 79 81  1  0  0  0
 79157  1  0  0  0
 79158  1  0  0  0
 80159  1  0  0  0
 80160  1  0  0  0
 81161  1  0  0  0
 82 83  1  0  0  0
 82162  1  0  0  0
 84163  1  0  0  0
M  ISO  4   1 100  68 101  80 101  84 100
M  END
> <chiral flag>
0

> <version>
0

> <s_m_source_file>
/data/baiqing/PycharmProjects/Reinvent-master-3.2/result/LINK_invent/BTK/process_docking_weight1_custom_sum_contain_oxygen_bond_distance_aromatic_linkinvent_7_9_3/rearranged_h_0099.sdf

> <i_m_source_file_index>
85

> <r_mmod_Potential_Energy-OPLS-2005>
81.3393707275391

> <r_mmod_Stretch_Energy-OPLS-2005>
113.707992553711

> <r_mmod_Bend_Energy-OPLS-2005>
197.756958007812

> <r_mmod_Torsional_Energy-OPLS-2005>
229.927261352539

> <r_mmod_Improper_Torsional_Energy-OPLS-2005>
5.88091325759888

> <r_mmod_Van_der_Waal_Energy-OPLS-2005>
114.601669311523

> <r_mmod_Electrostatic_Energy-OPLS-2005>
-451.160278320312

> <r_mmod_Solvation_Energy-OPLS-2005>
-200.261947631836

> <b_mmod_Minimization_Converged-OPLS-2005>
0

> <r_mmod_RMS_Derivative-OPLS-2005>
2.27315998077393

$$$$
85
                    3D
 Structure written by MMmdl.
168176  0  0  1  0            999 V2000
  -30.7395  -14.3809   20.6171 C   0  0  0  0  0  0
  -30.4173  -12.2646   19.4133 C   0  0  0  0  0  0
  -29.4926  -12.5146   18.2064 C   0  0  0  0  0  0
  -28.0116  -12.3844   18.6121 C   0  0  0  0  0  0
  -27.6701  -13.1991   19.8879 C   0  0  2  0  0  0
  -28.7083  -12.9357   21.0056 C   0  0  0  0  0  0
  -25.2633  -13.8169   20.5678 C   0  0  0  0  0  0
  -24.1858  -13.0463   20.9161 C   0  0  0  0  0  0
  -24.6390  -11.6923   20.8723 C   0  0  0  0  0  0
  -23.9042  -10.4316   21.0394 C   0  0  0  0  0  0
  -24.3597   -9.4241   21.9172 C   0  0  0  0  0  0
  -23.6285   -8.2270   22.0745 C   0  0  0  0  0  0
  -22.4271   -8.0283   21.3543 C   0  0  0  0  0  0
  -21.9904   -9.0257   20.4643 C   0  0  0  0  0  0
  -22.7218  -10.2145   20.3052 C   0  0  0  0  0  0
  -21.6863   -6.0722   22.5273 C   0  0  0  0  0  0
  -21.4010   -6.5629   23.8202 C   0  0  0  0  0  0
  -21.3666   -5.6784   24.9175 C   0  0  0  0  0  0
  -21.6061   -4.3051   24.7219 C   0  0  0  0  0  0
  -21.8821   -3.8130   23.4341 C   0  0  0  0  0  0
  -21.9198   -4.6952   22.3395 C   0  0  0  0  0  0
  -22.7879  -13.5264   21.1830 C   0  0  0  0  0  0
  -22.1662   -4.2130   21.0977 F   0  0  0  0  0  0
  -21.5647   -3.4547   25.7741 F   0  0  0  0  0  0
  -30.0521  -13.2203   20.4682 N   0  0  0  0  0  0
  -26.3067  -12.9311   20.3404 N   0  0  0  0  0  0
  -25.9321  -11.6483   20.5775 N   0  0  0  0  0  0
  -22.0515  -12.8260   22.0388 N   0  0  0  0  0  0
  -25.4415  -15.1877   20.4074 N   0  0  0  0  0  0
  -31.8110  -14.6113   20.0511 O   0  0  0  0  0  0
  -21.6641   -6.8874   21.4236 O   0  0  0  0  0  0
  -22.3570  -14.5577   20.6681 O   0  0  0  0  0  0
  -24.6119  -31.8694   23.2123 C   0  0  0  0  0  0
  -25.9030  -32.4822   23.8396 C   0  0  1  0  0  0
  -27.2358  -27.4586   20.0766 C   0  0  0  0  0  0
  -25.5891  -33.8624   24.2320 N   0  0  0  0  0  0
  -23.3968  -30.4956   21.5519 C   0  0  2  0  0  0
  -24.8402  -28.9619   20.1150 C   0  0  0  0  0  0
  -22.7382  -29.4678   22.4992 C   0  0  0  0  0  0
  -18.0269  -28.1379   22.8490 C   0  0  0  0  0  0
  -24.1483  -36.7322   23.2638 C   0  0  0  0  0  0
  -25.9239  -30.8383   21.3633 C   0  0  0  0  0  0
  -25.9985  -29.4750   20.7101 C   0  0  0  0  0  0
  -27.1944  -28.7278   20.6921 C   0  0  0  0  0  0
  -26.0565  -26.9528   19.4774 C   0  0  0  0  0  0
  -24.8622  -27.6976   19.5017 C   0  0  0  0  0  0
  -23.6038  -29.8297   20.1652 C   0  0  0  0  0  0
  -25.4105  -36.3110   24.0330 C   0  0  1  0  0  0
  -20.5854  -28.3664   23.1321 C   0  0  2  0  0  0
  -20.6761  -26.9403   22.5419 C   0  0  0  0  0  0
  -19.5745  -26.6391   21.5208 C   0  0  0  0  0  0
  -18.1919  -26.7930   22.1614 C   0  0  0  0  0  0
  -19.1515  -28.8834   23.2908 C   0  0  0  0  0  0
  -18.9449  -30.1442   23.8918 C   0  0  0  0  0  0
  -17.6453  -30.6586   24.0567 C   0  0  0  0  0  0
  -25.9030  -34.9473   23.5123 C   0  0  0  0  0  0
  -16.5345  -29.9093   23.6321 C   0  0  0  0  0  0
  -16.7259  -28.6509   23.0341 C   0  0  0  0  0  0
  -26.4475  -31.6602   25.0718 C   0  0  0  0  0  0
  -25.3757  -31.3707   26.1478 C   0  0  0  0  0  0
  -27.0298  -30.3041   24.6085 C   0  0  0  0  0  0
  -27.6044  -32.4330   25.7484 C   0  0  0  0  0  0
  -27.5577  -37.1812   24.8461 C   0  0  0  0  0  0
  -21.4115  -29.3038   22.3728 N   0  0  0  0  0  0
  -26.4290  -37.3794   23.9405 N   0  0  0  0  0  0
  -24.6622  -31.0817   22.1009 N   0  0  0  0  0  0
  -23.4167  -28.8217   23.3024 O   0  0  0  0  0  0
  -28.4366  -26.7835   20.0856 O   0  0  0  0  0  0
  -26.5599  -34.8928   22.4685 O   0  0  0  0  0  0
  -23.5323  -32.1445   23.7535 O   0  0  0  0  0  0
  -29.8130  -20.8673   17.8913 C   0  0  0  0  0  0
  -29.1460  -19.7831   19.9615 C   0  0  0  0  0  0
  -29.3467  -20.9629   19.2178 C   0  0  0  0  0  0
  -30.1047  -19.6155   17.3146 C   0  0  0  0  0  0
  -29.4170  -18.5209   19.3948 C   0  0  0  0  0  0
  -29.9285  -18.4299   18.0729 C   0  0  0  0  0  0
  -30.5774  -19.5766   15.8700 C   0  0  0  0  0  0
  -30.2640  -17.0672   17.4712 C   0  0  0  0  0  0
  -29.7170  -24.7191   21.7680 C   0  0  0  0  0  0
  -28.9985  -22.3139   19.8285 C   0  0  0  0  0  0
  -29.1001  -17.2717   20.2062 C   0  0  0  0  0  0
  -30.0695  -23.4022   19.6024 C   0  0  0  0  0  0
  -30.2782  -16.7639   21.0564 C   0  0  0  0  0  0
  -28.4764  -25.4238   19.6600 C   0  0  0  0  0  0
  -29.7537  -24.7765   20.2312 C   0  0  1  0  0  0
  -30.1017  -15.3332   21.3091 N   0  0  0  0  0  0
  -31.4625  -12.3543   19.1115 H   0  0  0  0  0  0
  -30.3005  -11.2437   19.7773 H   0  0  0  0  0  0
  -29.7210  -11.8103   17.4048 H   0  0  0  0  0  0
  -29.6754  -13.5122   17.8059 H   0  0  0  0  0  0
  -27.7999  -11.3271   18.7747 H   0  0  0  0  0  0
  -27.3680  -12.6985   17.7897 H   0  0  0  0  0  0
  -27.7266  -14.2535   19.6196 H   0  0  0  0  0  0
  -28.6671  -11.8913   21.3191 H   0  0  0  0  0  0
  -28.4727  -13.5112   21.9019 H   0  0  0  0  0  0
  -25.2750   -9.5727   22.4732 H   0  0  0  0  0  0
  -24.0013   -7.4669   22.7462 H   0  0  0  0  0  0
  -21.0837   -8.8756   19.8949 H   0  0  0  0  0  0
  -22.3656  -10.9673   19.6155 H   0  0  0  0  0  0
  -21.1974   -7.6132   23.9693 H   0  0  0  0  0  0
  -21.1504   -6.0520   25.9077 H   0  0  0  0  0  0
  -22.0586   -2.7590   23.2844 H   0  0  0  0  0  0
  -22.4113  -11.9911   22.4770 H   0  0  0  0  0  0
  -21.1130  -13.1302   22.2580 H   0  0  0  0  0  0
  -24.6840  -15.8535   20.5171 H   0  0  0  0  0  0
  -26.3014  -15.6178   20.0919 H   0  0  0  0  0  0
  -26.7096  -32.5533   23.1154 H   0  0  0  0  0  0
  -25.0033  -33.9792   25.0458 H   0  0  0  0  0  0
  -22.6847  -31.3121   21.4147 H   0  0  0  0  0  0
  -23.3734  -35.9666   23.3311 H   0  0  0  0  0  0
  -24.3574  -36.8933   22.2050 H   0  0  0  0  0  0
  -23.7252  -37.6534   23.6655 H   0  0  0  0  0  0
  -26.0356  -31.6053   20.5957 H   0  0  0  0  0  0
  -26.8123  -30.8895   21.9809 H   0  0  0  0  0  0
  -28.0912  -29.1223   21.1495 H   0  0  0  0  0  0
  -26.0387  -25.9959   18.9765 H   0  0  0  0  0  0
  -23.9706  -27.2976   19.0386 H   0  0  0  0  0  0
  -23.7170  -30.6065   19.4078 H   0  0  0  0  0  0
  -22.7260  -29.2547   19.8654 H   0  0  0  0  0  0
  -25.1286  -36.1969   25.0824 H   0  0  0  0  0  0
  -20.9951  -28.3232   24.1438 H   0  0  0  0  0  0
  -20.5659  -26.2272   23.3604 H   0  0  0  0  0  0
  -21.6635  -26.7452   22.1214 H   0  0  0  0  0  0
  -19.6910  -25.6303   21.1230 H   0  0  0  0  0  0
  -19.6691  -27.3207   20.6743 H   0  0  0  0  0  0
  -17.4195  -26.6682   21.4011 H   0  0  0  0  0  0
  -18.0320  -26.0063   22.9002 H   0  0  0  0  0  0
  -19.7926  -30.7251   24.2296 H   0  0  0  0  0  0
  -17.5013  -31.6270   24.5163 H   0  0  0  0  0  0
  -15.5349  -30.3008   23.7633 H   0  0  0  0  0  0
  -15.8657  -28.0843   22.7042 H   0  0  0  0  0  0
  -24.5918  -30.7062   25.7830 H   0  0  0  0  0  0
  -24.8966  -32.2866   26.4949 H   0  0  0  0  0  0
  -25.8128  -30.8867   27.0220 H   0  0  0  0  0  0
  -26.2827  -29.6802   24.1160 H   0  0  0  0  0  0
  -27.4093  -29.7280   25.4536 H   0  0  0  0  0  0
  -27.8658  -30.4356   23.9207 H   0  0  0  0  0  0
  -27.2644  -33.3616   26.2086 H   0  0  0  0  0  0
  -28.3844  -32.6917   25.0309 H   0  0  0  0  0  0
  -28.0723  -31.8443   26.5386 H   0  0  0  0  0  0
  -28.2602  -38.0104   24.7498 H   0  0  0  0  0  0
  -28.1066  -36.2634   24.6295 H   0  0  0  0  0  0
  -27.2296  -37.1473   25.8866 H   0  0  0  0  0  0
  -20.9260  -29.8767   21.6966 H   0  0  0  0  0  0
  -26.0177  -38.2871   24.1408 H   0  0  0  0  0  0
  -29.9399  -21.7627   17.2998 H   0  0  0  0  0  0
  -28.7562  -19.8419   20.9689 H   0  0  0  0  0  0
  -30.5298  -20.5612   15.4033 H   0  0  0  0  0  0
  -29.9498  -18.9064   15.2811 H   0  0  0  0  0  0
  -31.6098  -19.2330   15.8066 H   0  0  0  0  0  0
  -30.9099  -17.1241   16.5973 H   0  0  0  0  0  0
  -29.3513  -16.5472   17.1803 H   0  0  0  0  0  0
  -30.7958  -16.4467   18.1907 H   0  0  0  0  0  0
  -30.6063  -24.2316   22.1680 H   0  0  0  0  0  0
  -28.8432  -24.1776   22.1320 H   0  0  0  0  0  0
  -29.6764  -25.7225   22.1923 H   0  0  0  0  0  0
  -28.8375  -22.1816   20.8994 H   0  0  0  0  0  0
  -28.0417  -22.6267   19.4115 H   0  0  0  0  0  0
  -28.7529  -16.4982   19.5211 H   0  0  0  0  0  0
  -28.2449  -17.4687   20.8547 H   0  0  0  0  0  0
  -30.2269  -23.5544   18.5347 H   0  0  0  0  0  0
  -31.0232  -23.0449   19.9939 H   0  0  0  0  0  0
  -30.3417  -17.3135   21.9961 H   0  0  0  0  0  0
  -31.2180  -16.9561   20.5356 H   0  0  0  0  0  0
  -27.6086  -24.8642   20.0127 H   0  0  0  0  0  0
  -28.4818  -25.3895   18.5689 H   0  0  0  0  0  0
  -30.5873  -25.4262   19.9617 H   0  0  0  0  0  0
  -29.2641  -15.0512   21.7955 H   0  0  0  0  0  0
  1 25  1  0  0  0
  1 30  2  0  0  0
  1 86  1  0  0  0
  2  3  1  0  0  0
  2 25  1  0  0  0
  2 87  1  0  0  0
  2 88  1  0  0  0
  3  4  1  0  0  0
  3 89  1  0  0  0
  3 90  1  0  0  0
  4  5  1  0  0  0
  4 91  1  0  0  0
  4 92  1  0  0  0
  5  6  1  0  0  0
  5 26  1  0  0  0
  5 93  1  0  0  0
  6 25  1  0  0  0
  6 94  1  0  0  0
  6 95  1  0  0  0
  7  8  2  0  0  0
  7 26  1  0  0  0
  7 29  1  0  0  0
  8  9  1  0  0  0
  8 22  1  0  0  0
  9 10  1  0  0  0
  9 27  2  0  0  0
 10 11  2  0  0  0
 10 15  1  0  0  0
 11 12  1  0  0  0
 11 96  1  0  0  0
 12 13  2  0  0  0
 12 97  1  0  0  0
 13 14  1  0  0  0
 13 31  1  0  0  0
 14 15  2  0  0  0
 14 98  1  0  0  0
 15 99  1  0  0  0
 16 17  2  0  0  0
 16 21  1  0  0  0
 16 31  1  0  0  0
 17 18  1  0  0  0
 17100  1  0  0  0
 18 19  2  0  0  0
 18101  1  0  0  0
 19 20  1  0  0  0
 19 24  1  0  0  0
 20 21  2  0  0  0
 20102  1  0  0  0
 21 23  1  0  0  0
 22 28  1  0  0  0
 22 32  2  0  0  0
 26 27  1  0  0  0
 28103  1  0  0  0
 28104  1  0  0  0
 29105  1  0  0  0
 29106  1  0  0  0
 33 34  1  0  0  0
 33 66  1  0  0  0
 33 70  2  0  0  0
 34 36  1  0  0  0
 34 59  1  0  0  0
 34107  1  0  0  0
 35 44  2  0  0  0
 35 45  1  0  0  0
 35 68  1  0  0  0
 36 56  1  0  0  0
 36108  1  0  0  0
 37 39  1  0  0  0
 37 47  1  0  0  0
 37 66  1  0  0  0
 37109  1  0  0  0
 38 43  2  0  0  0
 38 46  1  0  0  0
 38 47  1  0  0  0
 39 64  1  0  0  0
 39 67  2  0  0  0
 40 52  1  0  0  0
 40 53  2  0  0  0
 40 58  1  0  0  0
 41110  1  0  0  0
 41111  1  0  0  0
 41112  1  0  0  0
 41 48  1  0  0  0
 42 43  1  0  0  0
 42 66  1  0  0  0
 42113  1  0  0  0
 42114  1  0  0  0
 43 44  1  0  0  0
 44115  1  0  0  0
 45 46  2  0  0  0
 45116  1  0  0  0
 46117  1  0  0  0
 47118  1  0  0  0
 47119  1  0  0  0
 48 56  1  0  0  0
 48 65  1  0  0  0
 48120  1  0  0  0
 49 50  1  0  0  0
 49 53  1  0  0  0
 49 64  1  0  0  0
 49121  1  0  0  0
 50 51  1  0  0  0
 50122  1  0  0  0
 50123  1  0  0  0
 51 52  1  0  0  0
 51124  1  0  0  0
 51125  1  0  0  0
 52126  1  0  0  0
 52127  1  0  0  0
 53 54  1  0  0  0
 54 55  2  0  0  0
 54128  1  0  0  0
 55 57  1  0  0  0
 55129  1  0  0  0
 56 69  2  0  0  0
 57 58  2  0  0  0
 57130  1  0  0  0
 58131  1  0  0  0
 59 60  1  0  0  0
 59 61  1  0  0  0
 59 62  1  0  0  0
 60132  1  0  0  0
 60133  1  0  0  0
 60134  1  0  0  0
 61135  1  0  0  0
 61136  1  0  0  0
 61137  1  0  0  0
 62138  1  0  0  0
 62139  1  0  0  0
 62140  1  0  0  0
 63 65  1  0  0  0
 63141  1  0  0  0
 63142  1  0  0  0
 63143  1  0  0  0
 64144  1  0  0  0
 65145  1  0  0  0
 68 84  1  0  0  0
 71 73  2  0  0  0
 71 74  1  0  0  0
 71146  1  0  0  0
 72 73  1  0  0  0
 72 75  2  0  0  0
 72147  1  0  0  0
 73 80  1  0  0  0
 74 76  2  0  0  0
 74 77  1  0  0  0
 75 76  1  0  0  0
 75 81  1  0  0  0
 76 78  1  0  0  0
 77148  1  0  0  0
 77149  1  0  0  0
 77150  1  0  0  0
 78151  1  0  0  0
 78152  1  0  0  0
 78153  1  0  0  0
 79154  1  0  0  0
 79155  1  0  0  0
 79156  1  0  0  0
 79 85  1  0  0  0
 80 82  1  0  0  0
 80157  1  0  0  0
 80158  1  0  0  0
 81 83  1  0  0  0
 81159  1  0  0  0
 81160  1  0  0  0
 82 85  1  0  0  0
 82161  1  0  0  0
 82162  1  0  0  0
 83 86  1  0  0  0
 83163  1  0  0  0
 83164  1  0  0  0
 84 85  1  0  0  0
 84165  1  0  0  0
 84166  1  0  0  0
 85167  1  0  0  0
 86168  1  0  0  0
M  ISO  4   1 100  68 101  84 101  86 100
M  END
> <chiral flag>
0

> <version>
0

> <s_m_source_file>
/data/baiqing/PycharmProjects/Reinvent-master-3.2/result/LINK_invent/BTK/process_docking_weight1_custom_sum_contain_oxygen_bond_distance_aromatic_linkinvent_7_9_3/rearranged_h_0099.sdf

> <i_m_source_file_index>
86

> <r_mmod_Potential_Energy-OPLS-2005>
-99.0160446166992

> <r_mmod_Stretch_Energy-OPLS-2005>
33.3959083557129

> <r_mmod_Bend_Energy-OPLS-2005>
94.3226318359375

> <r_mmod_Torsional_Energy-OPLS-2005>
208.067169189453

> <r_mmod_Improper_Torsional_Energy-OPLS-2005>
4.51362943649292

> <r_mmod_Van_der_Waal_Energy-OPLS-2005>
158.288681030273

> <r_mmod_Electrostatic_Energy-OPLS-2005>
-402.018951416016

> <r_mmod_Solvation_Energy-OPLS-2005>
-204.16813659668

> <b_mmod_Minimization_Converged-OPLS-2005>
0

> <r_mmod_RMS_Derivative-OPLS-2005>
2.01917505264282

$$$$
86
                    3D
 Structure written by MMmdl.
164171  0  0  1  0            999 V2000
  -30.6996  -14.6423   20.5157 C   0  0  0  0  0  0
  -30.4293  -12.3979   19.4610 C   0  0  0  0  0  0
  -29.5037  -12.4924   18.2294 C   0  0  0  0  0  0
  -28.0338  -12.3224   18.6533 C   0  0  0  0  0  0
  -27.6553  -13.2231   19.8590 C   0  0  2  0  0  0
  -28.7050  -13.1349   20.9921 C   0  0  0  0  0  0
  -25.2588  -13.8182   20.5704 C   0  0  0  0  0  0
  -24.1851  -13.0430   20.9199 C   0  0  0  0  0  0
  -24.6426  -11.6913   20.8745 C   0  0  0  0  0  0
  -23.9080  -10.4292   21.0410 C   0  0  0  0  0  0
  -24.3618   -9.4211   21.9203 C   0  0  0  0  0  0
  -23.6294   -8.2249   22.0758 C   0  0  0  0  0  0
  -22.4286   -8.0279   21.3539 C   0  0  0  0  0  0
  -21.9931   -9.0253   20.4635 C   0  0  0  0  0  0
  -22.7252  -10.2133   20.3060 C   0  0  0  0  0  0
  -21.6861   -6.0747   22.5269 C   0  0  0  0  0  0
  -21.4015   -6.5647   23.8209 C   0  0  0  0  0  0
  -21.3650   -5.6805   24.9167 C   0  0  0  0  0  0
  -21.6051   -4.3066   24.7222 C   0  0  0  0  0  0
  -21.8816   -3.8160   23.4348 C   0  0  0  0  0  0
  -21.9189   -4.6977   22.3396 C   0  0  0  0  0  0
  -22.7875  -13.5236   21.1854 C   0  0  0  0  0  0
  -22.1668   -4.2166   21.0979 F   0  0  0  0  0  0
  -21.5623   -3.4549   25.7741 F   0  0  0  0  0  0
  -30.0213  -13.4526   20.4158 N   0  0  0  0  0  0
  -26.3036  -12.9383   20.3354 N   0  0  0  0  0  0
  -25.9369  -11.6527   20.5791 N   0  0  0  0  0  0
  -22.0492  -12.8186   22.0374 N   0  0  0  0  0  0
  -25.4271  -15.1888   20.4120 N   0  0  0  0  0  0
  -31.8622  -14.7454   20.1218 O   0  0  0  0  0  0
  -21.6640   -6.8879   21.4232 O   0  0  0  0  0  0
  -22.3561  -14.5545   20.6714 O   0  0  0  0  0  0
  -24.6220  -31.8589   23.2002 C   0  0  0  0  0  0
  -25.9096  -32.4769   23.8323 C   0  0  1  0  0  0
  -27.2386  -27.3358   20.1512 C   0  0  0  0  0  0
  -25.5946  -33.8570   24.2237 N   0  0  0  0  0  0
  -23.4137  -30.4804   21.5369 C   0  0  2  0  0  0
  -24.8701  -28.9335   20.1111 C   0  0  0  0  0  0
  -22.7435  -29.4614   22.4889 C   0  0  0  0  0  0
  -18.0279  -28.1392   22.8439 C   0  0  0  0  0  0
  -24.1482  -36.7277   23.2630 C   0  0  0  0  0  0
  -25.9485  -30.8043   21.3630 C   0  0  0  0  0  0
  -26.0342  -29.4275   20.7175 C   0  0  0  0  0  0
  -27.2230  -28.6422   20.7243 C   0  0  0  0  0  0
  -26.0576  -26.8830   19.5264 C   0  0  0  0  0  0
  -24.8867  -27.6660   19.5041 C   0  0  0  0  0  0
  -23.6324  -29.8077   20.1541 C   0  0  0  0  0  0
  -25.4104  -36.3057   24.0312 C   0  0  1  0  0  0
  -20.5859  -28.3692   23.1273 C   0  0  2  0  0  0
  -20.6777  -26.9409   22.5396 C   0  0  0  0  0  0
  -19.5762  -26.6395   21.5168 C   0  0  0  0  0  0
  -18.1924  -26.7923   22.1559 C   0  0  0  0  0  0
  -19.1528  -28.8842   23.2856 C   0  0  0  0  0  0
  -18.9464  -30.1436   23.8902 C   0  0  0  0  0  0
  -17.6491  -30.6599   24.0549 C   0  0  0  0  0  0
  -25.9060  -34.9439   23.5059 C   0  0  0  0  0  0
  -16.5373  -29.9096   23.6338 C   0  0  0  0  0  0
  -16.7277  -28.6516   23.0344 C   0  0  0  0  0  0
  -26.4523  -31.6575   25.0681 C   0  0  0  0  0  0
  -25.3751  -31.3697   26.1399 C   0  0  0  0  0  0
  -27.0420  -30.3030   24.6107 C   0  0  0  0  0  0
  -27.6057  -32.4333   25.7490 C   0  0  0  0  0  0
  -27.5561  -37.1783   24.8447 C   0  0  0  0  0  0
  -21.4142  -29.3067   22.3679 N   0  0  0  0  0  0
  -26.4266  -37.3764   23.9417 N   0  0  0  0  0  0
  -24.6791  -31.0631   22.0924 N   0  0  0  0  0  0
  -23.4176  -28.8141   23.2940 O   0  0  0  0  0  0
  -28.3671  -26.5115   20.1657 O   0  0  0  0  0  0
  -26.5609  -34.8907   22.4624 O   0  0  0  0  0  0
  -23.5414  -32.1384   23.7373 O   0  0  0  0  0  0
  -30.3483  -24.2466   19.5939 C   0  0  0  0  0  0
  -28.4740  -20.8916   18.8328 C   0  0  0  0  0  0
  -28.1642  -17.8913   20.1411 C   0  0  0  0  0  0
  -31.1011  -20.0965   21.5677 C   0  0  0  0  0  0
  -28.8821  -22.4992   20.7719 C   0  0  0  0  0  0
  -30.4561  -17.1931   21.0522 C   0  0  0  0  0  0
  -28.2554  -25.1674   20.7768 C   0  0  0  0  0  0
  -28.9081  -23.9182   20.0193 C   0  0  1  0  0  0
  -29.3998  -21.1726   20.0233 C   0  0  1  0  0  0
  -29.6259  -18.3602   20.3217 C   0  0  2  0  0  0
  -29.7115  -19.8675   20.9322 C   0  0  1  0  0  0
  -30.0012  -15.7537   20.9091 N   0  0  0  0  0  0
  -31.4745  -12.4854   19.1603 H   0  0  0  0  0  0
  -30.3367  -11.4169   19.9293 H   0  0  0  0  0  0
  -29.7699  -11.7253   17.5002 H   0  0  0  0  0  0
  -29.6404  -13.4527   17.7299 H   0  0  0  0  0  0
  -27.8940  -11.2737   18.9200 H   0  0  0  0  0  0
  -27.3683  -12.5101   17.8105 H   0  0  0  0  0  0
  -27.6604  -14.2466   19.4837 H   0  0  0  0  0  0
  -28.7216  -12.1372   21.4310 H   0  0  0  0  0  0
  -28.4517  -13.8171   21.8050 H   0  0  0  0  0  0
  -25.2748   -9.5702   22.4798 H   0  0  0  0  0  0
  -24.0004   -7.4649   22.7489 H   0  0  0  0  0  0
  -21.0872   -8.8765   19.8932 H   0  0  0  0  0  0
  -22.3708  -10.9681   19.6173 H   0  0  0  0  0  0
  -21.2006   -7.6157   23.9711 H   0  0  0  0  0  0
  -21.1484   -6.0540   25.9072 H   0  0  0  0  0  0
  -22.0597   -2.7627   23.2848 H   0  0  0  0  0  0
  -22.4096  -11.9832   22.4730 H   0  0  0  0  0  0
  -21.1103  -13.1187   22.2550 H   0  0  0  0  0  0
  -24.6516  -15.8357   20.5071 H   0  0  0  0  0  0
  -26.2765  -15.6325   20.0875 H   0  0  0  0  0  0
  -26.7152  -32.5482   23.1073 H   0  0  0  0  0  0
  -25.0178  -33.9701   25.0454 H   0  0  0  0  0  0
  -22.7020  -31.2956   21.3878 H   0  0  0  0  0  0
  -23.3746  -35.9607   23.3283 H   0  0  0  0  0  0
  -24.3561  -36.8937   22.2043 H   0  0  0  0  0  0
  -23.7259  -37.6475   23.6700 H   0  0  0  0  0  0
  -26.0549  -31.5622   20.5852 H   0  0  0  0  0  0
  -26.8358  -30.8724   21.9805 H   0  0  0  0  0  0
  -28.1183  -29.0171   21.2005 H   0  0  0  0  0  0
  -26.0389  -25.9072   19.0637 H   0  0  0  0  0  0
  -23.9954  -27.2774   19.0283 H   0  0  0  0  0  0
  -23.7431  -30.5786   19.3902 H   0  0  0  0  0  0
  -22.7542  -29.2315   19.8533 H   0  0  0  0  0  0
  -25.1283  -36.1865   25.0804 H   0  0  0  0  0  0
  -20.9943  -28.3281   24.1397 H   0  0  0  0  0  0
  -20.5653  -26.2285   23.3590 H   0  0  0  0  0  0
  -21.6654  -26.7416   22.1209 H   0  0  0  0  0  0
  -19.6930  -25.6295   21.1236 H   0  0  0  0  0  0
  -19.6746  -27.3177   20.6675 H   0  0  0  0  0  0
  -17.4188  -26.6672   21.3965 H   0  0  0  0  0  0
  -18.0332  -26.0048   22.8947 H   0  0  0  0  0  0
  -19.7956  -30.7232   24.2277 H   0  0  0  0  0  0
  -17.5061  -31.6278   24.5155 H   0  0  0  0  0  0
  -15.5381  -30.3022   23.7691 H   0  0  0  0  0  0
  -15.8652  -28.0880   22.7065 H   0  0  0  0  0  0
  -24.5968  -30.6996   25.7737 H   0  0  0  0  0  0
  -24.8897  -32.2857   26.4763 H   0  0  0  0  0  0
  -25.8069  -30.8934   27.0205 H   0  0  0  0  0  0
  -26.3012  -29.6721   24.1186 H   0  0  0  0  0  0
  -27.4250  -29.7329   25.4582 H   0  0  0  0  0  0
  -27.8786  -30.4358   23.9240 H   0  0  0  0  0  0
  -27.2668  -33.3686   26.1951 H   0  0  0  0  0  0
  -28.3957  -32.6803   25.0383 H   0  0  0  0  0  0
  -28.0616  -31.8527   26.5516 H   0  0  0  0  0  0
  -28.2512  -38.0129   24.7552 H   0  0  0  0  0  0
  -28.1126  -36.2673   24.6214 H   0  0  0  0  0  0
  -27.2288  -37.1340   25.8843 H   0  0  0  0  0  0
  -20.9308  -29.8863   21.6958 H   0  0  0  0  0  0
  -26.0122  -38.2818   24.1499 H   0  0  0  0  0  0
  -30.6617  -23.6052   18.7710 H   0  0  0  0  0  0
  -31.0494  -24.1131   20.4173 H   0  0  0  0  0  0
  -30.4416  -25.2722   19.2396 H   0  0  0  0  0  0
  -28.4789  -21.7227   18.1291 H   0  0  0  0  0  0
  -27.4435  -20.7401   19.1570 H   0  0  0  0  0  0
  -28.7954  -20.0207   18.2647 H   0  0  0  0  0  0
  -28.1133  -16.8945   19.7052 H   0  0  0  0  0  0
  -27.6004  -18.5111   19.4506 H   0  0  0  0  0  0
  -27.6298  -17.8764   21.0915 H   0  0  0  0  0  0
  -31.2515  -21.1352   21.8653 H   0  0  0  0  0  0
  -31.8944  -19.8514   20.8622 H   0  0  0  0  0  0
  -31.2532  -19.4972   22.4645 H   0  0  0  0  0  0
  -27.8553  -22.3219   21.0930 H   0  0  0  0  0  0
  -29.4402  -22.6108   21.7003 H   0  0  0  0  0  0
  -30.4674  -17.3899   22.1250 H   0  0  0  0  0  0
  -31.5007  -17.2804   20.7421 H   0  0  0  0  0  0
  -28.7222  -25.2497   21.7605 H   0  0  0  0  0  0
  -27.2107  -24.9373   20.9889 H   0  0  0  0  0  0
  -28.3244  -23.8120   19.1051 H   0  0  0  0  0  0
  -30.3594  -21.4336   19.5737 H   0  0  0  0  0  0
  -30.0561  -18.4168   19.3209 H   0  0  0  0  0  0
  -28.9965  -19.8982   21.7552 H   0  0  0  0  0  0
  -29.0542  -15.5755   21.2032 H   0  0  0  0  0  0
  1 25  1  0  0  0
  1 30  2  0  0  0
  1 82  1  0  0  0
  2  3  1  0  0  0
  2 25  1  0  0  0
  2 83  1  0  0  0
  2 84  1  0  0  0
  3  4  1  0  0  0
  3 85  1  0  0  0
  3 86  1  0  0  0
  4  5  1  0  0  0
  4 87  1  0  0  0
  4 88  1  0  0  0
  5  6  1  0  0  0
  5 26  1  0  0  0
  5 89  1  0  0  0
  6 25  1  0  0  0
  6 90  1  0  0  0
  6 91  1  0  0  0
  7  8  2  0  0  0
  7 26  1  0  0  0
  7 29  1  0  0  0
  8  9  1  0  0  0
  8 22  1  0  0  0
  9 10  1  0  0  0
  9 27  2  0  0  0
 10 11  2  0  0  0
 10 15  1  0  0  0
 11 12  1  0  0  0
 11 92  1  0  0  0
 12 13  2  0  0  0
 12 93  1  0  0  0
 13 14  1  0  0  0
 13 31  1  0  0  0
 14 15  2  0  0  0
 14 94  1  0  0  0
 15 95  1  0  0  0
 16 17  2  0  0  0
 16 21  1  0  0  0
 16 31  1  0  0  0
 17 18  1  0  0  0
 17 96  1  0  0  0
 18 19  2  0  0  0
 18 97  1  0  0  0
 19 20  1  0  0  0
 19 24  1  0  0  0
 20 21  2  0  0  0
 20 98  1  0  0  0
 21 23  1  0  0  0
 22 28  1  0  0  0
 22 32  2  0  0  0
 26 27  1  0  0  0
 28 99  1  0  0  0
 28100  1  0  0  0
 29101  1  0  0  0
 29102  1  0  0  0
 33 34  1  0  0  0
 33 66  1  0  0  0
 33 70  2  0  0  0
 34 36  1  0  0  0
 34 59  1  0  0  0
 34103  1  0  0  0
 35 44  2  0  0  0
 35 45  1  0  0  0
 35 68  1  0  0  0
 36 56  1  0  0  0
 36104  1  0  0  0
 37 39  1  0  0  0
 37 47  1  0  0  0
 37 66  1  0  0  0
 37105  1  0  0  0
 38 43  2  0  0  0
 38 46  1  0  0  0
 38 47  1  0  0  0
 39 64  1  0  0  0
 39 67  2  0  0  0
 40 52  1  0  0  0
 40 53  2  0  0  0
 40 58  1  0  0  0
 41106  1  0  0  0
 41107  1  0  0  0
 41108  1  0  0  0
 41 48  1  0  0  0
 42 43  1  0  0  0
 42 66  1  0  0  0
 42109  1  0  0  0
 42110  1  0  0  0
 43 44  1  0  0  0
 44111  1  0  0  0
 45 46  2  0  0  0
 45112  1  0  0  0
 46113  1  0  0  0
 47114  1  0  0  0
 47115  1  0  0  0
 48 56  1  0  0  0
 48 65  1  0  0  0
 48116  1  0  0  0
 49 50  1  0  0  0
 49 53  1  0  0  0
 49 64  1  0  0  0
 49117  1  0  0  0
 50 51  1  0  0  0
 50118  1  0  0  0
 50119  1  0  0  0
 51 52  1  0  0  0
 51120  1  0  0  0
 51121  1  0  0  0
 52122  1  0  0  0
 52123  1  0  0  0
 53 54  1  0  0  0
 54 55  2  0  0  0
 54124  1  0  0  0
 55 57  1  0  0  0
 55125  1  0  0  0
 56 69  2  0  0  0
 57 58  2  0  0  0
 57126  1  0  0  0
 58127  1  0  0  0
 59 60  1  0  0  0
 59 61  1  0  0  0
 59 62  1  0  0  0
 60128  1  0  0  0
 60129  1  0  0  0
 60130  1  0  0  0
 61131  1  0  0  0
 61132  1  0  0  0
 61133  1  0  0  0
 62134  1  0  0  0
 62135  1  0  0  0
 62136  1  0  0  0
 63 65  1  0  0  0
 63137  1  0  0  0
 63138  1  0  0  0
 63139  1  0  0  0
 64140  1  0  0  0
 65141  1  0  0  0
 68 77  1  0  0  0
 71142  1  0  0  0
 71143  1  0  0  0
 71144  1  0  0  0
 71 78  1  0  0  0
 72145  1  0  0  0
 72146  1  0  0  0
 72147  1  0  0  0
 72 79  1  0  0  0
 73148  1  0  0  0
 73149  1  0  0  0
 73150  1  0  0  0
 73 80  1  0  0  0
 74151  1  0  0  0
 74152  1  0  0  0
 74153  1  0  0  0
 74 81  1  0  0  0
 75 78  1  0  0  0
 75 79  1  0  0  0
 75154  1  0  0  0
 75155  1  0  0  0
 76 80  1  0  0  0
 76 82  1  0  0  0
 76156  1  0  0  0
 76157  1  0  0  0
 77 78  1  0  0  0
 77158  1  0  0  0
 77159  1  0  0  0
 78160  1  0  0  0
 79 81  1  0  0  0
 79161  1  0  0  0
 80 81  1  0  0  0
 80162  1  0  0  0
 81163  1  0  0  0
 82164  1  0  0  0
M  ISO  4   1 100  68 101  77 101  82 100
M  END
> <chiral flag>
0

> <version>
0

> <s_m_source_file>
/data/baiqing/PycharmProjects/Reinvent-master-3.2/result/LINK_invent/BTK/process_docking_weight1_custom_sum_contain_oxygen_bond_distance_aromatic_linkinvent_7_9_3/rearranged_h_0099.sdf

> <i_m_source_file_index>
87

> <r_mmod_Potential_Energy-OPLS-2005>
101.667709350586

> <r_mmod_Stretch_Energy-OPLS-2005>
100.004028320312

> <r_mmod_Bend_Energy-OPLS-2005>
152.168930053711

> <r_mmod_Torsional_Energy-OPLS-2005>
260.709808349609

> <r_mmod_Improper_Torsional_Energy-OPLS-2005>
3.34817719459534

> <r_mmod_Van_der_Waal_Energy-OPLS-2005>
124.46354675293

> <r_mmod_Electrostatic_Energy-OPLS-2005>
-396.769775390625

> <r_mmod_Solvation_Energy-OPLS-2005>
-188.560989379883

> <b_mmod_Minimization_Converged-OPLS-2005>
0

> <r_mmod_RMS_Derivative-OPLS-2005>
4.35158634185791

$$$$
87
                    3D
 Structure written by MMmdl.
171179  0  0  1  0            999 V2000
  -30.4568  -15.2800   20.3709 C   0  0  0  0  0  0
  -30.4574  -12.8324   19.5149 C   0  0  0  0  0  0
  -29.5481  -12.5676   18.2921 C   0  0  0  0  0  0
  -28.1018  -12.2939   18.7358 C   0  0  0  0  0  0
  -27.6227  -13.2754   19.8334 C   0  0  2  0  0  0
  -28.6607  -13.4795   20.9570 C   0  0  0  0  0  0
  -25.2432  -13.8252   20.5804 C   0  0  0  0  0  0
  -24.1782  -13.0460   20.9297 C   0  0  0  0  0  0
  -24.6427  -11.6943   20.8780 C   0  0  0  0  0  0
  -23.9115  -10.4329   21.0387 C   0  0  0  0  0  0
  -24.3658   -9.4247   21.9172 C   0  0  0  0  0  0
  -23.6355   -8.2280   22.0701 C   0  0  0  0  0  0
  -22.4327   -8.0309   21.3515 C   0  0  0  0  0  0
  -21.9987   -9.0292   20.4603 C   0  0  0  0  0  0
  -22.7289  -10.2178   20.3043 C   0  0  0  0  0  0
  -21.6865   -6.0739   22.5262 C   0  0  0  0  0  0
  -21.4004   -6.5626   23.8188 C   0  0  0  0  0  0
  -21.3668   -5.6771   24.9160 C   0  0  0  0  0  0
  -21.6072   -4.3046   24.7207 C   0  0  0  0  0  0
  -21.8816   -3.8145   23.4325 C   0  0  0  0  0  0
  -21.9201   -4.6970   22.3368 C   0  0  0  0  0  0
  -22.7792  -13.5201   21.1981 C   0  0  0  0  0  0
  -22.1656   -4.2141   21.0950 F   0  0  0  0  0  0
  -21.5674   -3.4532   25.7730 F   0  0  0  0  0  0
  -29.8829  -13.9792   20.3065 N   0  0  0  0  0  0
  -26.2896  -12.9530   20.3343 N   0  0  0  0  0  0
  -25.9367  -11.6624   20.5768 N   0  0  0  0  0  0
  -22.0432  -12.8171   22.0491 N   0  0  0  0  0  0
  -25.4083  -15.1993   20.4159 N   0  0  0  0  0  0
  -31.6866  -15.2704   20.2316 O   0  0  0  0  0  0
  -21.6654   -6.8930   21.4235 O   0  0  0  0  0  0
  -22.3452  -14.5514   20.6831 O   0  0  0  0  0  0
  -24.6638  -31.8237   23.1624 C   0  0  0  0  0  0
  -25.9326  -32.4592   23.8102 C   0  0  1  0  0  0
  -27.2247  -26.9257   20.1616 C   0  0  0  0  0  0
  -25.6013  -33.8394   24.2042 N   0  0  0  0  0  0
  -23.4772  -30.4304   21.5151 C   0  0  2  0  0  0
  -24.9303  -28.8182   20.1009 C   0  0  0  0  0  0
  -22.7697  -29.4433   22.4796 C   0  0  0  0  0  0
  -18.0329  -28.1416   22.8498 C   0  0  0  0  0  0
  -24.1507  -36.7182   23.2666 C   0  0  0  0  0  0
  -26.0479  -30.6285   21.3899 C   0  0  0  0  0  0
  -26.1128  -29.2158   20.7349 C   0  0  0  0  0  0
  -27.2464  -28.2872   20.7479 C   0  0  0  0  0  0
  -26.0106  -26.6819   19.4764 C   0  0  0  0  0  0
  -24.9046  -27.5724   19.4515 C   0  0  0  0  0  0
  -23.7154  -29.7434   20.1424 C   0  0  0  0  0  0
  -25.4134  -36.2944   24.0317 C   0  0  1  0  0  0
  -20.5967  -28.3725   23.1245 C   0  0  2  0  0  0
  -20.6808  -26.9422   22.5406 C   0  0  0  0  0  0
  -19.5763  -26.6406   21.5233 C   0  0  0  0  0  0
  -18.1945  -26.7954   22.1645 C   0  0  0  0  0  0
  -19.1597  -28.8885   23.2861 C   0  0  0  0  0  0
  -18.9509  -30.1504   23.8848 C   0  0  0  0  0  0
  -17.6491  -30.6597   24.0564 C   0  0  0  0  0  0
  -25.9105  -34.9340   23.4984 C   0  0  0  0  0  0
  -16.5379  -29.9078   23.6361 C   0  0  0  0  0  0
  -16.7304  -28.6519   23.0351 C   0  0  0  0  0  0
  -26.4582  -31.6499   25.0595 C   0  0  0  0  0  0
  -25.3736  -31.3732   26.1258 C   0  0  0  0  0  0
  -27.0502  -30.2901   24.6262 C   0  0  0  0  0  0
  -27.6091  -32.4288   25.7371 C   0  0  0  0  0  0
  -27.5551  -37.1731   24.8475 C   0  0  0  0  0  0
  -21.4343  -29.3016   22.3590 N   0  0  0  0  0  0
  -26.4250  -37.3698   23.9440 N   0  0  0  0  0  0
  -24.7522  -30.9918   22.0751 N   0  0  0  0  0  0
  -23.4260  -28.8042   23.3051 O   0  0  0  0  0  0
  -28.2370  -25.8312   20.2675 O   0  0  0  0  0  0
  -26.5709  -34.8878   22.4573 O   0  0  0  0  0  0
  -23.5700  -32.1222   23.6694 O   0  0  0  0  0  0
  -28.8321  -23.3364   22.0670 C   0  0  0  0  0  0
  -28.6948  -22.8391   20.7484 C   0  0  0  0  0  0
  -29.0072  -21.3390   20.9080 C   0  0  0  0  0  0
  -31.5371  -20.0448   25.4323 C   0  0  0  0  0  0
  -29.9225  -21.3008   26.8883 C   0  0  0  0  0  0
  -27.7130  -19.2278   19.9787 C   0  0  0  0  0  0
  -28.2028  -24.2353   19.8160 C   0  0  0  0  0  0
  -29.0756  -20.2914   24.7281 C   0  0  0  0  0  0
  -29.2137  -20.0833   23.1957 C   0  0  0  0  0  0
  -29.9428  -18.1804   20.7140 C   0  0  0  0  0  0
  -29.7455  -19.9758   18.7349 C   0  0  0  0  0  0
  -30.2852  -20.9348   25.4438 C   0  0  0  0  0  0
  -29.1520  -19.7339   20.1537 C   0  0  1  0  0  0
  -29.0404  -22.4331   22.9660 N   0  0  0  0  0  0
  -29.0918  -21.2565   22.3222 N   0  0  0  0  0  0
  -29.6998  -16.5581   20.3986 N   0  0  0  0  0  0
  -31.0725  -20.6278   18.7755 N   0  3  0  0  0  0
  -31.4633  -13.0599   19.1580 H   0  0  0  0  0  0
  -30.5597  -11.9385   20.1279 H   0  0  0  0  0  0
  -29.9307  -11.7302   17.7079 H   0  0  0  0  0  0
  -29.5765  -13.4359   17.6337 H   0  0  0  0  0  0
  -28.0830  -11.2776   19.1292 H   0  0  0  0  0  0
  -27.4260  -12.3176   17.8809 H   0  0  0  0  0  0
  -27.5419  -14.2389   19.3311 H   0  0  0  0  0  0
  -28.8402  -12.5669   21.5272 H   0  0  0  0  0  0
  -28.3008  -14.2286   21.6672 H   0  0  0  0  0  0
  -25.2790   -9.5697   22.4772 H   0  0  0  0  0  0
  -24.0047   -7.4617   22.7368 H   0  0  0  0  0  0
  -21.0950   -8.8840   19.8873 H   0  0  0  0  0  0
  -22.3761  -10.9759   19.6177 H   0  0  0  0  0  0
  -21.1941   -7.6119   23.9704 H   0  0  0  0  0  0
  -21.1513   -6.0486   25.9064 H   0  0  0  0  0  0
  -22.0593   -2.7624   23.2805 H   0  0  0  0  0  0
  -22.4077  -11.9871   22.4966 H   0  0  0  0  0  0
  -21.0977  -13.1082   22.2574 H   0  0  0  0  0  0
  -24.6464  -15.8583   20.5306 H   0  0  0  0  0  0
  -26.2432  -15.6464   20.0631 H   0  0  0  0  0  0
  -26.7404  -32.5105   23.0822 H   0  0  0  0  0  0
  -25.0167  -33.9470   25.0198 H   0  0  0  0  0  0
  -22.7927  -31.2636   21.3418 H   0  0  0  0  0  0
  -23.3777  -35.9504   23.3262 H   0  0  0  0  0  0
  -24.3638  -36.8854   22.2102 H   0  0  0  0  0  0
  -23.7236  -37.6352   23.6728 H   0  0  0  0  0  0
  -26.2202  -31.3682   20.6054 H   0  0  0  0  0  0
  -26.9180  -30.6980   22.0303 H   0  0  0  0  0  0
  -28.1326  -28.5874   21.2901 H   0  0  0  0  0  0
  -25.8786  -25.7291   18.9848 H   0  0  0  0  0  0
  -24.0035  -27.2670   18.9392 H   0  0  0  0  0  0
  -23.8589  -30.5101   19.3813 H   0  0  0  0  0  0
  -22.8296  -29.1933   19.8265 H   0  0  0  0  0  0
  -25.1340  -36.1716   25.0811 H   0  0  0  0  0  0
  -21.0056  -28.3254   24.1367 H   0  0  0  0  0  0
  -20.5774  -26.2297   23.3610 H   0  0  0  0  0  0
  -21.6661  -26.7433   22.1160 H   0  0  0  0  0  0
  -19.6921  -25.6334   21.1227 H   0  0  0  0  0  0
  -19.6683  -27.3257   20.6806 H   0  0  0  0  0  0
  -17.4232  -26.6749   21.4025 H   0  0  0  0  0  0
  -18.0280  -26.0097   22.9034 H   0  0  0  0  0  0
  -19.7983  -30.7372   24.2146 H   0  0  0  0  0  0
  -17.5030  -31.6263   24.5206 H   0  0  0  0  0  0
  -15.5385  -30.2956   23.7720 H   0  0  0  0  0  0
  -15.8717  -28.0841   22.7035 H   0  0  0  0  0  0
  -24.5926  -30.7082   25.7565 H   0  0  0  0  0  0
  -24.8928  -32.2938   26.4585 H   0  0  0  0  0  0
  -25.8005  -30.8966   27.0083 H   0  0  0  0  0  0
  -26.3175  -29.6565   24.1266 H   0  0  0  0  0  0
  -27.4143  -29.7245   25.4843 H   0  0  0  0  0  0
  -27.9028  -30.4175   23.9588 H   0  0  0  0  0  0
  -27.2704  -33.3637   26.1813 H   0  0  0  0  0  0
  -28.3939  -32.6754   25.0214 H   0  0  0  0  0  0
  -28.0702  -31.8496   26.5365 H   0  0  0  0  0  0
  -28.2554  -38.0046   24.7568 H   0  0  0  0  0  0
  -28.1061  -36.2585   24.6242 H   0  0  0  0  0  0
  -27.2286  -37.1286   25.8880 H   0  0  0  0  0  0
  -20.9580  -29.8707   21.6733 H   0  0  0  0  0  0
  -26.0073  -38.2738   24.1482 H   0  0  0  0  0  0
  -28.7034  -24.3551   22.4128 H   0  0  0  0  0  0
  -32.3571  -20.5134   25.9789 H   0  0  0  0  0  0
  -31.8976  -19.8588   24.4199 H   0  0  0  0  0  0
  -31.3316  -19.0835   25.8999 H   0  0  0  0  0  0
  -30.7710  -21.7566   27.3999 H   0  0  0  0  0  0
  -29.6235  -20.4203   27.4585 H   0  0  0  0  0  0
  -29.0985  -22.0126   26.9193 H   0  0  0  0  0  0
  -27.3130  -18.8539   20.9210 H   0  0  0  0  0  0
  -27.6587  -18.4085   19.2628 H   0  0  0  0  0  0
  -27.0480  -20.0107   19.6254 H   0  0  0  0  0  0
  -27.1971  -24.0416   19.4411 H   0  0  0  0  0  0
  -28.7939  -24.2299   18.8981 H   0  0  0  0  0  0
  -28.8985  -19.3143   25.1797 H   0  0  0  0  0  0
  -28.1726  -20.8678   24.9409 H   0  0  0  0  0  0
  -28.4221  -19.3918   22.9104 H   0  0  0  0  0  0
  -30.1790  -19.6236   23.0130 H   0  0  0  0  0  0
  -31.0222  -18.3324   20.7479 H   0  0  0  0  0  0
  -29.6804  -18.0777   21.7565 H   0  0  0  0  0  0
  -29.0610  -20.5841   18.1380 H   0  0  0  0  0  0
  -29.8634  -19.0331   18.1967 H   0  0  0  0  0  0
  -30.5361  -21.8633   24.9375 H   0  0  0  0  0  0
  -28.7086  -16.3723   20.3602 H   0  0  0  0  0  0
  -31.0388  -21.4617   19.3322 H   0  0  0  0  0  0
  -31.3768  -20.8938   17.8529 H   0  0  0  0  0  0
  -31.7654  -20.0104   19.1636 H   0  0  0  0  0  0
  1 25  1  0  0  0
  1 30  2  0  0  0
  1 86  1  0  0  0
  2  3  1  0  0  0
  2 25  1  0  0  0
  2 88  1  0  0  0
  2 89  1  0  0  0
  3  4  1  0  0  0
  3 90  1  0  0  0
  3 91  1  0  0  0
  4  5  1  0  0  0
  4 92  1  0  0  0
  4 93  1  0  0  0
  5  6  1  0  0  0
  5 26  1  0  0  0
  5 94  1  0  0  0
  6 25  1  0  0  0
  6 95  1  0  0  0
  6 96  1  0  0  0
  7  8  2  0  0  0
  7 26  1  0  0  0
  7 29  1  0  0  0
  8  9  1  0  0  0
  8 22  1  0  0  0
  9 10  1  0  0  0
  9 27  2  0  0  0
 10 11  2  0  0  0
 10 15  1  0  0  0
 11 12  1  0  0  0
 11 97  1  0  0  0
 12 13  2  0  0  0
 12 98  1  0  0  0
 13 14  1  0  0  0
 13 31  1  0  0  0
 14 15  2  0  0  0
 14 99  1  0  0  0
 15100  1  0  0  0
 16 17  2  0  0  0
 16 21  1  0  0  0
 16 31  1  0  0  0
 17 18  1  0  0  0
 17101  1  0  0  0
 18 19  2  0  0  0
 18102  1  0  0  0
 19 20  1  0  0  0
 19 24  1  0  0  0
 20 21  2  0  0  0
 20103  1  0  0  0
 21 23  1  0  0  0
 22 28  1  0  0  0
 22 32  2  0  0  0
 26 27  1  0  0  0
 28104  1  0  0  0
 28105  1  0  0  0
 29106  1  0  0  0
 29107  1  0  0  0
 33 34  1  0  0  0
 33 66  1  0  0  0
 33 70  2  0  0  0
 34 36  1  0  0  0
 34 59  1  0  0  0
 34108  1  0  0  0
 35 44  2  0  0  0
 35 45  1  0  0  0
 35 68  1  0  0  0
 36 56  1  0  0  0
 36109  1  0  0  0
 37 39  1  0  0  0
 37 47  1  0  0  0
 37 66  1  0  0  0
 37110  1  0  0  0
 38 43  2  0  0  0
 38 46  1  0  0  0
 38 47  1  0  0  0
 39 64  1  0  0  0
 39 67  2  0  0  0
 40 52  1  0  0  0
 40 53  2  0  0  0
 40 58  1  0  0  0
 41111  1  0  0  0
 41112  1  0  0  0
 41113  1  0  0  0
 41 48  1  0  0  0
 42 43  1  0  0  0
 42 66  1  0  0  0
 42114  1  0  0  0
 42115  1  0  0  0
 43 44  1  0  0  0
 44116  1  0  0  0
 45 46  2  0  0  0
 45117  1  0  0  0
 46118  1  0  0  0
 47119  1  0  0  0
 47120  1  0  0  0
 48 56  1  0  0  0
 48 65  1  0  0  0
 48121  1  0  0  0
 49 50  1  0  0  0
 49 53  1  0  0  0
 49 64  1  0  0  0
 49122  1  0  0  0
 50 51  1  0  0  0
 50123  1  0  0  0
 50124  1  0  0  0
 51 52  1  0  0  0
 51125  1  0  0  0
 51126  1  0  0  0
 52127  1  0  0  0
 52128  1  0  0  0
 53 54  1  0  0  0
 54 55  2  0  0  0
 54129  1  0  0  0
 55 57  1  0  0  0
 55130  1  0  0  0
 56 69  2  0  0  0
 57 58  2  0  0  0
 57131  1  0  0  0
 58132  1  0  0  0
 59 60  1  0  0  0
 59 61  1  0  0  0
 59 62  1  0  0  0
 60133  1  0  0  0
 60134  1  0  0  0
 60135  1  0  0  0
 61136  1  0  0  0
 61137  1  0  0  0
 61138  1  0  0  0
 62139  1  0  0  0
 62140  1  0  0  0
 62141  1  0  0  0
 63 65  1  0  0  0
 63142  1  0  0  0
 63143  1  0  0  0
 63144  1  0  0  0
 64145  1  0  0  0
 65146  1  0  0  0
 68 77  1  0  0  0
 71 72  1  0  0  0
 71 84  2  0  0  0
 71147  1  0  0  0
 72 73  2  0  0  0
 72 77  1  0  0  0
 73 83  1  0  0  0
 73 85  1  0  0  0
 74148  1  0  0  0
 74149  1  0  0  0
 74150  1  0  0  0
 74 82  1  0  0  0
 75 82  1  0  0  0
 75151  1  0  0  0
 75152  1  0  0  0
 75153  1  0  0  0
 76154  1  0  0  0
 76155  1  0  0  0
 76156  1  0  0  0
 76 83  1  0  0  0
 77157  1  0  0  0
 77158  1  0  0  0
 78 79  1  0  0  0
 78 82  1  0  0  0
 78159  1  0  0  0
 78160  1  0  0  0
 79 85  1  0  0  0
 79161  1  0  0  0
 79162  1  0  0  0
 80 83  1  0  0  0
 80 86  1  0  0  0
 80163  1  0  0  0
 80164  1  0  0  0
 81 83  1  0  0  0
 81 87  1  0  0  0
 81165  1  0  0  0
 81166  1  0  0  0
 82167  1  0  0  0
 84 85  1  0  0  0
 86168  1  0  0  0
 87169  1  0  0  0
 87170  1  0  0  0
 87171  1  0  0  0
M  CHG  1  87   1
M  ISO  4   1 100  68 101  77 101  86 100
M  END
> <chiral flag>
0

> <version>
0

> <s_m_source_file>
/data/baiqing/PycharmProjects/Reinvent-master-3.2/result/LINK_invent/BTK/process_docking_weight1_custom_sum_contain_oxygen_bond_distance_aromatic_linkinvent_7_9_3/rearranged_h_0099.sdf

> <i_m_source_file_index>
88

> <r_mmod_Potential_Energy-OPLS-2005>
1180.53100585938

> <r_mmod_Stretch_Energy-OPLS-2005>
667.244506835938

> <r_mmod_Bend_Energy-OPLS-2005>
509.703399658203

> <r_mmod_Torsional_Energy-OPLS-2005>
281.245513916016

> <r_mmod_Improper_Torsional_Energy-OPLS-2005>
4.77076721191406

> <r_mmod_Van_der_Waal_Energy-OPLS-2005>
115.060615539551

> <r_mmod_Electrostatic_Energy-OPLS-2005>
-336.442932128906

> <r_mmod_Solvation_Energy-OPLS-2005>
-532.70361328125

> <b_mmod_Minimization_Converged-OPLS-2005>
0

> <r_mmod_RMS_Derivative-OPLS-2005>
6.33513450622559

$$$$
88
                    3D
 Structure written by MMmdl.
163171  0  0  1  0            999 V2000
  -30.7373  -14.4600   20.6109 C   0  0  0  0  0  0
  -30.4295  -12.3138   19.4184 C   0  0  0  0  0  0
  -29.4966  -12.4904   18.2040 C   0  0  0  0  0  0
  -28.0211  -12.3438   18.6239 C   0  0  0  0  0  0
  -27.6686  -13.1968   19.8712 C   0  0  2  0  0  0
  -28.7119  -12.9908   20.9921 C   0  0  0  0  0  0
  -25.2675  -13.8162   20.5717 C   0  0  0  0  0  0
  -24.1876  -13.0452   20.9139 C   0  0  0  0  0  0
  -24.6405  -11.6924   20.8713 C   0  0  0  0  0  0
  -23.9071  -10.4308   21.0403 C   0  0  0  0  0  0
  -24.3601   -9.4211   21.9178 C   0  0  0  0  0  0
  -23.6282   -8.2244   22.0745 C   0  0  0  0  0  0
  -22.4270   -8.0281   21.3534 C   0  0  0  0  0  0
  -21.9910   -9.0255   20.4636 C   0  0  0  0  0  0
  -22.7244  -10.2144   20.3056 C   0  0  0  0  0  0
  -21.6843   -6.0756   22.5299 C   0  0  0  0  0  0
  -21.4001   -6.5653   23.8226 C   0  0  0  0  0  0
  -21.3663   -5.6798   24.9177 C   0  0  0  0  0  0
  -21.6049   -4.3059   24.7221 C   0  0  0  0  0  0
  -21.8822   -3.8171   23.4330 C   0  0  0  0  0  0
  -21.9194   -4.6996   22.3403 C   0  0  0  0  0  0
  -22.7907  -13.5265   21.1802 C   0  0  0  0  0  0
  -22.1664   -4.2169   21.0972 F   0  0  0  0  0  0
  -21.5642   -3.4551   25.7730 F   0  0  0  0  0  0
  -30.0405  -13.3019   20.4356 N   0  0  0  0  0  0
  -26.3082  -12.9285   20.3374 N   0  0  0  0  0  0
  -25.9318  -11.6473   20.5750 N   0  0  0  0  0  0
  -22.0510  -12.8266   22.0347 N   0  0  0  0  0  0
  -25.4541  -15.1871   20.4274 N   0  0  0  0  0  0
  -31.8371  -14.6607   20.0891 O   0  0  0  0  0  0
  -21.6635   -6.8882   21.4241 O   0  0  0  0  0  0
  -22.3617  -14.5590   20.6675 O   0  0  0  0  0  0
  -24.6116  -31.8667   23.2130 C   0  0  0  0  0  0
  -25.8990  -32.4819   23.8444 C   0  0  1  0  0  0
  -27.2492  -27.4314   20.1144 C   0  0  0  0  0  0
  -25.5852  -33.8622   24.2359 N   0  0  0  0  0  0
  -23.4037  -30.4882   21.5497 C   0  0  2  0  0  0
  -24.8578  -28.9422   20.1263 C   0  0  0  0  0  0
  -22.7365  -29.4683   22.5039 C   0  0  0  0  0  0
  -18.0313  -28.1478   22.8318 C   0  0  0  0  0  0
  -24.1468  -36.7341   23.2635 C   0  0  0  0  0  0
  -25.9290  -30.8325   21.3659 C   0  0  0  0  0  0
  -26.0140  -29.4604   20.7256 C   0  0  0  0  0  0
  -27.2141  -28.7082   20.7262 C   0  0  0  0  0  0
  -26.0834  -26.9335   19.5021 C   0  0  0  0  0  0
  -24.8862  -27.6759   19.5134 C   0  0  0  0  0  0
  -23.6181  -29.8080   20.1705 C   0  0  0  0  0  0
  -25.4073  -36.3109   24.0348 C   0  0  1  0  0  0
  -20.5829  -28.3730   23.1418 C   0  0  2  0  0  0
  -20.6696  -26.9400   22.5575 C   0  0  0  0  0  0
  -19.5913  -26.6685   21.5075 C   0  0  0  0  0  0
  -18.1955  -26.8177   22.1168 C   0  0  0  0  0  0
  -19.1504  -28.8891   23.2920 C   0  0  0  0  0  0
  -18.9374  -30.1407   23.9087 C   0  0  0  0  0  0
  -17.6367  -30.6500   24.0706 C   0  0  0  0  0  0
  -25.9005  -34.9454   23.5143 C   0  0  0  0  0  0
  -16.5291  -29.9060   23.6261 C   0  0  0  0  0  0
  -16.7296  -28.6572   23.0127 C   0  0  0  0  0  0
  -26.4447  -31.6599   25.0755 C   0  0  0  0  0  0
  -25.3794  -31.3669   26.1572 C   0  0  0  0  0  0
  -27.0281  -30.3053   24.6108 C   0  0  0  0  0  0
  -27.6012  -32.4334   25.7515 C   0  0  0  0  0  0
  -27.5567  -37.1803   24.8454 C   0  0  0  0  0  0
  -21.4095  -29.3062   22.3782 N   0  0  0  0  0  0
  -26.4274  -37.3771   23.9385 N   0  0  0  0  0  0
  -24.6648  -31.0789   22.1008 N   0  0  0  0  0  0
  -23.4135  -28.8233   23.3101 O   0  0  0  0  0  0
  -28.3860  -26.6527   20.0794 O   0  0  0  0  0  0
  -26.5568  -34.8895   22.4708 O   0  0  0  0  0  0
  -23.5314  -32.1413   23.7525 O   0  0  0  0  0  0
  -29.1004  -18.0298   20.0991 C   0  0  0  0  0  0
  -29.6689  -19.0837   21.9749 C   0  0  0  0  0  0
  -29.8574  -17.9076   21.2937 C   0  0  0  0  0  0
  -28.4304  -19.2219   20.1090 C   0  0  0  0  0  0
  -27.4625  -19.7283   19.0835 C   0  0  0  0  0  0
  -30.8878  -25.1362   20.2676 C   0  0  0  0  0  0
  -30.6941  -16.7141   21.7247 C   0  0  0  0  0  0
  -29.1684  -22.3482   21.9149 C   0  0  0  0  0  0
  -28.9980  -23.4479   20.8267 C   0  0  0  0  0  0
  -28.2007  -21.1398   21.8186 C   0  0  0  0  0  0
  -28.7202  -26.0219   21.3246 C   0  0  0  0  0  0
  -29.6887  -24.8076   21.1786 C   0  0  2  0  0  0
  -28.7648  -19.8865   21.2869 N   0  0  0  0  0  0
  -30.1294  -15.4119   21.3367 N   0  0  0  0  0  0
  -31.4710  -12.4135   19.1083 H   0  0  0  0  0  0
  -30.3319  -11.3053   19.8252 H   0  0  0  0  0  0
  -29.7364  -11.7520   17.4368 H   0  0  0  0  0  0
  -29.6595  -13.4728   17.7583 H   0  0  0  0  0  0
  -27.8417  -11.2887   18.8403 H   0  0  0  0  0  0
  -27.3646  -12.5963   17.7919 H   0  0  0  0  0  0
  -27.7132  -14.2402   19.5593 H   0  0  0  0  0  0
  -28.6954  -11.9560   21.3383 H   0  0  0  0  0  0
  -28.4579  -13.5907   21.8668 H   0  0  0  0  0  0
  -25.2722   -9.5731   22.4765 H   0  0  0  0  0  0
  -24.0024   -7.4642   22.7458 H   0  0  0  0  0  0
  -21.0862   -8.8772   19.8916 H   0  0  0  0  0  0
  -22.3693  -10.9686   19.6189 H   0  0  0  0  0  0
  -21.1972   -7.6141   23.9727 H   0  0  0  0  0  0
  -21.1487   -6.0515   25.9070 H   0  0  0  0  0  0
  -22.0598   -2.7618   23.2835 H   0  0  0  0  0  0
  -22.4080  -11.9890   22.4711 H   0  0  0  0  0  0
  -21.1145  -13.1341   22.2534 H   0  0  0  0  0  0
  -24.7206  -15.8667   20.5938 H   0  0  0  0  0  0
  -26.3467  -15.6125   20.2104 H   0  0  0  0  0  0
  -26.7085  -32.5555   23.1246 H   0  0  0  0  0  0
  -25.0004  -33.9817   25.0506 H   0  0  0  0  0  0
  -22.6962  -31.3064   21.4021 H   0  0  0  0  0  0
  -23.3710  -35.9712   23.3313 H   0  0  0  0  0  0
  -24.3568  -36.8938   22.2054 H   0  0  0  0  0  0
  -23.7267  -37.6558   23.6656 H   0  0  0  0  0  0
  -26.0254  -31.5940   20.5889 H   0  0  0  0  0  0
  -26.8208  -30.9015   21.9780 H   0  0  0  0  0  0
  -28.1094  -29.1063   21.1818 H   0  0  0  0  0  0
  -26.1111  -25.9652   19.0237 H   0  0  0  0  0  0
  -23.9968  -27.2712   19.0475 H   0  0  0  0  0  0
  -23.7286  -30.5710   19.4031 H   0  0  0  0  0  0
  -22.7472  -29.2175   19.8781 H   0  0  0  0  0  0
  -25.1249  -36.2004   25.0861 H   0  0  0  0  0  0
  -20.9882  -28.3364   24.1554 H   0  0  0  0  0  0
  -20.5248  -26.2280   23.3704 H   0  0  0  0  0  0
  -21.6625  -26.7324   22.1582 H   0  0  0  0  0  0
  -19.7099  -25.6706   21.0869 H   0  0  0  0  0  0
  -19.7103  -27.3760   20.6829 H   0  0  0  0  0  0
  -17.4503  -26.7413   21.3225 H   0  0  0  0  0  0
  -17.9942  -26.0044   22.8148 H   0  0  0  0  0  0
  -19.7781  -30.7212   24.2647 H   0  0  0  0  0  0
  -17.4786  -31.6052   24.5490 H   0  0  0  0  0  0
  -15.5234  -30.2865   23.7585 H   0  0  0  0  0  0
  -15.8764  -28.0936   22.6597 H   0  0  0  0  0  0
  -24.5987  -30.6950   25.8012 H   0  0  0  0  0  0
  -24.8982  -32.2779   26.5118 H   0  0  0  0  0  0
  -25.8252  -30.8859   27.0293 H   0  0  0  0  0  0
  -26.2813  -29.6845   24.1146 H   0  0  0  0  0  0
  -27.4009  -29.7250   25.4558 H   0  0  0  0  0  0
  -27.8670  -30.4371   23.9275 H   0  0  0  0  0  0
  -27.2604  -33.3602   26.2152 H   0  0  0  0  0  0
  -28.3776  -32.6950   25.0319 H   0  0  0  0  0  0
  -28.0726  -31.8443   26.5387 H   0  0  0  0  0  0
  -28.2570  -38.0109   24.7454 H   0  0  0  0  0  0
  -28.1057  -36.2610   24.6314 H   0  0  0  0  0  0
  -27.2278  -37.1511   25.8862 H   0  0  0  0  0  0
  -20.9266  -29.8860   21.7084 H   0  0  0  0  0  0
  -26.0179  -38.2862   24.1377 H   0  0  0  0  0  0
  -29.0242  -17.2928   19.3109 H   0  0  0  0  0  0
  -30.0644  -19.4046   22.9333 H   0  0  0  0  0  0
  -27.1156  -20.7434   19.2606 H   0  0  0  0  0  0
  -27.9125  -19.7139   18.0891 H   0  0  0  0  0  0
  -26.5888  -19.0745   19.0315 H   0  0  0  0  0  0
  -31.6394  -24.3460   20.2992 H   0  0  0  0  0  0
  -31.3828  -26.0528   20.5860 H   0  0  0  0  0  0
  -30.5912  -25.2778   19.2269 H   0  0  0  0  0  0
  -30.7882  -16.7320   22.8105 H   0  0  0  0  0  0
  -31.7046  -16.8542   21.3409 H   0  0  0  0  0  0
  -28.9639  -22.8146   22.8791 H   0  0  0  0  0  0
  -30.2050  -22.0108   21.9705 H   0  0  0  0  0  0
  -27.9343  -23.6262   20.6741 H   0  0  0  0  0  0
  -29.3641  -23.0693   19.8723 H   0  0  0  0  0  0
  -27.2897  -21.4115   21.2903 H   0  0  0  0  0  0
  -27.8529  -20.9095   22.8258 H   0  0  0  0  0  0
  -29.1867  -26.7731   21.9640 H   0  0  0  0  0  0
  -27.8167  -25.7018   21.8487 H   0  0  0  0  0  0
  -30.1230  -24.6751   22.1698 H   0  0  0  0  0  0
  -29.2096  -15.1970   21.6937 H   0  0  0  0  0  0
  1 25  1  0  0  0
  1 30  2  0  0  0
  1 84  1  0  0  0
  2  3  1  0  0  0
  2 25  1  0  0  0
  2 85  1  0  0  0
  2 86  1  0  0  0
  3  4  1  0  0  0
  3 87  1  0  0  0
  3 88  1  0  0  0
  4  5  1  0  0  0
  4 89  1  0  0  0
  4 90  1  0  0  0
  5  6  1  0  0  0
  5 26  1  0  0  0
  5 91  1  0  0  0
  6 25  1  0  0  0
  6 92  1  0  0  0
  6 93  1  0  0  0
  7  8  2  0  0  0
  7 26  1  0  0  0
  7 29  1  0  0  0
  8  9  1  0  0  0
  8 22  1  0  0  0
  9 10  1  0  0  0
  9 27  2  0  0  0
 10 11  2  0  0  0
 10 15  1  0  0  0
 11 12  1  0  0  0
 11 94  1  0  0  0
 12 13  2  0  0  0
 12 95  1  0  0  0
 13 14  1  0  0  0
 13 31  1  0  0  0
 14 15  2  0  0  0
 14 96  1  0  0  0
 15 97  1  0  0  0
 16 17  2  0  0  0
 16 21  1  0  0  0
 16 31  1  0  0  0
 17 18  1  0  0  0
 17 98  1  0  0  0
 18 19  2  0  0  0
 18 99  1  0  0  0
 19 20  1  0  0  0
 19 24  1  0  0  0
 20 21  2  0  0  0
 20100  1  0  0  0
 21 23  1  0  0  0
 22 28  1  0  0  0
 22 32  2  0  0  0
 26 27  1  0  0  0
 28101  1  0  0  0
 28102  1  0  0  0
 29103  1  0  0  0
 29104  1  0  0  0
 33 34  1  0  0  0
 33 66  1  0  0  0
 33 70  2  0  0  0
 34 36  1  0  0  0
 34 59  1  0  0  0
 34105  1  0  0  0
 35 44  2  0  0  0
 35 45  1  0  0  0
 35 68  1  0  0  0
 36 56  1  0  0  0
 36106  1  0  0  0
 37 39  1  0  0  0
 37 47  1  0  0  0
 37 66  1  0  0  0
 37107  1  0  0  0
 38 43  2  0  0  0
 38 46  1  0  0  0
 38 47  1  0  0  0
 39 64  1  0  0  0
 39 67  2  0  0  0
 40 52  1  0  0  0
 40 53  2  0  0  0
 40 58  1  0  0  0
 41108  1  0  0  0
 41109  1  0  0  0
 41110  1  0  0  0
 41 48  1  0  0  0
 42 43  1  0  0  0
 42 66  1  0  0  0
 42111  1  0  0  0
 42112  1  0  0  0
 43 44  1  0  0  0
 44113  1  0  0  0
 45 46  2  0  0  0
 45114  1  0  0  0
 46115  1  0  0  0
 47116  1  0  0  0
 47117  1  0  0  0
 48 56  1  0  0  0
 48 65  1  0  0  0
 48118  1  0  0  0
 49 50  1  0  0  0
 49 53  1  0  0  0
 49 64  1  0  0  0
 49119  1  0  0  0
 50 51  1  0  0  0
 50120  1  0  0  0
 50121  1  0  0  0
 51 52  1  0  0  0
 51122  1  0  0  0
 51123  1  0  0  0
 52124  1  0  0  0
 52125  1  0  0  0
 53 54  1  0  0  0
 54 55  2  0  0  0
 54126  1  0  0  0
 55 57  1  0  0  0
 55127  1  0  0  0
 56 69  2  0  0  0
 57 58  2  0  0  0
 57128  1  0  0  0
 58129  1  0  0  0
 59 60  1  0  0  0
 59 61  1  0  0  0
 59 62  1  0  0  0
 60130  1  0  0  0
 60131  1  0  0  0
 60132  1  0  0  0
 61133  1  0  0  0
 61134  1  0  0  0
 61135  1  0  0  0
 62136  1  0  0  0
 62137  1  0  0  0
 62138  1  0  0  0
 63 65  1  0  0  0
 63139  1  0  0  0
 63140  1  0  0  0
 63141  1  0  0  0
 64142  1  0  0  0
 65143  1  0  0  0
 68 81  1  0  0  0
 71 73  1  0  0  0
 71 74  2  0  0  0
 71144  1  0  0  0
 72 73  2  0  0  0
 72 83  1  0  0  0
 72145  1  0  0  0
 73 77  1  0  0  0
 74 75  1  0  0  0
 74 83  1  0  0  0
 75146  1  0  0  0
 75147  1  0  0  0
 75148  1  0  0  0
 76149  1  0  0  0
 76150  1  0  0  0
 76151  1  0  0  0
 76 82  1  0  0  0
 77 84  1  0  0  0
 77152  1  0  0  0
 77153  1  0  0  0
 78 79  1  0  0  0
 78 80  1  0  0  0
 78154  1  0  0  0
 78155  1  0  0  0
 79 82  1  0  0  0
 79156  1  0  0  0
 79157  1  0  0  0
 80 83  1  0  0  0
 80158  1  0  0  0
 80159  1  0  0  0
 81 82  1  0  0  0
 81160  1  0  0  0
 81161  1  0  0  0
 82162  1  0  0  0
 84163  1  0  0  0
M  ISO  4   1 100  68 101  81 101  84 100
M  END
> <chiral flag>
0

> <version>
0

> <s_m_source_file>
/data/baiqing/PycharmProjects/Reinvent-master-3.2/result/LINK_invent/BTK/process_docking_weight1_custom_sum_contain_oxygen_bond_distance_aromatic_linkinvent_7_9_3/rearranged_h_0099.sdf

> <i_m_source_file_index>
89

> <r_mmod_Potential_Energy-OPLS-2005>
-84.643913269043

> <r_mmod_Stretch_Energy-OPLS-2005>
37.8151512145996

> <r_mmod_Bend_Energy-OPLS-2005>
106.95336151123

> <r_mmod_Torsional_Energy-OPLS-2005>
257.943328857422

> <r_mmod_Improper_Torsional_Energy-OPLS-2005>
2.3634729385376

> <r_mmod_Van_der_Waal_Energy-OPLS-2005>
120.487648010254

> <r_mmod_Electrostatic_Energy-OPLS-2005>
-418.817596435547

> <r_mmod_Solvation_Energy-OPLS-2005>
-204.327438354492

> <b_mmod_Minimization_Converged-OPLS-2005>
0

> <r_mmod_RMS_Derivative-OPLS-2005>
6.51827144622803

$$$$
89
                    3D
 Structure written by MMmdl.
170178  0  0  1  0            999 V2000
  -30.8289  -14.3502   20.6758 C   0  0  0  0  0  0
  -30.4103  -12.2947   19.3939 C   0  0  0  0  0  0
  -29.4838  -12.5422   18.1911 C   0  0  0  0  0  0
  -28.0107  -12.3909   18.6098 C   0  0  0  0  0  0
  -27.6700  -13.2168   19.8800 C   0  0  2  0  0  0
  -28.7150  -12.9919   21.0001 C   0  0  0  0  0  0
  -25.2628  -13.8220   20.5661 C   0  0  0  0  0  0
  -24.1876  -13.0507   20.9123 C   0  0  0  0  0  0
  -24.6402  -11.6957   20.8675 C   0  0  0  0  0  0
  -23.9049  -10.4351   21.0350 C   0  0  0  0  0  0
  -24.3607   -9.4295   21.9161 C   0  0  0  0  0  0
  -23.6299   -8.2321   22.0747 C   0  0  0  0  0  0
  -22.4280   -8.0325   21.3546 C   0  0  0  0  0  0
  -21.9893   -9.0285   20.4643 C   0  0  0  0  0  0
  -22.7199  -10.2175   20.3039 C   0  0  0  0  0  0
  -21.6894   -6.0739   22.5257 C   0  0  0  0  0  0
  -21.4024   -6.5637   23.8180 C   0  0  0  0  0  0
  -21.3656   -5.6791   24.9138 C   0  0  0  0  0  0
  -21.6059   -4.3056   24.7207 C   0  0  0  0  0  0
  -21.8836   -3.8149   23.4331 C   0  0  0  0  0  0
  -21.9213   -4.6961   22.3386 C   0  0  0  0  0  0
  -22.7890  -13.5266   21.1817 C   0  0  0  0  0  0
  -22.1706   -4.2141   21.0968 F   0  0  0  0  0  0
  -21.5610   -3.4551   25.7723 F   0  0  0  0  0  0
  -30.0663  -13.2456   20.4625 N   0  0  0  0  0  0
  -26.3082  -12.9399   20.3400 N   0  0  0  0  0  0
  -25.9337  -11.6544   20.5731 N   0  0  0  0  0  0
  -22.0563  -12.8249   22.0371 N   0  0  0  0  0  0
  -25.4437  -15.1938   20.4027 N   0  0  0  0  0  0
  -31.8234  -14.6209   19.9976 O   0  0  0  0  0  0
  -21.6708   -6.8888   21.4213 O   0  0  0  0  0  0
  -22.3577  -14.5598   20.6675 O   0  0  0  0  0  0
  -24.6086  -31.8707   23.2124 C   0  0  0  0  0  0
  -25.9026  -32.4827   23.8386 C   0  0  1  0  0  0
  -27.2423  -27.5062   20.0752 C   0  0  0  0  0  0
  -25.5924  -33.8630   24.2310 N   0  0  0  0  0  0
  -23.3899  -30.4941   21.5496 C   0  0  2  0  0  0
  -24.8403  -28.9709   20.1012 C   0  0  0  0  0  0
  -22.7361  -29.4640   22.5001 C   0  0  0  0  0  0
  -18.0258  -28.1365   22.8546 C   0  0  0  0  0  0
  -24.1476  -36.7341   23.2630 C   0  0  0  0  0  0
  -25.9068  -30.8589   21.3498 C   0  0  0  0  0  0
  -25.9871  -29.4941   20.7094 C   0  0  0  0  0  0
  -27.1836  -28.7576   20.7143 C   0  0  0  0  0  0
  -26.0908  -26.9834   19.4477 C   0  0  0  0  0  0
  -24.8850  -27.7133   19.4662 C   0  0  0  0  0  0
  -23.5972  -29.8306   20.1593 C   0  0  0  0  0  0
  -25.4096  -36.3095   24.0306 C   0  0  1  0  0  0
  -20.5844  -28.3603   23.1410 C   0  0  2  0  0  0
  -20.6761  -26.9355   22.5466 C   0  0  0  0  0  0
  -19.5719  -26.6370   21.5278 C   0  0  0  0  0  0
  -18.1888  -26.7920   22.1660 C   0  0  0  0  0  0
  -19.1515  -28.8811   23.2971 C   0  0  0  0  0  0
  -18.9432  -30.1439   23.8939 C   0  0  0  0  0  0
  -17.6438  -30.6585   24.0582 C   0  0  0  0  0  0
  -25.9033  -34.9475   23.5085 C   0  0  0  0  0  0
  -16.5327  -29.9090   23.6340 C   0  0  0  0  0  0
  -16.7252  -28.6510   23.0349 C   0  0  0  0  0  0
  -26.4503  -31.6594   25.0693 C   0  0  0  0  0  0
  -25.3836  -31.3707   26.1496 C   0  0  0  0  0  0
  -27.0324  -30.3045   24.6004 C   0  0  0  0  0  0
  -27.6051  -32.4328   25.7481 C   0  0  0  0  0  0
  -27.5560  -37.1819   24.8458 C   0  0  0  0  0  0
  -21.4089  -29.2988   22.3810 N   0  0  0  0  0  0
  -26.4264  -37.3796   23.9409 N   0  0  0  0  0  0
  -24.6519  -31.0868   22.0996 N   0  0  0  0  0  0
  -23.4200  -28.8195   23.3006 O   0  0  0  0  0  0
  -28.3984  -26.7956   20.2107 O   0  0  0  0  0  0
  -26.5555  -34.8929   22.4623 O   0  0  0  0  0  0
  -23.5293  -32.1428   23.7582 O   0  0  0  0  0  0
  -29.8859  -19.3013   19.0120 C   0  0  0  0  0  0
  -31.5008  -18.5999   20.6620 C   0  0  0  0  0  0
  -29.1358  -18.1576   19.3308 C   0  0  0  0  0  0
  -31.0944  -19.5444   19.6990 C   0  0  0  0  0  0
  -30.6875  -17.4749   20.9089 C   0  0  0  0  0  0
  -28.6025  -23.8852   18.9874 C   0  0  0  0  0  0
  -29.8114  -24.7776   21.0280 C   0  0  0  0  0  0
  -31.9888  -25.7806   18.8833 C   0  0  0  0  0  0
  -31.9323  -20.7917   19.4237 C   0  0  0  0  0  0
  -31.0885  -16.4350   21.9489 C   0  0  0  0  0  0
  -31.0642  -22.0533   19.2627 C   0  0  0  0  0  0
  -31.8155  -23.4004   19.2761 C   0  0  0  0  0  0
  -29.0945  -26.2909   19.0859 C   0  0  0  0  0  0
  -29.6906  -24.8839   19.4778 C   0  0  0  0  0  0
  -29.5166  -17.2648   20.2654 N   0  0  0  0  0  0
  -30.4828  -15.1208   21.7099 N   0  0  0  0  0  0
  -31.0476  -24.6191   18.8352 N   0  3  1  0  0  0
  -31.4537  -12.3715   19.0828 H   0  0  0  0  0  0
  -30.2877  -11.2778   19.7624 H   0  0  0  0  0  0
  -29.7162  -11.8418   17.3883 H   0  0  0  0  0  0
  -29.6538  -13.5413   17.7828 H   0  0  0  0  0  0
  -27.8195  -11.3310   18.7866 H   0  0  0  0  0  0
  -27.3566  -12.6871   17.7901 H   0  0  0  0  0  0
  -27.7161  -14.2688   19.5926 H   0  0  0  0  0  0
  -28.6682  -11.9625   21.3546 H   0  0  0  0  0  0
  -28.4732  -13.6128   21.8624 H   0  0  0  0  0  0
  -25.2763   -9.5810   22.4710 H   0  0  0  0  0  0
  -24.0052   -7.4722   22.7454 H   0  0  0  0  0  0
  -21.0840   -8.8770   19.8937 H   0  0  0  0  0  0
  -22.3640  -10.9697   19.6149 H   0  0  0  0  0  0
  -21.2034   -7.6152   23.9647 H   0  0  0  0  0  0
  -21.1456   -6.0552   25.9032 H   0  0  0  0  0  0
  -22.0620   -2.7606   23.2842 H   0  0  0  0  0  0
  -22.4204  -11.9921   22.4788 H   0  0  0  0  0  0
  -21.1155  -13.1230   22.2518 H   0  0  0  0  0  0
  -24.6932  -15.8689   20.4947 H   0  0  0  0  0  0
  -26.3220  -15.6113   20.1194 H   0  0  0  0  0  0
  -26.7104  -32.5575   23.1168 H   0  0  0  0  0  0
  -25.0183  -33.9814   25.0519 H   0  0  0  0  0  0
  -22.6739  -31.3068   21.4133 H   0  0  0  0  0  0
  -23.3687  -35.9725   23.3289 H   0  0  0  0  0  0
  -24.3574  -36.8976   22.2049 H   0  0  0  0  0  0
  -23.7296  -37.6565   23.6675 H   0  0  0  0  0  0
  -25.9929  -31.6115   20.5648 H   0  0  0  0  0  0
  -26.8078  -30.9369   21.9455 H   0  0  0  0  0  0
  -28.0596  -29.1436   21.2181 H   0  0  0  0  0  0
  -26.1157  -26.0151   18.9704 H   0  0  0  0  0  0
  -24.0045  -27.3162   18.9803 H   0  0  0  0  0  0
  -23.7131  -30.6131   19.4084 H   0  0  0  0  0  0
  -22.7219  -29.2566   19.8530 H   0  0  0  0  0  0
  -25.1274  -36.1925   25.0794 H   0  0  0  0  0  0
  -20.9955  -28.3132   24.1525 H   0  0  0  0  0  0
  -20.5738  -26.2172   23.3620 H   0  0  0  0  0  0
  -21.6619  -26.7440   22.1210 H   0  0  0  0  0  0
  -19.6857  -25.6304   21.1252 H   0  0  0  0  0  0
  -19.6660  -27.3245   20.6868 H   0  0  0  0  0  0
  -17.4188  -26.6747   21.4018 H   0  0  0  0  0  0
  -18.0200  -26.0050   22.9030 H   0  0  0  0  0  0
  -19.7905  -30.7274   24.2280 H   0  0  0  0  0  0
  -17.4979  -31.6273   24.5159 H   0  0  0  0  0  0
  -15.5324  -30.2992   23.7638 H   0  0  0  0  0  0
  -15.8649  -28.0856   22.6989 H   0  0  0  0  0  0
  -24.5982  -30.7045   25.7909 H   0  0  0  0  0  0
  -24.9081  -32.2888   26.4968 H   0  0  0  0  0  0
  -25.8288  -30.8911   27.0222 H   0  0  0  0  0  0
  -26.2831  -29.6780   24.1151 H   0  0  0  0  0  0
  -27.4228  -29.7307   25.4414 H   0  0  0  0  0  0
  -27.8600  -30.4346   23.9025 H   0  0  0  0  0  0
  -27.2608  -33.3588   26.2090 H   0  0  0  0  0  0
  -28.3891  -32.6952   25.0370 H   0  0  0  0  0  0
  -28.0693  -31.8451   26.5409 H   0  0  0  0  0  0
  -28.2561  -38.0117   24.7478 H   0  0  0  0  0  0
  -28.1053  -36.2656   24.6288 H   0  0  0  0  0  0
  -27.2292  -37.1488   25.8859 H   0  0  0  0  0  0
  -20.9204  -29.8713   21.7076 H   0  0  0  0  0  0
  -26.0117  -38.2841   24.1454 H   0  0  0  0  0  0
  -29.5073  -19.9734   18.2570 H   0  0  0  0  0  0
  -32.4245  -18.7325   21.2103 H   0  0  0  0  0  0
  -28.1942  -17.9633   18.8396 H   0  0  0  0  0  0
  -27.6008  -24.2438   19.2337 H   0  0  0  0  0  0
  -28.6388  -22.9008   19.4402 H   0  0  0  0  0  0
  -28.6359  -23.7482   17.9056 H   0  0  0  0  0  0
  -28.8423  -24.8834   21.5170 H   0  0  0  0  0  0
  -30.4587  -25.5593   21.4252 H   0  0  0  0  0  0
  -30.1970  -23.8238   21.3780 H   0  0  0  0  0  0
  -32.9984  -25.5029   18.5816 H   0  0  0  0  0  0
  -32.0828  -26.2035   19.8847 H   0  0  0  0  0  0
  -31.7128  -26.5728   18.1896 H   0  0  0  0  0  0
  -32.5164  -20.6255   18.5207 H   0  0  0  0  0  0
  -32.6503  -20.9231   20.2361 H   0  0  0  0  0  0
  -30.7999  -16.8067   22.9306 H   0  0  0  0  0  0
  -32.1763  -16.3449   21.9617 H   0  0  0  0  0  0
  -30.3631  -22.0275   20.0928 H   0  0  0  0  0  0
  -30.5038  -21.9775   18.3318 H   0  0  0  0  0  0
  -32.6708  -23.2911   18.6064 H   0  0  0  0  0  0
  -32.2422  -23.5775   20.2639 H   0  0  0  0  0  0
  -28.4965  -26.2638   18.1739 H   0  0  0  0  0  0
  -29.8365  -27.0627   18.9179 H   0  0  0  0  0  0
  -29.6718  -14.8724   22.2536 H   0  0  0  0  0  0
  -30.8743  -24.4950   17.8468 H   0  0  0  0  0  0
  1 25  1  0  0  0
  1 30  2  0  0  0
  1 86  1  0  0  0
  2  3  1  0  0  0
  2 25  1  0  0  0
  2 88  1  0  0  0
  2 89  1  0  0  0
  3  4  1  0  0  0
  3 90  1  0  0  0
  3 91  1  0  0  0
  4  5  1  0  0  0
  4 92  1  0  0  0
  4 93  1  0  0  0
  5  6  1  0  0  0
  5 26  1  0  0  0
  5 94  1  0  0  0
  6 25  1  0  0  0
  6 95  1  0  0  0
  6 96  1  0  0  0
  7  8  2  0  0  0
  7 26  1  0  0  0
  7 29  1  0  0  0
  8  9  1  0  0  0
  8 22  1  0  0  0
  9 10  1  0  0  0
  9 27  2  0  0  0
 10 11  2  0  0  0
 10 15  1  0  0  0
 11 12  1  0  0  0
 11 97  1  0  0  0
 12 13  2  0  0  0
 12 98  1  0  0  0
 13 14  1  0  0  0
 13 31  1  0  0  0
 14 15  2  0  0  0
 14 99  1  0  0  0
 15100  1  0  0  0
 16 17  2  0  0  0
 16 21  1  0  0  0
 16 31  1  0  0  0
 17 18  1  0  0  0
 17101  1  0  0  0
 18 19  2  0  0  0
 18102  1  0  0  0
 19 20  1  0  0  0
 19 24  1  0  0  0
 20 21  2  0  0  0
 20103  1  0  0  0
 21 23  1  0  0  0
 22 28  1  0  0  0
 22 32  2  0  0  0
 26 27  1  0  0  0
 28104  1  0  0  0
 28105  1  0  0  0
 29106  1  0  0  0
 29107  1  0  0  0
 33 34  1  0  0  0
 33 66  1  0  0  0
 33 70  2  0  0  0
 34 36  1  0  0  0
 34 59  1  0  0  0
 34108  1  0  0  0
 35 44  2  0  0  0
 35 45  1  0  0  0
 35 68  1  0  0  0
 36 56  1  0  0  0
 36109  1  0  0  0
 37 39  1  0  0  0
 37 47  1  0  0  0
 37 66  1  0  0  0
 37110  1  0  0  0
 38 43  2  0  0  0
 38 46  1  0  0  0
 38 47  1  0  0  0
 39 64  1  0  0  0
 39 67  2  0  0  0
 40 52  1  0  0  0
 40 53  2  0  0  0
 40 58  1  0  0  0
 41111  1  0  0  0
 41112  1  0  0  0
 41113  1  0  0  0
 41 48  1  0  0  0
 42 43  1  0  0  0
 42 66  1  0  0  0
 42114  1  0  0  0
 42115  1  0  0  0
 43 44  1  0  0  0
 44116  1  0  0  0
 45 46  2  0  0  0
 45117  1  0  0  0
 46118  1  0  0  0
 47119  1  0  0  0
 47120  1  0  0  0
 48 56  1  0  0  0
 48 65  1  0  0  0
 48121  1  0  0  0
 49 50  1  0  0  0
 49 53  1  0  0  0
 49 64  1  0  0  0
 49122  1  0  0  0
 50 51  1  0  0  0
 50123  1  0  0  0
 50124  1  0  0  0
 51 52  1  0  0  0
 51125  1  0  0  0
 51126  1  0  0  0
 52127  1  0  0  0
 52128  1  0  0  0
 53 54  1  0  0  0
 54 55  2  0  0  0
 54129  1  0  0  0
 55 57  1  0  0  0
 55130  1  0  0  0
 56 69  2  0  0  0
 57 58  2  0  0  0
 57131  1  0  0  0
 58132  1  0  0  0
 59 60  1  0  0  0
 59 61  1  0  0  0
 59 62  1  0  0  0
 60133  1  0  0  0
 60134  1  0  0  0
 60135  1  0  0  0
 61136  1  0  0  0
 61137  1  0  0  0
 61138  1  0  0  0
 62139  1  0  0  0
 62140  1  0  0  0
 62141  1  0  0  0
 63 65  1  0  0  0
 63142  1  0  0  0
 63143  1  0  0  0
 63144  1  0  0  0
 64145  1  0  0  0
 65146  1  0  0  0
 68 83  1  0  0  0
 71 73  2  0  0  0
 71 74  1  0  0  0
 71147  1  0  0  0
 72 74  2  0  0  0
 72 75  1  0  0  0
 72148  1  0  0  0
 73 85  1  0  0  0
 73149  1  0  0  0
 74 79  1  0  0  0
 75 80  1  0  0  0
 75 85  2  0  0  0
 76150  1  0  0  0
 76151  1  0  0  0
 76152  1  0  0  0
 76 84  1  0  0  0
 77 84  1  0  0  0
 77153  1  0  0  0
 77154  1  0  0  0
 77155  1  0  0  0
 78156  1  0  0  0
 78157  1  0  0  0
 78158  1  0  0  0
 78 87  1  0  0  0
 79 81  1  0  0  0
 79159  1  0  0  0
 79160  1  0  0  0
 80 86  1  0  0  0
 80161  1  0  0  0
 80162  1  0  0  0
 81 82  1  0  0  0
 81163  1  0  0  0
 81164  1  0  0  0
 82 87  1  0  0  0
 82165  1  0  0  0
 82166  1  0  0  0
 83 84  1  0  0  0
 83167  1  0  0  0
 83168  1  0  0  0
 84 87  1  0  0  0
 86169  1  0  0  0
 87170  1  0  0  0
M  CHG  1  87   1
M  ISO  4   1 100  68 101  83 101  86 100
M  END
> <chiral flag>
0

> <version>
0

> <s_m_source_file>
/data/baiqing/PycharmProjects/Reinvent-master-3.2/result/LINK_invent/BTK/process_docking_weight1_custom_sum_contain_oxygen_bond_distance_aromatic_linkinvent_7_9_3/rearranged_h_0099.sdf

> <i_m_source_file_index>
90

> <r_mmod_Potential_Energy-OPLS-2005>
-325.715576171875

> <r_mmod_Stretch_Energy-OPLS-2005>
43.404899597168

> <r_mmod_Bend_Energy-OPLS-2005>
125.98168182373

> <r_mmod_Torsional_Energy-OPLS-2005>
239.030014038086

> <r_mmod_Improper_Torsional_Energy-OPLS-2005>
2.5779435634613

> <r_mmod_Van_der_Waal_Energy-OPLS-2005>
188.15950012207

> <r_mmod_Electrostatic_Energy-OPLS-2005>
-496.251953125

> <r_mmod_Solvation_Energy-OPLS-2005>
-441.123992919922

> <b_mmod_Minimization_Converged-OPLS-2005>
0

> <r_mmod_RMS_Derivative-OPLS-2005>
4.98714017868042

$$$$
90
                    3D
 Structure written by MMmdl.
172180  0  0  1  0            999 V2000
  -30.6681  -14.5586   20.5499 C   0  0  0  0  0  0
  -30.4302  -12.3582   19.4351 C   0  0  0  0  0  0
  -29.5009  -12.5063   18.2124 C   0  0  0  0  0  0
  -28.0230  -12.3541   18.6251 C   0  0  0  0  0  0
  -27.6555  -13.2117   19.8656 C   0  0  2  0  0  0
  -28.6990  -13.0383   20.9911 C   0  0  0  0  0  0
  -25.2567  -13.8125   20.5626 C   0  0  0  0  0  0
  -24.1836  -13.0428   20.9207 C   0  0  0  0  0  0
  -24.6394  -11.6896   20.8763 C   0  0  0  0  0  0
  -23.9052  -10.4290   21.0425 C   0  0  0  0  0  0
  -24.3606   -9.4200   21.9196 C   0  0  0  0  0  0
  -23.6285   -8.2233   22.0752 C   0  0  0  0  0  0
  -22.4268   -8.0277   21.3540 C   0  0  0  0  0  0
  -21.9903   -9.0258   20.4648 C   0  0  0  0  0  0
  -22.7229  -10.2139   20.3067 C   0  0  0  0  0  0
  -21.6846   -6.0738   22.5280 C   0  0  0  0  0  0
  -21.4012   -6.5642   23.8216 C   0  0  0  0  0  0
  -21.3656   -5.6788   24.9176 C   0  0  0  0  0  0
  -21.6040   -4.3051   24.7221 C   0  0  0  0  0  0
  -21.8817   -3.8150   23.4340 C   0  0  0  0  0  0
  -21.9191   -4.6969   22.3398 C   0  0  0  0  0  0
  -22.7864  -13.5251   21.1864 C   0  0  0  0  0  0
  -22.1659   -4.2159   21.0973 F   0  0  0  0  0  0
  -21.5626   -3.4527   25.7730 F   0  0  0  0  0  0
  -30.0181  -13.3652   20.4289 N   0  0  0  0  0  0
  -26.2999  -12.9309   20.3317 N   0  0  0  0  0  0
  -25.9322  -11.6472   20.5773 N   0  0  0  0  0  0
  -22.0488  -12.8259   22.0420 N   0  0  0  0  0  0
  -25.4263  -15.1801   20.3862 N   0  0  0  0  0  0
  -31.8176  -14.7231   20.1337 O   0  0  0  0  0  0
  -21.6629   -6.8878   21.4239 O   0  0  0  0  0  0
  -22.3559  -14.5556   20.6704 O   0  0  0  0  0  0
  -24.6192  -31.8643   23.2056 C   0  0  0  0  0  0
  -25.9072  -32.4804   23.8368 C   0  0  1  0  0  0
  -27.2304  -27.3852   20.1156 C   0  0  0  0  0  0
  -25.5912  -33.8600   24.2310 N   0  0  0  0  0  0
  -23.4102  -30.4864   21.5467 C   0  0  2  0  0  0
  -24.8588  -28.9437   20.1171 C   0  0  0  0  0  0
  -22.7443  -29.4644   22.4972 C   0  0  0  0  0  0
  -18.0290  -28.1367   22.8496 C   0  0  0  0  0  0
  -24.1488  -36.7304   23.2636 C   0  0  0  0  0  0
  -25.9434  -30.8160   21.3655 C   0  0  0  0  0  0
  -26.0223  -29.4456   20.7151 C   0  0  0  0  0  0
  -27.2153  -28.6763   20.7059 C   0  0  0  0  0  0
  -26.0519  -26.9104   19.5077 C   0  0  0  0  0  0
  -24.8710  -27.6777   19.5070 C   0  0  0  0  0  0
  -23.6225  -29.8160   20.1628 C   0  0  0  0  0  0
  -25.4111  -36.3101   24.0333 C   0  0  1  0  0  0
  -20.5881  -28.3676   23.1312 C   0  0  2  0  0  0
  -20.6788  -26.9408   22.5427 C   0  0  0  0  0  0
  -19.5771  -26.6373   21.5226 C   0  0  0  0  0  0
  -18.1949  -26.7913   22.1635 C   0  0  0  0  0  0
  -19.1534  -28.8841   23.2898 C   0  0  0  0  0  0
  -18.9447  -30.1448   23.8902 C   0  0  0  0  0  0
  -17.6446  -30.6575   24.0556 C   0  0  0  0  0  0
  -25.9038  -34.9467   23.5119 C   0  0  0  0  0  0
  -16.5344  -29.9068   23.6317 C   0  0  0  0  0  0
  -16.7275  -28.6484   23.0342 C   0  0  0  0  0  0
  -26.4486  -31.6588   25.0707 C   0  0  0  0  0  0
  -25.3738  -31.3704   26.1445 C   0  0  0  0  0  0
  -27.0315  -30.3025   24.6099 C   0  0  0  0  0  0
  -27.6061  -32.4303   25.7475 C   0  0  0  0  0  0
  -27.5582  -37.1810   24.8470 C   0  0  0  0  0  0
  -21.4162  -29.3042   22.3712 N   0  0  0  0  0  0
  -26.4299  -37.3787   23.9405 N   0  0  0  0  0  0
  -24.6758  -31.0709   22.0974 N   0  0  0  0  0  0
  -23.4195  -28.8189   23.3033 O   0  0  0  0  0  0
  -28.3614  -26.5835   20.1072 O   0  0  0  0  0  0
  -26.5606  -34.8927   22.4688 O   0  0  0  0  0  0
  -23.5377  -32.1414   23.7430 O   0  0  0  0  0  0
  -27.1761  -20.4025   21.6550 C   0  0  0  0  0  0
  -27.5022  -18.2352   21.2999 C   0  0  0  0  0  0
  -26.5655  -19.1250   21.7349 C   0  0  0  0  0  0
  -28.4672  -20.2916   21.2005 C   0  0  0  0  0  0
  -25.0988  -17.6327   23.1501 C   0  0  0  0  0  0
  -24.2090  -18.6628   20.9966 C   0  0  0  0  0  0
  -30.7526  -21.1849   21.8275 C   0  0  0  0  0  0
  -27.6827  -23.5471   19.2482 C   0  0  0  0  0  0
  -28.9517  -22.9014   21.3816 C   0  0  0  0  0  0
  -29.8083  -18.1503   20.3842 C   0  0  0  0  0  0
  -30.3960  -16.9971   21.2837 C   0  0  0  0  0  0
  -28.2901  -25.3857   20.9305 C   0  0  0  0  0  0
  -25.1543  -18.8338   22.1939 C   0  0  0  0  0  0
  -29.4744  -21.4409   20.9999 C   0  0  2  0  0  0
  -28.7155  -24.0085   20.2870 C   0  0  2  0  0  0
  -28.6684  -18.9013   20.9593 N   0  0  0  0  0  0
  -29.9353  -15.6013   21.0190 N   0  0  0  0  0  0
  -31.4723  -12.4738   19.1312 H   0  0  0  0  0  0
  -30.3529  -11.3570   19.8618 H   0  0  0  0  0  0
  -29.7557  -11.7649   17.4543 H   0  0  0  0  0  0
  -29.6535  -13.4830   17.7495 H   0  0  0  0  0  0
  -27.8482  -11.2995   18.8414 H   0  0  0  0  0  0
  -27.3698  -12.6051   17.7884 H   0  0  0  0  0  0
  -27.6848  -14.2530   19.5448 H   0  0  0  0  0  0
  -28.6997  -12.0108   21.3574 H   0  0  0  0  0  0
  -28.4518  -13.6587   21.8537 H   0  0  0  0  0  0
  -25.2750   -9.5674   22.4772 H   0  0  0  0  0  0
  -23.9993   -7.4619   22.7469 H   0  0  0  0  0  0
  -21.0830   -8.8786   19.8954 H   0  0  0  0  0  0
  -22.3694  -10.9687   19.6181 H   0  0  0  0  0  0
  -21.2007   -7.6152   23.9724 H   0  0  0  0  0  0
  -21.1476   -6.0517   25.9079 H   0  0  0  0  0  0
  -22.0602   -2.7615   23.2833 H   0  0  0  0  0  0
  -22.4080  -11.9916   22.4822 H   0  0  0  0  0  0
  -21.1112  -13.1314   22.2607 H   0  0  0  0  0  0
  -24.6561  -15.8287   20.4991 H   0  0  0  0  0  0
  -26.2505  -15.6062   19.9852 H   0  0  0  0  0  0
  -26.7138  -32.5512   23.1122 H   0  0  0  0  0  0
  -25.0072  -33.9755   25.0460 H   0  0  0  0  0  0
  -22.7008  -31.3041   21.4048 H   0  0  0  0  0  0
  -23.3744  -35.9646   23.3317 H   0  0  0  0  0  0
  -24.3577  -36.8901   22.2047 H   0  0  0  0  0  0
  -23.7243  -37.6514   23.6639 H   0  0  0  0  0  0
  -26.0599  -31.5782   20.5936 H   0  0  0  0  0  0
  -26.8286  -30.8717   21.9871 H   0  0  0  0  0  0
  -28.1142  -29.0580   21.1690 H   0  0  0  0  0  0
  -26.0427  -25.9380   19.0375 H   0  0  0  0  0  0
  -23.9785  -27.2858   19.0393 H   0  0  0  0  0  0
  -23.7347  -30.5887   19.4014 H   0  0  0  0  0  0
  -22.7461  -29.2371   19.8658 H   0  0  0  0  0  0
  -25.1288  -36.1967   25.0826 H   0  0  0  0  0  0
  -20.9975  -28.3255   24.1433 H   0  0  0  0  0  0
  -20.5701  -26.2286   23.3617 H   0  0  0  0  0  0
  -21.6657  -26.7450   22.1221 H   0  0  0  0  0  0
  -19.6937  -25.6283   21.1259 H   0  0  0  0  0  0
  -19.6706  -27.3180   20.6757 H   0  0  0  0  0  0
  -17.4224  -26.6660   21.4031 H   0  0  0  0  0  0
  -18.0349  -26.0044   22.9019 H   0  0  0  0  0  0
  -19.7914  -30.7274   24.2266 H   0  0  0  0  0  0
  -17.4986  -31.6256   24.5151 H   0  0  0  0  0  0
  -15.5341  -30.2964   23.7613 H   0  0  0  0  0  0
  -15.8685  -28.0796   22.7041 H   0  0  0  0  0  0
  -24.5916  -30.7050   25.7770 H   0  0  0  0  0  0
  -24.8925  -32.2864   26.4884 H   0  0  0  0  0  0
  -25.8078  -30.8871   27.0208 H   0  0  0  0  0  0
  -26.2859  -29.6784   24.1151 H   0  0  0  0  0  0
  -27.4075  -29.7265   25.4566 H   0  0  0  0  0  0
  -27.8707  -30.4331   23.9258 H   0  0  0  0  0  0
  -27.2681  -33.3596   26.2075 H   0  0  0  0  0  0
  -28.3861  -32.6869   25.0291 H   0  0  0  0  0  0
  -28.0737  -31.8404   26.5371 H   0  0  0  0  0  0
  -28.2616  -38.0092   24.7501 H   0  0  0  0  0  0
  -28.1061  -36.2624   24.6318 H   0  0  0  0  0  0
  -27.2303  -37.1488   25.8876 H   0  0  0  0  0  0
  -20.9326  -29.8762   21.6933 H   0  0  0  0  0  0
  -26.0190  -38.2872   24.1387 H   0  0  0  0  0  0
  -26.6770  -21.3233   21.9176 H   0  0  0  0  0  0
  -27.4338  -17.1619   21.1897 H   0  0  0  0  0  0
  -25.7300  -17.8009   24.0228 H   0  0  0  0  0  0
  -25.4376  -16.7145   22.6721 H   0  0  0  0  0  0
  -24.0836  -17.4613   23.5087 H   0  0  0  0  0  0
  -24.1868  -19.5659   20.3856 H   0  0  0  0  0  0
  -23.1876  -18.4652   21.3238 H   0  0  0  0  0  0
  -24.5187  -17.8395   20.3537 H   0  0  0  0  0  0
  -31.2332  -20.2362   21.6056 H   0  0  0  0  0  0
  -30.5299  -21.1833   22.8951 H   0  0  0  0  0  0
  -31.4994  -21.9591   21.6484 H   0  0  0  0  0  0
  -27.9727  -22.6015   18.7896 H   0  0  0  0  0  0
  -27.5839  -24.2762   18.4444 H   0  0  0  0  0  0
  -26.7000  -23.4099   19.7012 H   0  0  0  0  0  0
  -29.6920  -23.3444   22.0492 H   0  0  0  0  0  0
  -28.0802  -22.8537   22.0287 H   0  0  0  0  0  0
  -29.4912  -17.7376   19.4259 H   0  0  0  0  0  0
  -30.5949  -18.8546   20.1239 H   0  0  0  0  0  0
  -30.2061  -17.2259   22.3331 H   0  0  0  0  0  0
  -31.4826  -17.0272   21.1895 H   0  0  0  0  0  0
  -28.9528  -25.5854   21.7734 H   0  0  0  0  0  0
  -27.3001  -25.2757   21.3781 H   0  0  0  0  0  0
  -24.8171  -19.7077   22.7536 H   0  0  0  0  0  0
  -29.7703  -21.4519   19.9501 H   0  0  0  0  0  0
  -29.6641  -24.1636   19.7720 H   0  0  0  0  0  0
  -28.9884  -15.3817   21.2874 H   0  0  0  0  0  0
  1 25  1  0  0  0
  1 30  2  0  0  0
  1 87  1  0  0  0
  2  3  1  0  0  0
  2 25  1  0  0  0
  2 88  1  0  0  0
  2 89  1  0  0  0
  3  4  1  0  0  0
  3 90  1  0  0  0
  3 91  1  0  0  0
  4  5  1  0  0  0
  4 92  1  0  0  0
  4 93  1  0  0  0
  5  6  1  0  0  0
  5 26  1  0  0  0
  5 94  1  0  0  0
  6 25  1  0  0  0
  6 95  1  0  0  0
  6 96  1  0  0  0
  7  8  2  0  0  0
  7 26  1  0  0  0
  7 29  1  0  0  0
  8  9  1  0  0  0
  8 22  1  0  0  0
  9 10  1  0  0  0
  9 27  2  0  0  0
 10 11  2  0  0  0
 10 15  1  0  0  0
 11 12  1  0  0  0
 11 97  1  0  0  0
 12 13  2  0  0  0
 12 98  1  0  0  0
 13 14  1  0  0  0
 13 31  1  0  0  0
 14 15  2  0  0  0
 14 99  1  0  0  0
 15100  1  0  0  0
 16 17  2  0  0  0
 16 21  1  0  0  0
 16 31  1  0  0  0
 17 18  1  0  0  0
 17101  1  0  0  0
 18 19  2  0  0  0
 18102  1  0  0  0
 19 20  1  0  0  0
 19 24  1  0  0  0
 20 21  2  0  0  0
 20103  1  0  0  0
 21 23  1  0  0  0
 22 28  1  0  0  0
 22 32  2  0  0  0
 26 27  1  0  0  0
 28104  1  0  0  0
 28105  1  0  0  0
 29106  1  0  0  0
 29107  1  0  0  0
 33 34  1  0  0  0
 33 66  1  0  0  0
 33 70  2  0  0  0
 34 36  1  0  0  0
 34 59  1  0  0  0
 34108  1  0  0  0
 35 44  2  0  0  0
 35 45  1  0  0  0
 35 68  1  0  0  0
 36 56  1  0  0  0
 36109  1  0  0  0
 37 39  1  0  0  0
 37 47  1  0  0  0
 37 66  1  0  0  0
 37110  1  0  0  0
 38 43  2  0  0  0
 38 46  1  0  0  0
 38 47  1  0  0  0
 39 64  1  0  0  0
 39 67  2  0  0  0
 40 52  1  0  0  0
 40 53  2  0  0  0
 40 58  1  0  0  0
 41111  1  0  0  0
 41112  1  0  0  0
 41113  1  0  0  0
 41 48  1  0  0  0
 42 43  1  0  0  0
 42 66  1  0  0  0
 42114  1  0  0  0
 42115  1  0  0  0
 43 44  1  0  0  0
 44116  1  0  0  0
 45 46  2  0  0  0
 45117  1  0  0  0
 46118  1  0  0  0
 47119  1  0  0  0
 47120  1  0  0  0
 48 56  1  0  0  0
 48 65  1  0  0  0
 48121  1  0  0  0
 49 50  1  0  0  0
 49 53  1  0  0  0
 49 64  1  0  0  0
 49122  1  0  0  0
 50 51  1  0  0  0
 50123  1  0  0  0
 50124  1  0  0  0
 51 52  1  0  0  0
 51125  1  0  0  0
 51126  1  0  0  0
 52127  1  0  0  0
 52128  1  0  0  0
 53 54  1  0  0  0
 54 55  2  0  0  0
 54129  1  0  0  0
 55 57  1  0  0  0
 55130  1  0  0  0
 56 69  2  0  0  0
 57 58  2  0  0  0
 57131  1  0  0  0
 58132  1  0  0  0
 59 60  1  0  0  0
 59 61  1  0  0  0
 59 62  1  0  0  0
 60133  1  0  0  0
 60134  1  0  0  0
 60135  1  0  0  0
 61136  1  0  0  0
 61137  1  0  0  0
 61138  1  0  0  0
 62139  1  0  0  0
 62140  1  0  0  0
 62141  1  0  0  0
 63 65  1  0  0  0
 63142  1  0  0  0
 63143  1  0  0  0
 63144  1  0  0  0
 64145  1  0  0  0
 65146  1  0  0  0
 68 82  1  0  0  0
 71 73  1  0  0  0
 71 74  2  0  0  0
 71147  1  0  0  0
 72 73  2  0  0  0
 72 86  1  0  0  0
 72148  1  0  0  0
 73 83  1  0  0  0
 74 84  1  0  0  0
 74 86  1  0  0  0
 75149  1  0  0  0
 75150  1  0  0  0
 75151  1  0  0  0
 75 83  1  0  0  0
 76 83  1  0  0  0
 76152  1  0  0  0
 76153  1  0  0  0
 76154  1  0  0  0
 77155  1  0  0  0
 77156  1  0  0  0
 77157  1  0  0  0
 77 84  1  0  0  0
 78158  1  0  0  0
 78159  1  0  0  0
 78160  1  0  0  0
 78 85  1  0  0  0
 79 84  1  0  0  0
 79 85  1  0  0  0
 79161  1  0  0  0
 79162  1  0  0  0
 80 81  1  0  0  0
 80 86  1  0  0  0
 80163  1  0  0  0
 80164  1  0  0  0
 81 87  1  0  0  0
 81165  1  0  0  0
 81166  1  0  0  0
 82 85  1  0  0  0
 82167  1  0  0  0
 82168  1  0  0  0
 83169  1  0  0  0
 84170  1  0  0  0
 85171  1  0  0  0
 87172  1  0  0  0
M  ISO  4   1 100  68 101  82 101  87 100
M  END
> <chiral flag>
0

> <version>
0

> <s_m_source_file>
/data/baiqing/PycharmProjects/Reinvent-master-3.2/result/LINK_invent/BTK/process_docking_weight1_custom_sum_contain_oxygen_bond_distance_aromatic_linkinvent_7_9_3/rearranged_h_0099.sdf

> <i_m_source_file_index>
91

> <r_mmod_Potential_Energy-OPLS-2005>
-23.2892246246338

> <r_mmod_Stretch_Energy-OPLS-2005>
60.7290725708008

> <r_mmod_Bend_Energy-OPLS-2005>
134.424118041992

> <r_mmod_Torsional_Energy-OPLS-2005>
260.955169677734

> <r_mmod_Improper_Torsional_Energy-OPLS-2005>
3.54961800575256

> <r_mmod_Van_der_Waal_Energy-OPLS-2005>
112.21533203125

> <r_mmod_Electrostatic_Energy-OPLS-2005>
-429.925140380859

> <r_mmod_Solvation_Energy-OPLS-2005>
-190.554412841797

> <b_mmod_Minimization_Converged-OPLS-2005>
0

> <r_mmod_RMS_Derivative-OPLS-2005>
1.07860481739044

$$$$
91
                    3D
 Structure written by MMmdl.
169177  0  0  1  0            999 V2000
  -30.5759  -14.7836   20.4488 C   0  0  0  0  0  0
  -30.4468  -12.4776   19.4592 C   0  0  0  0  0  0
  -29.5133  -12.5135   18.2280 C   0  0  0  0  0  0
  -28.0400  -12.3289   18.6447 C   0  0  0  0  0  0
  -27.6427  -13.2299   19.8435 C   0  0  2  0  0  0
  -28.6934  -13.1613   20.9732 C   0  0  0  0  0  0
  -25.2530  -13.8189   20.5680 C   0  0  0  0  0  0
  -24.1837  -13.0429   20.9232 C   0  0  0  0  0  0
  -24.6432  -11.6910   20.8779 C   0  0  0  0  0  0
  -23.9125  -10.4286   21.0435 C   0  0  0  0  0  0
  -24.3668   -9.4200   21.9221 C   0  0  0  0  0  0
  -23.6326   -8.2245   22.0775 C   0  0  0  0  0  0
  -22.4319   -8.0302   21.3552 C   0  0  0  0  0  0
  -21.9959   -9.0282   20.4666 C   0  0  0  0  0  0
  -22.7299  -10.2152   20.3086 C   0  0  0  0  0  0
  -21.6860   -6.0770   22.5299 C   0  0  0  0  0  0
  -21.4004   -6.5665   23.8237 C   0  0  0  0  0  0
  -21.3655   -5.6804   24.9193 C   0  0  0  0  0  0
  -21.6053   -4.3068   24.7242 C   0  0  0  0  0  0
  -21.8819   -3.8173   23.4350 C   0  0  0  0  0  0
  -21.9185   -4.6996   22.3408 C   0  0  0  0  0  0
  -22.7856  -13.5208   21.1876 C   0  0  0  0  0  0
  -22.1661   -4.2186   21.0985 F   0  0  0  0  0  0
  -21.5624   -3.4546   25.7742 F   0  0  0  0  0  0
  -29.9888  -13.5390   20.3877 N   0  0  0  0  0  0
  -26.2961  -12.9391   20.3272 N   0  0  0  0  0  0
  -25.9358  -11.6539   20.5771 N   0  0  0  0  0  0
  -22.0497  -12.8194   22.0437 N   0  0  0  0  0  0
  -25.4208  -15.1911   20.4030 N   0  0  0  0  0  0
  -31.7750  -14.9177   20.1880 O   0  0  0  0  0  0
  -21.6644   -6.8922   21.4268 O   0  0  0  0  0  0
  -22.3548  -14.5507   20.6705 O   0  0  0  0  0  0
  -24.6345  -31.8547   23.1981 C   0  0  0  0  0  0
  -25.9169  -32.4760   23.8326 C   0  0  1  0  0  0
  -27.2296  -27.2484   20.1200 C   0  0  0  0  0  0
  -25.5967  -33.8556   24.2263 N   0  0  0  0  0  0
  -23.4320  -30.4766   21.5424 C   0  0  2  0  0  0
  -24.8805  -28.9173   20.1109 C   0  0  0  0  0  0
  -22.7522  -29.4619   22.4924 C   0  0  0  0  0  0
  -18.0299  -28.1403   22.8484 C   0  0  0  0  0  0
  -24.1491  -36.7266   23.2632 C   0  0  0  0  0  0
  -25.9808  -30.7567   21.3829 C   0  0  0  0  0  0
  -26.0519  -29.3778   20.7250 C   0  0  0  0  0  0
  -27.2237  -28.5526   20.7243 C   0  0  0  0  0  0
  -26.0387  -26.8653   19.4610 C   0  0  0  0  0  0
  -24.8790  -27.6687   19.4698 C   0  0  0  0  0  0
  -23.6528  -29.8080   20.1602 C   0  0  0  0  0  0
  -25.4124  -36.3075   24.0322 C   0  0  1  0  0  0
  -20.5901  -28.3733   23.1259 C   0  0  2  0  0  0
  -20.6811  -26.9449   22.5403 C   0  0  0  0  0  0
  -19.5788  -26.6398   21.5211 C   0  0  0  0  0  0
  -18.1959  -26.7951   22.1607 C   0  0  0  0  0  0
  -19.1549  -28.8882   23.2863 C   0  0  0  0  0  0
  -18.9470  -30.1478   23.8895 C   0  0  0  0  0  0
  -17.6474  -30.6609   24.0555 C   0  0  0  0  0  0
  -25.9072  -34.9445   23.5092 C   0  0  0  0  0  0
  -16.5364  -29.9108   23.6324 C   0  0  0  0  0  0
  -16.7288  -28.6511   23.0365 C   0  0  0  0  0  0
  -26.4528  -31.6580   25.0709 C   0  0  0  0  0  0
  -25.3737  -31.3702   26.1404 C   0  0  0  0  0  0
  -27.0367  -30.3010   24.6171 C   0  0  0  0  0  0
  -27.6090  -32.4307   25.7497 C   0  0  0  0  0  0
  -27.5594  -37.1786   24.8465 C   0  0  0  0  0  0
  -21.4227  -29.3057   22.3643 N   0  0  0  0  0  0
  -26.4301  -37.3787   23.9416 N   0  0  0  0  0  0
  -24.7020  -31.0479   22.0966 N   0  0  0  0  0  0
  -23.4186  -28.8165   23.3053 O   0  0  0  0  0  0
  -28.3321  -26.3569   20.1932 O   0  0  0  0  0  0
  -26.5642  -34.8922   22.4662 O   0  0  0  0  0  0
  -23.5493  -32.1388   23.7257 O   0  0  0  0  0  0
  -28.3981  -21.7374   18.8718 C   0  0  0  0  0  0
  -29.1140  -22.2180   19.9994 C   0  0  0  0  0  0
  -28.6401  -20.3985   18.6293 C   0  0  0  0  0  0
  -29.7394  -21.0462   20.4731 C   0  0  0  0  0  0
  -30.6722  -20.8925   21.6311 C   0  0  0  0  0  0
  -30.6317  -24.2623   20.3430 C   0  0  0  0  0  0
  -27.2023  -20.4992   16.5431 C   0  0  0  0  0  0
  -27.3370  -18.3741   17.7806 C   0  0  0  0  0  0
  -29.3212  -19.2724   16.4481 C   0  0  0  0  0  0
  -30.1177  -18.4812   19.7120 C   0  0  0  0  0  0
  -29.8649  -17.3916   20.8770 C   0  0  0  0  0  0
  -28.1962  -24.8882   19.8426 C   0  0  0  0  0  0
  -29.1876  -23.7576   20.4760 C   0  0  1  0  0  0
  -28.1537  -19.6269   17.4006 C   0  0  0  0  0  0
  -29.4747  -19.8976   19.6572 N   0  0  0  0  0  0
  -29.7296  -15.8742   20.6133 N   0  0  0  0  0  0
  -31.4829  -12.6280   19.1496 H   0  0  0  0  0  0
  -30.4130  -11.5026   19.9468 H   0  0  0  0  0  0
  -29.7994  -11.7481   17.5043 H   0  0  0  0  0  0
  -29.6272  -13.4699   17.7151 H   0  0  0  0  0  0
  -27.9021  -11.2786   18.9090 H   0  0  0  0  0  0
  -27.3852  -12.5181   17.7940 H   0  0  0  0  0  0
  -27.6311  -14.2496   19.4547 H   0  0  0  0  0  0
  -28.7447  -12.1567   21.3930 H   0  0  0  0  0  0
  -28.4234  -13.8237   21.7977 H   0  0  0  0  0  0
  -25.2823   -9.5637   22.4803 H   0  0  0  0  0  0
  -24.0034   -7.4616   22.7463 H   0  0  0  0  0  0
  -21.0919   -8.8828   19.8951 H   0  0  0  0  0  0
  -22.3810  -10.9713   19.6200 H   0  0  0  0  0  0
  -21.2001   -7.6170   23.9747 H   0  0  0  0  0  0
  -21.1477   -6.0535   25.9093 H   0  0  0  0  0  0
  -22.0598   -2.7638   23.2841 H   0  0  0  0  0  0
  -22.4088  -11.9828   22.4797 H   0  0  0  0  0  0
  -21.1118  -13.1239   22.2637 H   0  0  0  0  0  0
  -24.6397  -15.8324   20.4863 H   0  0  0  0  0  0
  -26.2503  -15.6292   20.0246 H   0  0  0  0  0  0
  -26.7226  -32.5397   23.1055 H   0  0  0  0  0  0
  -25.0145  -33.9704   25.0431 H   0  0  0  0  0  0
  -22.7292  -31.2993   21.3932 H   0  0  0  0  0  0
  -23.3790  -35.9562   23.3277 H   0  0  0  0  0  0
  -24.3581  -36.8913   22.2049 H   0  0  0  0  0  0
  -23.7185  -37.6433   23.6669 H   0  0  0  0  0  0
  -26.1211  -31.5116   20.6080 H   0  0  0  0  0  0
  -26.8603  -30.8081   22.0147 H   0  0  0  0  0  0
  -28.1170  -28.8963   21.2271 H   0  0  0  0  0  0
  -25.9763  -25.9222   18.9381 H   0  0  0  0  0  0
  -23.9846  -27.3117   18.9764 H   0  0  0  0  0  0
  -23.7871  -30.5848   19.4082 H   0  0  0  0  0  0
  -22.7697  -29.2484   19.8492 H   0  0  0  0  0  0
  -25.1298  -36.1934   25.0819 H   0  0  0  0  0  0
  -20.9969  -28.3325   24.1384 H   0  0  0  0  0  0
  -20.5745  -26.2338   23.3608 H   0  0  0  0  0  0
  -21.6679  -26.7512   22.1165 H   0  0  0  0  0  0
  -19.6958  -25.6299   21.1267 H   0  0  0  0  0  0
  -19.6738  -27.3193   20.6728 H   0  0  0  0  0  0
  -17.4231  -26.6700   21.4007 H   0  0  0  0  0  0
  -18.0358  -26.0098   22.9003 H   0  0  0  0  0  0
  -19.7946  -30.7285   24.2282 H   0  0  0  0  0  0
  -17.5028  -31.6288   24.5163 H   0  0  0  0  0  0
  -15.5367  -30.3009   23.7654 H   0  0  0  0  0  0
  -15.8684  -28.0824   22.7100 H   0  0  0  0  0  0
  -24.5967  -30.7010   25.7699 H   0  0  0  0  0  0
  -24.8860  -32.2843   26.4793 H   0  0  0  0  0  0
  -25.8037  -30.8896   27.0201 H   0  0  0  0  0  0
  -26.2931  -29.6757   24.1216 H   0  0  0  0  0  0
  -27.4087  -29.7272   25.4666 H   0  0  0  0  0  0
  -27.8799  -30.4310   23.9388 H   0  0  0  0  0  0
  -27.2738  -33.3630   26.2060 H   0  0  0  0  0  0
  -28.3926  -32.6826   25.0336 H   0  0  0  0  0  0
  -28.0741  -31.8424   26.5420 H   0  0  0  0  0  0
  -28.2584  -38.0116   24.7570 H   0  0  0  0  0  0
  -28.1120  -36.2637   24.6237 H   0  0  0  0  0  0
  -27.2304  -37.1371   25.8868 H   0  0  0  0  0  0
  -20.9449  -29.8736   21.6792 H   0  0  0  0  0  0
  -26.0175  -38.2856   24.1457 H   0  0  0  0  0  0
  -27.7993  -22.3719   18.2333 H   0  0  0  0  0  0
  -30.8357  -21.8393   22.1412 H   0  0  0  0  0  0
  -31.6419  -20.5247   21.2934 H   0  0  0  0  0  0
  -30.2761  -20.1893   22.3618 H   0  0  0  0  0  0
  -31.3446  -23.6169   20.8527 H   0  0  0  0  0  0
  -30.7334  -25.2588   20.7749 H   0  0  0  0  0  0
  -30.9353  -24.3181   19.2982 H   0  0  0  0  0  0
  -26.3331  -20.8375   17.1114 H   0  0  0  0  0  0
  -26.8204  -19.9517   15.6789 H   0  0  0  0  0  0
  -27.7110  -21.3828   16.1518 H   0  0  0  0  0  0
  -26.4204  -18.6503   18.3042 H   0  0  0  0  0  0
  -27.8696  -17.6838   18.4269 H   0  0  0  0  0  0
  -27.0473  -17.8116   16.8919 H   0  0  0  0  0  0
  -29.9229  -20.1551   16.2315 H   0  0  0  0  0  0
  -28.9517  -18.8981   15.4934 H   0  0  0  0  0  0
  -30.0027  -18.5143   16.8182 H   0  0  0  0  0  0
  -29.9278  -17.9625   18.7850 H   0  0  0  0  0  0
  -31.1941  -18.6482   19.6738 H   0  0  0  0  0  0
  -28.9349  -17.6790   21.3686 H   0  0  0  0  0  0
  -30.6320  -17.5270   21.6407 H   0  0  0  0  0  0
  -27.1859  -24.5563   20.0835 H   0  0  0  0  0  0
  -28.2820  -24.8294   18.7556 H   0  0  0  0  0  0
  -28.9618  -23.7328   21.5427 H   0  0  0  0  0  0
  -28.7768  -15.5603   20.7219 H   0  0  0  0  0  0
  1 25  1  0  0  0
  1 30  2  0  0  0
  1 86  1  0  0  0
  2  3  1  0  0  0
  2 25  1  0  0  0
  2 87  1  0  0  0
  2 88  1  0  0  0
  3  4  1  0  0  0
  3 89  1  0  0  0
  3 90  1  0  0  0
  4  5  1  0  0  0
  4 91  1  0  0  0
  4 92  1  0  0  0
  5  6  1  0  0  0
  5 26  1  0  0  0
  5 93  1  0  0  0
  6 25  1  0  0  0
  6 94  1  0  0  0
  6 95  1  0  0  0
  7  8  2  0  0  0
  7 26  1  0  0  0
  7 29  1  0  0  0
  8  9  1  0  0  0
  8 22  1  0  0  0
  9 10  1  0  0  0
  9 27  2  0  0  0
 10 11  2  0  0  0
 10 15  1  0  0  0
 11 12  1  0  0  0
 11 96  1  0  0  0
 12 13  2  0  0  0
 12 97  1  0  0  0
 13 14  1  0  0  0
 13 31  1  0  0  0
 14 15  2  0  0  0
 14 98  1  0  0  0
 15 99  1  0  0  0
 16 17  2  0  0  0
 16 21  1  0  0  0
 16 31  1  0  0  0
 17 18  1  0  0  0
 17100  1  0  0  0
 18 19  2  0  0  0
 18101  1  0  0  0
 19 20  1  0  0  0
 19 24  1  0  0  0
 20 21  2  0  0  0
 20102  1  0  0  0
 21 23  1  0  0  0
 22 28  1  0  0  0
 22 32  2  0  0  0
 26 27  1  0  0  0
 28103  1  0  0  0
 28104  1  0  0  0
 29105  1  0  0  0
 29106  1  0  0  0
 33 34  1  0  0  0
 33 66  1  0  0  0
 33 70  2  0  0  0
 34 36  1  0  0  0
 34 59  1  0  0  0
 34107  1  0  0  0
 35 44  2  0  0  0
 35 45  1  0  0  0
 35 68  1  0  0  0
 36 56  1  0  0  0
 36108  1  0  0  0
 37 39  1  0  0  0
 37 47  1  0  0  0
 37 66  1  0  0  0
 37109  1  0  0  0
 38 43  2  0  0  0
 38 46  1  0  0  0
 38 47  1  0  0  0
 39 64  1  0  0  0
 39 67  2  0  0  0
 40 52  1  0  0  0
 40 53  2  0  0  0
 40 58  1  0  0  0
 41110  1  0  0  0
 41111  1  0  0  0
 41112  1  0  0  0
 41 48  1  0  0  0
 42 43  1  0  0  0
 42 66  1  0  0  0
 42113  1  0  0  0
 42114  1  0  0  0
 43 44  1  0  0  0
 44115  1  0  0  0
 45 46  2  0  0  0
 45116  1  0  0  0
 46117  1  0  0  0
 47118  1  0  0  0
 47119  1  0  0  0
 48 56  1  0  0  0
 48 65  1  0  0  0
 48120  1  0  0  0
 49 50  1  0  0  0
 49 53  1  0  0  0
 49 64  1  0  0  0
 49121  1  0  0  0
 50 51  1  0  0  0
 50122  1  0  0  0
 50123  1  0  0  0
 51 52  1  0  0  0
 51124  1  0  0  0
 51125  1  0  0  0
 52126  1  0  0  0
 52127  1  0  0  0
 53 54  1  0  0  0
 54 55  2  0  0  0
 54128  1  0  0  0
 55 57  1  0  0  0
 55129  1  0  0  0
 56 69  2  0  0  0
 57 58  2  0  0  0
 57130  1  0  0  0
 58131  1  0  0  0
 59 60  1  0  0  0
 59 61  1  0  0  0
 59 62  1  0  0  0
 60132  1  0  0  0
 60133  1  0  0  0
 60134  1  0  0  0
 61135  1  0  0  0
 61136  1  0  0  0
 61137  1  0  0  0
 62138  1  0  0  0
 62139  1  0  0  0
 62140  1  0  0  0
 63 65  1  0  0  0
 63141  1  0  0  0
 63142  1  0  0  0
 63143  1  0  0  0
 64144  1  0  0  0
 65145  1  0  0  0
 68 82  1  0  0  0
 71 72  1  0  0  0
 71 73  2  0  0  0
 71146  1  0  0  0
 72 74  2  0  0  0
 72 83  1  0  0  0
 73 84  1  0  0  0
 73 85  1  0  0  0
 74 75  1  0  0  0
 74 85  1  0  0  0
 75147  1  0  0  0
 75148  1  0  0  0
 75149  1  0  0  0
 76150  1  0  0  0
 76151  1  0  0  0
 76152  1  0  0  0
 76 83  1  0  0  0
 77153  1  0  0  0
 77154  1  0  0  0
 77155  1  0  0  0
 77 84  1  0  0  0
 78 84  1  0  0  0
 78156  1  0  0  0
 78157  1  0  0  0
 78158  1  0  0  0
 79 84  1  0  0  0
 79159  1  0  0  0
 79160  1  0  0  0
 79161  1  0  0  0
 80 81  1  0  0  0
 80 85  1  0  0  0
 80162  1  0  0  0
 80163  1  0  0  0
 81 86  1  0  0  0
 81164  1  0  0  0
 81165  1  0  0  0
 82 83  1  0  0  0
 82166  1  0  0  0
 82167  1  0  0  0
 83168  1  0  0  0
 86169  1  0  0  0
M  ISO  4   1 100  68 101  82 101  86 100
M  END
> <chiral flag>
0

> <version>
0

> <s_m_source_file>
/data/baiqing/PycharmProjects/Reinvent-master-3.2/result/LINK_invent/BTK/process_docking_weight1_custom_sum_contain_oxygen_bond_distance_aromatic_linkinvent_7_9_3/rearranged_h_0099.sdf

> <i_m_source_file_index>
92

> <r_mmod_Potential_Energy-OPLS-2005>
175.434524536133

> <r_mmod_Stretch_Energy-OPLS-2005>
146.966598510742

> <r_mmod_Bend_Energy-OPLS-2005>
216.167846679688

> <r_mmod_Torsional_Energy-OPLS-2005>
233.696380615234

> <r_mmod_Improper_Torsional_Energy-OPLS-2005>
6.55164289474487

> <r_mmod_Van_der_Waal_Energy-OPLS-2005>
118.93856048584

> <r_mmod_Electrostatic_Energy-OPLS-2005>
-442.979614257812

> <r_mmod_Solvation_Energy-OPLS-2005>
-203.866439819336

> <b_mmod_Minimization_Converged-OPLS-2005>
0

> <r_mmod_RMS_Derivative-OPLS-2005>
3.38912892341614

$$$$
92
                    3D
 Structure written by MMmdl.
166174  0  0  1  0            999 V2000
  -30.6850  -14.5500   20.5504 C   0  0  0  0  0  0
  -30.4211  -12.3519   19.4389 C   0  0  0  0  0  0
  -29.4968  -12.5113   18.2144 C   0  0  0  0  0  0
  -28.0200  -12.3575   18.6275 C   0  0  0  0  0  0
  -27.6540  -13.2138   19.8695 C   0  0  2  0  0  0
  -28.6978  -13.0473   20.9956 C   0  0  0  0  0  0
  -25.2556  -13.8176   20.5672 C   0  0  0  0  0  0
  -24.1822  -13.0446   20.9173 C   0  0  0  0  0  0
  -24.6387  -11.6911   20.8739 C   0  0  0  0  0  0
  -23.9056  -10.4299   21.0412 C   0  0  0  0  0  0
  -24.3617   -9.4216   21.9187 C   0  0  0  0  0  0
  -23.6295   -8.2245   22.0759 C   0  0  0  0  0  0
  -22.4281   -8.0275   21.3535 C   0  0  0  0  0  0
  -21.9909   -9.0253   20.4636 C   0  0  0  0  0  0
  -22.7235  -10.2136   20.3052 C   0  0  0  0  0  0
  -21.6847   -6.0732   22.5277 C   0  0  0  0  0  0
  -21.4015   -6.5641   23.8211 C   0  0  0  0  0  0
  -21.3664   -5.6794   24.9170 C   0  0  0  0  0  0
  -21.6051   -4.3058   24.7225 C   0  0  0  0  0  0
  -21.8811   -3.8142   23.4347 C   0  0  0  0  0  0
  -21.9193   -4.6957   22.3403 C   0  0  0  0  0  0
  -22.7850  -13.5237   21.1862 C   0  0  0  0  0  0
  -22.1657   -4.2147   21.0980 F   0  0  0  0  0  0
  -21.5641   -3.4541   25.7739 F   0  0  0  0  0  0
  -30.0171  -13.3657   20.4278 N   0  0  0  0  0  0
  -26.2984  -12.9341   20.3344 N   0  0  0  0  0  0
  -25.9315  -11.6497   20.5774 N   0  0  0  0  0  0
  -22.0509  -12.8197   22.0411 N   0  0  0  0  0  0
  -25.4298  -15.1893   20.4092 N   0  0  0  0  0  0
  -31.8377  -14.6972   20.1382 O   0  0  0  0  0  0
  -21.6639   -6.8880   21.4242 O   0  0  0  0  0  0
  -22.3528  -14.5554   20.6739 O   0  0  0  0  0  0
  -24.6214  -31.8630   23.2072 C   0  0  0  0  0  0
  -25.9084  -32.4795   23.8381 C   0  0  1  0  0  0
  -27.2246  -27.3685   20.1069 C   0  0  0  0  0  0
  -25.5936  -33.8602   24.2308 N   0  0  0  0  0  0
  -23.4109  -30.4891   21.5486 C   0  0  2  0  0  0
  -24.8568  -28.9507   20.1111 C   0  0  0  0  0  0
  -22.7464  -29.4616   22.4962 C   0  0  0  0  0  0
  -18.0279  -28.1373   22.8478 C   0  0  0  0  0  0
  -24.1490  -36.7299   23.2642 C   0  0  0  0  0  0
  -25.9483  -30.8095   21.3696 C   0  0  0  0  0  0
  -26.0228  -29.4399   20.7156 C   0  0  0  0  0  0
  -27.2095  -28.6584   20.7063 C   0  0  0  0  0  0
  -26.0421  -26.9238   19.4733 C   0  0  0  0  0  0
  -24.8677  -27.6960   19.4840 C   0  0  0  0  0  0
  -23.6223  -29.8248   20.1619 C   0  0  0  0  0  0
  -25.4109  -36.3102   24.0345 C   0  0  1  0  0  0
  -20.5876  -28.3659   23.1309 C   0  0  2  0  0  0
  -20.6762  -26.9385   22.5415 C   0  0  0  0  0  0
  -19.5742  -26.6362   21.5217 C   0  0  0  0  0  0
  -18.1915  -26.7916   22.1611 C   0  0  0  0  0  0
  -19.1532  -28.8827   23.2884 C   0  0  0  0  0  0
  -18.9470  -30.1431   23.8894 C   0  0  0  0  0  0
  -17.6473  -30.6576   24.0550 C   0  0  0  0  0  0
  -25.9046  -34.9472   23.5118 C   0  0  0  0  0  0
  -16.5357  -29.9081   23.6328 C   0  0  0  0  0  0
  -16.7266  -28.6500   23.0344 C   0  0  0  0  0  0
  -26.4492  -31.6592   25.0730 C   0  0  0  0  0  0
  -25.3744  -31.3727   26.1473 C   0  0  0  0  0  0
  -27.0332  -30.3047   24.6094 C   0  0  0  0  0  0
  -27.6040  -32.4330   25.7506 C   0  0  0  0  0  0
  -27.5585  -37.1808   24.8470 C   0  0  0  0  0  0
  -21.4177  -29.3033   22.3724 N   0  0  0  0  0  0
  -26.4295  -37.3787   23.9415 N   0  0  0  0  0  0
  -24.6792  -31.0682   22.0997 N   0  0  0  0  0  0
  -23.4226  -28.8109   23.2965 O   0  0  0  0  0  0
  -28.3647  -26.5685   20.1134 O   0  0  0  0  0  0
  -26.5584  -34.8925   22.4667 O   0  0  0  0  0  0
  -23.5384  -32.1414   23.7420 O   0  0  0  0  0  0
  -29.2508  -21.5960   19.9750 C   0  0  0  0  0  0
  -29.3231  -22.5178   21.9971 C   0  0  0  0  0  0
  -29.2170  -20.5456   20.8756 C   0  0  0  0  0  0
  -29.2747  -21.1558   22.1716 C   0  0  0  0  0  0
  -27.7277  -19.8777   25.5056 C   0  0  0  0  0  0
  -30.5127  -20.7985   24.3272 C   0  0  0  0  0  0
  -29.0677  -19.0281   20.5871 C   0  0  0  0  0  0
  -27.9549  -20.7573   24.2684 C   0  0  0  0  0  0
  -30.3752  -18.1694   20.5162 C   0  0  0  0  0  0
  -29.3563  -24.1933   20.0772 C   0  0  0  0  0  0
  -30.5185  -16.9243   21.4683 C   0  0  0  0  0  0
  -28.1889  -25.1601   20.4787 C   0  0  0  0  0  0
  -29.2603  -20.4464   23.5096 C   0  0  1  0  0  0
  -29.2875  -22.8209   20.6506 N   0  0  0  0  0  0
  -29.9786  -15.6056   21.0333 N   0  0  0  0  0  0
  -31.4676  -12.4464   19.1426 H   0  0  0  0  0  0
  -30.3228  -11.3529   19.8662 H   0  0  0  0  0  0
  -29.7535  -11.7790   17.4478 H   0  0  0  0  0  0
  -29.6475  -13.4938   17.7632 H   0  0  0  0  0  0
  -27.8465  -11.3023   18.8423 H   0  0  0  0  0  0
  -27.3662  -12.6105   17.7915 H   0  0  0  0  0  0
  -27.6824  -14.2556   19.5490 H   0  0  0  0  0  0
  -28.6933  -12.0249   21.3751 H   0  0  0  0  0  0
  -28.4533  -13.6790   21.8506 H   0  0  0  0  0  0
  -25.2769   -9.5692   22.4751 H   0  0  0  0  0  0
  -24.0011   -7.4634   22.7473 H   0  0  0  0  0  0
  -21.0845   -8.8757   19.8932 H   0  0  0  0  0  0
  -22.3697  -10.9669   19.6153 H   0  0  0  0  0  0
  -21.1997   -7.6149   23.9713 H   0  0  0  0  0  0
  -21.1502   -6.0524   25.9073 H   0  0  0  0  0  0
  -22.0588   -2.7607   23.2843 H   0  0  0  0  0  0
  -22.4125  -11.9823   22.4723 H   0  0  0  0  0  0
  -21.1138  -13.1208   22.2687 H   0  0  0  0  0  0
  -24.6678  -15.8504   20.5116 H   0  0  0  0  0  0
  -26.2867  -15.6223   20.0891 H   0  0  0  0  0  0
  -26.7142  -32.5457   23.1114 H   0  0  0  0  0  0
  -25.0182  -33.9752   25.0523 H   0  0  0  0  0  0
  -22.7019  -31.3081   21.4076 H   0  0  0  0  0  0
  -23.3755  -35.9629   23.3309 H   0  0  0  0  0  0
  -24.3595  -36.8906   22.2060 H   0  0  0  0  0  0
  -23.7235  -37.6507   23.6643 H   0  0  0  0  0  0
  -26.0694  -31.5738   20.5998 H   0  0  0  0  0  0
  -26.8345  -30.8605   21.9904 H   0  0  0  0  0  0
  -28.1078  -29.0274   21.1813 H   0  0  0  0  0  0
  -26.0123  -25.9785   18.9512 H   0  0  0  0  0  0
  -23.9781  -27.3222   18.9960 H   0  0  0  0  0  0
  -23.7318  -30.6035   19.4062 H   0  0  0  0  0  0
  -22.7419  -29.2544   19.8583 H   0  0  0  0  0  0
  -25.1275  -36.1974   25.0838 H   0  0  0  0  0  0
  -20.9955  -28.3203   24.1435 H   0  0  0  0  0  0
  -20.5682  -26.2240   23.3595 H   0  0  0  0  0  0
  -21.6626  -26.7424   22.1186 H   0  0  0  0  0  0
  -19.6905  -25.6279   21.1236 H   0  0  0  0  0  0
  -19.6695  -27.3174   20.6755 H   0  0  0  0  0  0
  -17.4187  -26.6692   21.4003 H   0  0  0  0  0  0
  -18.0277  -26.0063   22.9006 H   0  0  0  0  0  0
  -19.7958  -30.7239   24.2258 H   0  0  0  0  0  0
  -17.5038  -31.6266   24.5135 H   0  0  0  0  0  0
  -15.5354  -30.2979   23.7671 H   0  0  0  0  0  0
  -15.8665  -28.0822   22.7057 H   0  0  0  0  0  0
  -24.5937  -30.7037   25.7840 H   0  0  0  0  0  0
  -24.8908  -32.2886   26.4894 H   0  0  0  0  0  0
  -25.8105  -30.8961   27.0255 H   0  0  0  0  0  0
  -26.2898  -29.6802   24.1131 H   0  0  0  0  0  0
  -27.4129  -29.7280   25.4530 H   0  0  0  0  0  0
  -27.8698  -30.4408   23.9234 H   0  0  0  0  0  0
  -27.2662  -33.3644   26.2065 H   0  0  0  0  0  0
  -28.3877  -32.6874   25.0360 H   0  0  0  0  0  0
  -28.0654  -31.8459   26.5455 H   0  0  0  0  0  0
  -28.2586  -38.0119   24.7516 H   0  0  0  0  0  0
  -28.1092  -36.2645   24.6288 H   0  0  0  0  0  0
  -27.2290  -37.1447   25.8869 H   0  0  0  0  0  0
  -20.9320  -29.8865   21.7054 H   0  0  0  0  0  0
  -26.0189  -38.2861   24.1429 H   0  0  0  0  0  0
  -29.2303  -21.5840   18.8927 H   0  0  0  0  0  0
  -29.3765  -23.3109   22.7320 H   0  0  0  0  0  0
  -26.7533  -20.0888   25.9470 H   0  0  0  0  0  0
  -28.4794  -20.0574   26.2728 H   0  0  0  0  0  0
  -27.7553  -18.8176   25.2497 H   0  0  0  0  0  0
  -31.4178  -20.5703   23.7644 H   0  0  0  0  0  0
  -30.5627  -20.2290   25.2544 H   0  0  0  0  0  0
  -30.5366  -21.8581   24.5862 H   0  0  0  0  0  0
  -28.5340  -18.9206   19.6421 H   0  0  0  0  0  0
  -28.3924  -18.6039   21.3307 H   0  0  0  0  0  0
  -27.9266  -21.8107   24.5500 H   0  0  0  0  0  0
  -27.1121  -20.6028   23.5916 H   0  0  0  0  0  0
  -31.1998  -18.8412   20.7616 H   0  0  0  0  0  0
  -30.5644  -17.8711   19.4834 H   0  0  0  0  0  0
  -30.3060  -24.6304   20.3892 H   0  0  0  0  0  0
  -29.4081  -24.1148   18.9911 H   0  0  0  0  0  0
  -30.0867  -17.1633   22.4409 H   0  0  0  0  0  0
  -31.5835  -16.7953   21.6743 H   0  0  0  0  0  0
  -28.0629  -25.1312   21.5615 H   0  0  0  0  0  0
  -27.2785  -24.7295   20.0660 H   0  0  0  0  0  0
  -29.2894  -19.3752   23.3127 H   0  0  0  0  0  0
  -29.0162  -15.4120   21.2734 H   0  0  0  0  0  0
  1 25  1  0  0  0
  1 30  2  0  0  0
  1 85  1  0  0  0
  2  3  1  0  0  0
  2 25  1  0  0  0
  2 86  1  0  0  0
  2 87  1  0  0  0
  3  4  1  0  0  0
  3 88  1  0  0  0
  3 89  1  0  0  0
  4  5  1  0  0  0
  4 90  1  0  0  0
  4 91  1  0  0  0
  5  6  1  0  0  0
  5 26  1  0  0  0
  5 92  1  0  0  0
  6 25  1  0  0  0
  6 93  1  0  0  0
  6 94  1  0  0  0
  7  8  2  0  0  0
  7 26  1  0  0  0
  7 29  1  0  0  0
  8  9  1  0  0  0
  8 22  1  0  0  0
  9 10  1  0  0  0
  9 27  2  0  0  0
 10 11  2  0  0  0
 10 15  1  0  0  0
 11 12  1  0  0  0
 11 95  1  0  0  0
 12 13  2  0  0  0
 12 96  1  0  0  0
 13 14  1  0  0  0
 13 31  1  0  0  0
 14 15  2  0  0  0
 14 97  1  0  0  0
 15 98  1  0  0  0
 16 17  2  0  0  0
 16 21  1  0  0  0
 16 31  1  0  0  0
 17 18  1  0  0  0
 17 99  1  0  0  0
 18 19  2  0  0  0
 18100  1  0  0  0
 19 20  1  0  0  0
 19 24  1  0  0  0
 20 21  2  0  0  0
 20101  1  0  0  0
 21 23  1  0  0  0
 22 28  1  0  0  0
 22 32  2  0  0  0
 26 27  1  0  0  0
 28102  1  0  0  0
 28103  1  0  0  0
 29104  1  0  0  0
 29105  1  0  0  0
 33 34  1  0  0  0
 33 66  1  0  0  0
 33 70  2  0  0  0
 34 36  1  0  0  0
 34 59  1  0  0  0
 34106  1  0  0  0
 35 44  2  0  0  0
 35 45  1  0  0  0
 35 68  1  0  0  0
 36 56  1  0  0  0
 36107  1  0  0  0
 37 39  1  0  0  0
 37 47  1  0  0  0
 37 66  1  0  0  0
 37108  1  0  0  0
 38 43  2  0  0  0
 38 46  1  0  0  0
 38 47  1  0  0  0
 39 64  1  0  0  0
 39 67  2  0  0  0
 40 52  1  0  0  0
 40 53  2  0  0  0
 40 58  1  0  0  0
 41109  1  0  0  0
 41110  1  0  0  0
 41111  1  0  0  0
 41 48  1  0  0  0
 42 43  1  0  0  0
 42 66  1  0  0  0
 42112  1  0  0  0
 42113  1  0  0  0
 43 44  1  0  0  0
 44114  1  0  0  0
 45 46  2  0  0  0
 45115  1  0  0  0
 46116  1  0  0  0
 47117  1  0  0  0
 47118  1  0  0  0
 48 56  1  0  0  0
 48 65  1  0  0  0
 48119  1  0  0  0
 49 50  1  0  0  0
 49 53  1  0  0  0
 49 64  1  0  0  0
 49120  1  0  0  0
 50 51  1  0  0  0
 50121  1  0  0  0
 50122  1  0  0  0
 51 52  1  0  0  0
 51123  1  0  0  0
 51124  1  0  0  0
 52125  1  0  0  0
 52126  1  0  0  0
 53 54  1  0  0  0
 54 55  2  0  0  0
 54127  1  0  0  0
 55 57  1  0  0  0
 55128  1  0  0  0
 56 69  2  0  0  0
 57 58  2  0  0  0
 57129  1  0  0  0
 58130  1  0  0  0
 59 60  1  0  0  0
 59 61  1  0  0  0
 59 62  1  0  0  0
 60131  1  0  0  0
 60132  1  0  0  0
 60133  1  0  0  0
 61134  1  0  0  0
 61135  1  0  0  0
 61136  1  0  0  0
 62137  1  0  0  0
 62138  1  0  0  0
 62139  1  0  0  0
 63 65  1  0  0  0
 63140  1  0  0  0
 63141  1  0  0  0
 63142  1  0  0  0
 64143  1  0  0  0
 65144  1  0  0  0
 68 82  1  0  0  0
 71 73  2  0  0  0
 71 84  1  0  0  0
 71145  1  0  0  0
 72 74  2  0  0  0
 72 84  1  0  0  0
 72146  1  0  0  0
 73 74  1  0  0  0
 73 77  1  0  0  0
 74 83  1  0  0  0
 75 78  1  0  0  0
 75147  1  0  0  0
 75148  1  0  0  0
 75149  1  0  0  0
 76150  1  0  0  0
 76151  1  0  0  0
 76152  1  0  0  0
 76 83  1  0  0  0
 77 79  1  0  0  0
 77153  1  0  0  0
 77154  1  0  0  0
 78 83  1  0  0  0
 78155  1  0  0  0
 78156  1  0  0  0
 79 81  1  0  0  0
 79157  1  0  0  0
 79158  1  0  0  0
 80 82  1  0  0  0
 80 84  1  0  0  0
 80159  1  0  0  0
 80160  1  0  0  0
 81 85  1  0  0  0
 81161  1  0  0  0
 81162  1  0  0  0
 82163  1  0  0  0
 82164  1  0  0  0
 83165  1  0  0  0
 85166  1  0  0  0
M  ISO  4   1 100  68 101  82 101  85 100
M  END
> <chiral flag>
0

> <version>
0

> <s_m_source_file>
/data/baiqing/PycharmProjects/Reinvent-master-3.2/result/LINK_invent/BTK/process_docking_weight1_custom_sum_contain_oxygen_bond_distance_aromatic_linkinvent_7_9_3/rearranged_h_0099.sdf

> <i_m_source_file_index>
93

> <r_mmod_Potential_Energy-OPLS-2005>
-25.7936744689941

> <r_mmod_Stretch_Energy-OPLS-2005>
53.9915618896484

> <r_mmod_Bend_Energy-OPLS-2005>
120.229515075684

> <r_mmod_Torsional_Energy-OPLS-2005>
246.012603759766

> <r_mmod_Improper_Torsional_Energy-OPLS-2005>
3.31268787384033

> <r_mmod_Van_der_Waal_Energy-OPLS-2005>
119.073188781738

> <r_mmod_Electrostatic_Energy-OPLS-2005>
-388.954803466797

> <r_mmod_Solvation_Energy-OPLS-2005>
-206.049652099609

> <b_mmod_Minimization_Converged-OPLS-2005>
0

> <r_mmod_RMS_Derivative-OPLS-2005>
2.49467158317566

$$$$
93
                    3D
 Structure written by MMmdl.
165173  0  0  1  0            999 V2000
  -30.6275  -14.7018   20.4880 C   0  0  0  0  0  0
  -30.4308  -12.4363   19.4626 C   0  0  0  0  0  0
  -29.5033  -12.5146   18.2303 C   0  0  0  0  0  0
  -28.0284  -12.3431   18.6434 C   0  0  0  0  0  0
  -27.6434  -13.2268   19.8601 C   0  0  2  0  0  0
  -28.6903  -13.1373   20.9924 C   0  0  0  0  0  0
  -25.2551  -13.8170   20.5848 C   0  0  0  0  0  0
  -24.1808  -13.0410   20.9257 C   0  0  0  0  0  0
  -24.6396  -11.6902   20.8735 C   0  0  0  0  0  0
  -23.9070  -10.4282   21.0384 C   0  0  0  0  0  0
  -24.3629   -9.4211   21.9162 C   0  0  0  0  0  0
  -23.6293   -8.2254   22.0749 C   0  0  0  0  0  0
  -22.4268   -8.0297   21.3551 C   0  0  0  0  0  0
  -21.9908   -9.0255   20.4633 C   0  0  0  0  0  0
  -22.7245  -10.2127   20.3036 C   0  0  0  0  0  0
  -21.6839   -6.0747   22.5282 C   0  0  0  0  0  0
  -21.4004   -6.5643   23.8219 C   0  0  0  0  0  0
  -21.3664   -5.6786   24.9173 C   0  0  0  0  0  0
  -21.6064   -4.3053   24.7209 C   0  0  0  0  0  0
  -21.8817   -3.8156   23.4319 C   0  0  0  0  0  0
  -21.9193   -4.6979   22.3389 C   0  0  0  0  0  0
  -22.7839  -13.5212   21.1885 C   0  0  0  0  0  0
  -22.1675   -4.2172   21.0959 F   0  0  0  0  0  0
  -21.5624   -3.4543   25.7725 F   0  0  0  0  0  0
  -29.9956  -13.4832   20.4137 N   0  0  0  0  0  0
  -26.2947  -12.9364   20.3347 N   0  0  0  0  0  0
  -25.9313  -11.6507   20.5723 N   0  0  0  0  0  0
  -22.0448  -12.8212   22.0440 N   0  0  0  0  0  0
  -25.4269  -15.1881   20.4509 N   0  0  0  0  0  0
  -31.8066  -14.8125   20.1434 O   0  0  0  0  0  0
  -21.6626   -6.8904   21.4255 O   0  0  0  0  0  0
  -22.3548  -14.5515   20.6714 O   0  0  0  0  0  0
  -24.6234  -31.8599   23.1977 C   0  0  0  0  0  0
  -25.9061  -32.4783   23.8334 C   0  0  1  0  0  0
  -27.2082  -27.2746   20.1304 C   0  0  0  0  0  0
  -25.5847  -33.8592   24.2236 N   0  0  0  0  0  0
  -23.4203  -30.4825   21.5398 C   0  0  2  0  0  0
  -24.8643  -28.9342   20.1101 C   0  0  0  0  0  0
  -22.7480  -29.4637   22.4904 C   0  0  0  0  0  0
  -18.0295  -28.1392   22.8495 C   0  0  0  0  0  0
  -24.1487  -36.7313   23.2645 C   0  0  0  0  0  0
  -25.9627  -30.7754   21.3768 C   0  0  0  0  0  0
  -26.0337  -29.3973   20.7274 C   0  0  0  0  0  0
  -27.2022  -28.5764   20.7340 C   0  0  0  0  0  0
  -26.0093  -26.8725   19.4949 C   0  0  0  0  0  0
  -24.8588  -27.6785   19.4883 C   0  0  0  0  0  0
  -23.6352  -29.8158   20.1568 C   0  0  0  0  0  0
  -25.4116  -36.3089   24.0306 C   0  0  1  0  0  0
  -20.5888  -28.3725   23.1281 C   0  0  2  0  0  0
  -20.6784  -26.9442   22.5420 C   0  0  0  0  0  0
  -19.5761  -26.6392   21.5237 C   0  0  0  0  0  0
  -18.1943  -26.7938   22.1641 C   0  0  0  0  0  0
  -19.1537  -28.8882   23.2879 C   0  0  0  0  0  0
  -18.9450  -30.1474   23.8910 C   0  0  0  0  0  0
  -17.6448  -30.6601   24.0567 C   0  0  0  0  0  0
  -25.9047  -34.9466   23.5088 C   0  0  0  0  0  0
  -16.5347  -29.9084   23.6327 C   0  0  0  0  0  0
  -16.7277  -28.6487   23.0370 C   0  0  0  0  0  0
  -26.4433  -31.6604   25.0723 C   0  0  0  0  0  0
  -25.3671  -31.3734   26.1450 C   0  0  0  0  0  0
  -27.0249  -30.3017   24.6191 C   0  0  0  0  0  0
  -27.5978  -32.4372   25.7496 C   0  0  0  0  0  0
  -27.5578  -37.1810   24.8452 C   0  0  0  0  0  0
  -21.4183  -29.3067   22.3646 N   0  0  0  0  0  0
  -26.4292  -37.3775   23.9393 N   0  0  0  0  0  0
  -24.6882  -31.0578   22.0958 N   0  0  0  0  0  0
  -23.4187  -28.8201   23.3009 O   0  0  0  0  0  0
  -28.3301  -26.4232   20.2018 O   0  0  0  0  0  0
  -26.5650  -34.8941   22.4680 O   0  0  0  0  0  0
  -23.5376  -32.1384   23.7290 O   0  0  0  0  0  0
  -29.6305  -19.8651   20.5604 C   0  0  0  0  0  0
  -28.3514  -18.1680   19.4066 C   0  0  0  0  0  0
  -29.3940  -18.4616   20.2991 C   0  0  0  0  0  0
  -28.8183  -20.9304   20.0086 C   0  0  0  0  0  0
  -27.5224  -19.1744   18.8428 C   0  0  0  0  0  0
  -27.6872  -20.5382   19.2390 C   0  0  0  0  0  0
  -26.6720  -21.6063   18.8328 C   0  0  0  0  0  0
  -26.3647  -17.2791   17.5007 C   0  0  0  0  0  0
  -26.9169  -19.4184   16.3720 C   0  0  0  0  0  0
  -29.2907  -22.4518   19.9653 C   0  0  0  0  0  0
  -30.3083  -17.2794   20.8356 C   0  0  0  0  0  0
  -28.5002  -23.7159   20.5786 C   0  0  0  0  0  0
  -28.3677  -25.0290   19.6525 C   0  0  0  0  0  0
  -26.5200  -18.7929   17.7310 C   0  0  0  0  0  0
  -29.8708  -15.8211   20.7704 N   0  0  0  0  0  0
  -31.4692  -12.5676   19.1535 H   0  0  0  0  0  0
  -30.3722  -11.4494   19.9259 H   0  0  0  0  0  0
  -29.7785  -11.7495   17.5025 H   0  0  0  0  0  0
  -29.6376  -13.4772   17.7312 H   0  0  0  0  0  0
  -27.8682  -11.2886   18.8831 H   0  0  0  0  0  0
  -27.3729  -12.5665   17.8015 H   0  0  0  0  0  0
  -27.6431  -14.2547   19.4997 H   0  0  0  0  0  0
  -28.7176  -12.1324   21.4131 H   0  0  0  0  0  0
  -28.4288  -13.8040   21.8169 H   0  0  0  0  0  0
  -25.2762   -9.5692   22.4754 H   0  0  0  0  0  0
  -23.9997   -7.4629   22.7450 H   0  0  0  0  0  0
  -21.0853   -8.8756   19.8925 H   0  0  0  0  0  0
  -22.3679  -10.9669   19.6166 H   0  0  0  0  0  0
  -21.1993   -7.6146   23.9733 H   0  0  0  0  0  0
  -21.1497   -6.0509   25.9076 H   0  0  0  0  0  0
  -22.0594   -2.7622   23.2799 H   0  0  0  0  0  0
  -22.4023  -11.9872   22.4861 H   0  0  0  0  0  0
  -21.1053  -13.1264   22.2555 H   0  0  0  0  0  0
  -24.6703  -15.8423   20.6141 H   0  0  0  0  0  0
  -26.2866  -15.6400   20.1688 H   0  0  0  0  0  0
  -26.7139  -32.5470   23.1093 H   0  0  0  0  0  0
  -24.9911  -33.9758   25.0315 H   0  0  0  0  0  0
  -22.7117  -31.2982   21.3929 H   0  0  0  0  0  0
  -23.3740  -35.9648   23.3308 H   0  0  0  0  0  0
  -24.3569  -36.8958   22.2061 H   0  0  0  0  0  0
  -23.7269  -37.6527   23.6682 H   0  0  0  0  0  0
  -26.0856  -31.5275   20.5968 H   0  0  0  0  0  0
  -26.8463  -30.8397   21.9995 H   0  0  0  0  0  0
  -28.0939  -28.9214   21.2398 H   0  0  0  0  0  0
  -25.8956  -25.9126   19.0194 H   0  0  0  0  0  0
  -23.9624  -27.3103   19.0074 H   0  0  0  0  0  0
  -23.7431  -30.5832   19.3896 H   0  0  0  0  0  0
  -22.7584  -29.2345   19.8649 H   0  0  0  0  0  0
  -25.1308  -36.1927   25.0788 H   0  0  0  0  0  0
  -20.9991  -28.3324   24.1398 H   0  0  0  0  0  0
  -20.5726  -26.2359   23.3642 H   0  0  0  0  0  0
  -21.6664  -26.7481   22.1227 H   0  0  0  0  0  0
  -19.6940  -25.6298   21.1296 H   0  0  0  0  0  0
  -19.6702  -27.3185   20.6761 H   0  0  0  0  0  0
  -17.4219  -26.6672   21.4037 H   0  0  0  0  0  0
  -18.0325  -26.0071   22.9025 H   0  0  0  0  0  0
  -19.7919  -30.7275   24.2295 H   0  0  0  0  0  0
  -17.5006  -31.6300   24.5133 H   0  0  0  0  0  0
  -15.5347  -30.2998   23.7650 H   0  0  0  0  0  0
  -15.8670  -28.0806   22.7110 H   0  0  0  0  0  0
  -24.5816  -30.7119   25.7783 H   0  0  0  0  0  0
  -24.8888  -32.2894   26.4933 H   0  0  0  0  0  0
  -25.7987  -30.8869   27.0199 H   0  0  0  0  0  0
  -26.2797  -29.6827   24.1179 H   0  0  0  0  0  0
  -27.3872  -29.7233   25.4695 H   0  0  0  0  0  0
  -27.8708  -30.4295   23.9440 H   0  0  0  0  0  0
  -27.2533  -33.3651   26.2075 H   0  0  0  0  0  0
  -28.3754  -32.6988   25.0317 H   0  0  0  0  0  0
  -28.0668  -31.8527   26.5416 H   0  0  0  0  0  0
  -28.2585  -38.0121   24.7490 H   0  0  0  0  0  0
  -28.1073  -36.2636   24.6260 H   0  0  0  0  0  0
  -27.2281  -37.1473   25.8856 H   0  0  0  0  0  0
  -20.9326  -29.8784   21.6873 H   0  0  0  0  0  0
  -26.0156  -38.2840   24.1400 H   0  0  0  0  0  0
  -30.4944  -20.1293   21.1545 H   0  0  0  0  0  0
  -28.2393  -17.1325   19.1287 H   0  0  0  0  0  0
  -26.1047  -21.9059   19.7135 H   0  0  0  0  0  0
  -25.9258  -21.2798   18.1170 H   0  0  0  0  0  0
  -27.1423  -22.4920   18.4102 H   0  0  0  0  0  0
  -26.0868  -16.7647   18.4147 H   0  0  0  0  0  0
  -27.2887  -16.8381   17.1244 H   0  0  0  0  0  0
  -25.5879  -17.0672   16.7664 H   0  0  0  0  0  0
  -26.9730  -20.5056   16.3871 H   0  0  0  0  0  0
  -26.1978  -19.1563   15.5951 H   0  0  0  0  0  0
  -27.8925  -19.0566   16.0429 H   0  0  0  0  0  0
  -29.3986  -22.6579   18.8964 H   0  0  0  0  0  0
  -30.3186  -22.4892   20.3273 H   0  0  0  0  0  0
  -30.5463  -17.4929   21.8788 H   0  0  0  0  0  0
  -31.2597  -17.3679   20.3076 H   0  0  0  0  0  0
  -29.0148  -24.0008   21.4984 H   0  0  0  0  0  0
  -27.5078  -23.4069   20.9054 H   0  0  0  0  0  0
  -27.5733  -24.8310   18.9395 H   0  0  0  0  0  0
  -29.2417  -25.0311   19.0025 H   0  0  0  0  0  0
  -25.5359  -19.1590   18.0298 H   0  0  0  0  0  0
  -28.9180  -15.6397   21.0441 H   0  0  0  0  0  0
  1 25  1  0  0  0
  1 30  2  0  0  0
  1 85  1  0  0  0
  2  3  1  0  0  0
  2 25  1  0  0  0
  2 86  1  0  0  0
  2 87  1  0  0  0
  3  4  1  0  0  0
  3 88  1  0  0  0
  3 89  1  0  0  0
  4  5  1  0  0  0
  4 90  1  0  0  0
  4 91  1  0  0  0
  5  6  1  0  0  0
  5 26  1  0  0  0
  5 92  1  0  0  0
  6 25  1  0  0  0
  6 93  1  0  0  0
  6 94  1  0  0  0
  7  8  2  0  0  0
  7 26  1  0  0  0
  7 29  1  0  0  0
  8  9  1  0  0  0
  8 22  1  0  0  0
  9 10  1  0  0  0
  9 27  2  0  0  0
 10 11  2  0  0  0
 10 15  1  0  0  0
 11 12  1  0  0  0
 11 95  1  0  0  0
 12 13  2  0  0  0
 12 96  1  0  0  0
 13 14  1  0  0  0
 13 31  1  0  0  0
 14 15  2  0  0  0
 14 97  1  0  0  0
 15 98  1  0  0  0
 16 17  2  0  0  0
 16 21  1  0  0  0
 16 31  1  0  0  0
 17 18  1  0  0  0
 17 99  1  0  0  0
 18 19  2  0  0  0
 18100  1  0  0  0
 19 20  1  0  0  0
 19 24  1  0  0  0
 20 21  2  0  0  0
 20101  1  0  0  0
 21 23  1  0  0  0
 22 28  1  0  0  0
 22 32  2  0  0  0
 26 27  1  0  0  0
 28102  1  0  0  0
 28103  1  0  0  0
 29104  1  0  0  0
 29105  1  0  0  0
 33 34  1  0  0  0
 33 66  1  0  0  0
 33 70  2  0  0  0
 34 36  1  0  0  0
 34 59  1  0  0  0
 34106  1  0  0  0
 35 44  2  0  0  0
 35 45  1  0  0  0
 35 68  1  0  0  0
 36 56  1  0  0  0
 36107  1  0  0  0
 37 39  1  0  0  0
 37 47  1  0  0  0
 37 66  1  0  0  0
 37108  1  0  0  0
 38 43  2  0  0  0
 38 46  1  0  0  0
 38 47  1  0  0  0
 39 64  1  0  0  0
 39 67  2  0  0  0
 40 52  1  0  0  0
 40 53  2  0  0  0
 40 58  1  0  0  0
 41109  1  0  0  0
 41110  1  0  0  0
 41111  1  0  0  0
 41 48  1  0  0  0
 42 43  1  0  0  0
 42 66  1  0  0  0
 42112  1  0  0  0
 42113  1  0  0  0
 43 44  1  0  0  0
 44114  1  0  0  0
 45 46  2  0  0  0
 45115  1  0  0  0
 46116  1  0  0  0
 47117  1  0  0  0
 47118  1  0  0  0
 48 56  1  0  0  0
 48 65  1  0  0  0
 48119  1  0  0  0
 49 50  1  0  0  0
 49 53  1  0  0  0
 49 64  1  0  0  0
 49120  1  0  0  0
 50 51  1  0  0  0
 50121  1  0  0  0
 50122  1  0  0  0
 51 52  1  0  0  0
 51123  1  0  0  0
 51124  1  0  0  0
 52125  1  0  0  0
 52126  1  0  0  0
 53 54  1  0  0  0
 54 55  2  0  0  0
 54127  1  0  0  0
 55 57  1  0  0  0
 55128  1  0  0  0
 56 69  2  0  0  0
 57 58  2  0  0  0
 57129  1  0  0  0
 58130  1  0  0  0
 59 60  1  0  0  0
 59 61  1  0  0  0
 59 62  1  0  0  0
 60131  1  0  0  0
 60132  1  0  0  0
 60133  1  0  0  0
 61134  1  0  0  0
 61135  1  0  0  0
 61136  1  0  0  0
 62137  1  0  0  0
 62138  1  0  0  0
 62139  1  0  0  0
 63 65  1  0  0  0
 63140  1  0  0  0
 63141  1  0  0  0
 63142  1  0  0  0
 64143  1  0  0  0
 65144  1  0  0  0
 68 83  1  0  0  0
 71 73  2  0  0  0
 71 74  1  0  0  0
 71145  1  0  0  0
 72 73  1  0  0  0
 72 75  2  0  0  0
 72146  1  0  0  0
 73 81  1  0  0  0
 74 76  2  0  0  0
 74 80  1  0  0  0
 75 76  1  0  0  0
 75 84  1  0  0  0
 76 77  1  0  0  0
 77147  1  0  0  0
 77148  1  0  0  0
 77149  1  0  0  0
 78150  1  0  0  0
 78151  1  0  0  0
 78152  1  0  0  0
 78 84  1  0  0  0
 79 84  1  0  0  0
 79153  1  0  0  0
 79154  1  0  0  0
 79155  1  0  0  0
 80 82  1  0  0  0
 80156  1  0  0  0
 80157  1  0  0  0
 81 85  1  0  0  0
 81158  1  0  0  0
 81159  1  0  0  0
 82 83  1  0  0  0
 82160  1  0  0  0
 82161  1  0  0  0
 83162  1  0  0  0
 83163  1  0  0  0
 84164  1  0  0  0
 85165  1  0  0  0
M  ISO  4   1 100  68 101  83 101  85 100
M  END
> <chiral flag>
0

> <version>
0

> <s_m_source_file>
/data/baiqing/PycharmProjects/Reinvent-master-3.2/result/LINK_invent/BTK/process_docking_weight1_custom_sum_contain_oxygen_bond_distance_aromatic_linkinvent_7_9_3/rearranged_h_0099.sdf

> <i_m_source_file_index>
94

> <r_mmod_Potential_Energy-OPLS-2005>
100.31111907959

> <r_mmod_Stretch_Energy-OPLS-2005>
110.624130249023

> <r_mmod_Bend_Energy-OPLS-2005>
176.708480834961

> <r_mmod_Torsional_Energy-OPLS-2005>
230.526763916016

> <r_mmod_Improper_Torsional_Energy-OPLS-2005>
6.35303783416748

> <r_mmod_Van_der_Waal_Energy-OPLS-2005>
152.238952636719

> <r_mmod_Electrostatic_Energy-OPLS-2005>
-444.002227783203

> <r_mmod_Solvation_Energy-OPLS-2005>
-202.105621337891

> <b_mmod_Minimization_Converged-OPLS-2005>
0

> <r_mmod_RMS_Derivative-OPLS-2005>
4.8289098739624

$$$$
94
                    3D
 Structure written by MMmdl.
160168  0  0  1  0            999 V2000
  -30.6589  -14.6131   20.4800 C   0  0  0  0  0  0
  -30.4315  -12.3723   19.4607 C   0  0  0  0  0  0
  -29.5046  -12.4818   18.2294 C   0  0  0  0  0  0
  -28.0260  -12.3438   18.6444 C   0  0  0  0  0  0
  -27.6536  -13.2224   19.8690 C   0  0  2  0  0  0
  -28.7014  -13.0959   20.9989 C   0  0  0  0  0  0
  -25.2563  -13.8187   20.5745 C   0  0  0  0  0  0
  -24.1841  -13.0452   20.9219 C   0  0  0  0  0  0
  -24.6416  -11.6913   20.8788 C   0  0  0  0  0  0
  -23.9084  -10.4311   21.0447 C   0  0  0  0  0  0
  -24.3631   -9.4203   21.9221 C   0  0  0  0  0  0
  -23.6296   -8.2243   22.0768 C   0  0  0  0  0  0
  -22.4274   -8.0312   21.3560 C   0  0  0  0  0  0
  -21.9940   -9.0295   20.4659 C   0  0  0  0  0  0
  -22.7266  -10.2162   20.3083 C   0  0  0  0  0  0
  -21.6843   -6.0754   22.5277 C   0  0  0  0  0  0
  -21.3998   -6.5651   23.8216 C   0  0  0  0  0  0
  -21.3656   -5.6792   24.9181 C   0  0  0  0  0  0
  -21.6038   -4.3056   24.7210 C   0  0  0  0  0  0
  -21.8826   -3.8156   23.4333 C   0  0  0  0  0  0
  -21.9193   -4.6984   22.3396 C   0  0  0  0  0  0
  -22.7857  -13.5226   21.1846 C   0  0  0  0  0  0
  -22.1671   -4.2189   21.0973 F   0  0  0  0  0  0
  -21.5628   -3.4528   25.7721 F   0  0  0  0  0  0
  -30.0154  -13.4098   20.4235 N   0  0  0  0  0  0
  -26.3001  -12.9384   20.3406 N   0  0  0  0  0  0
  -25.9352  -11.6519   20.5830 N   0  0  0  0  0  0
  -22.0462  -12.8273   22.0398 N   0  0  0  0  0  0
  -25.4241  -15.1922   20.4150 N   0  0  0  0  0  0
  -31.8319  -14.7306   20.1136 O   0  0  0  0  0  0
  -21.6633   -6.8903   21.4240 O   0  0  0  0  0  0
  -22.3578  -14.5554   20.6684 O   0  0  0  0  0  0
  -24.6229  -31.8629   23.2020 C   0  0  0  0  0  0
  -25.9080  -32.4820   23.8335 C   0  0  1  0  0  0
  -27.2308  -27.3534   20.1385 C   0  0  0  0  0  0
  -25.5906  -33.8622   24.2238 N   0  0  0  0  0  0
  -23.4139  -30.4876   21.5429 C   0  0  2  0  0  0
  -24.8620  -28.9427   20.1125 C   0  0  0  0  0  0
  -22.7453  -29.4644   22.4923 C   0  0  0  0  0  0
  -18.0283  -28.1414   22.8495 C   0  0  0  0  0  0
  -24.1481  -36.7311   23.2640 C   0  0  0  0  0  0
  -25.9497  -30.8112   21.3611 C   0  0  0  0  0  0
  -26.0266  -29.4398   20.7065 C   0  0  0  0  0  0
  -27.2162  -28.6601   20.6993 C   0  0  0  0  0  0
  -26.0431  -26.8931   19.5204 C   0  0  0  0  0  0
  -24.8692  -27.6721   19.5094 C   0  0  0  0  0  0
  -23.6284  -29.8209   20.1576 C   0  0  0  0  0  0
  -25.4124  -36.3104   24.0305 C   0  0  1  0  0  0
  -20.5888  -28.3715   23.1300 C   0  0  2  0  0  0
  -20.6779  -26.9445   22.5425 C   0  0  0  0  0  0
  -19.5742  -26.6409   21.5227 C   0  0  0  0  0  0
  -18.1915  -26.7966   22.1624 C   0  0  0  0  0  0
  -19.1544  -28.8877   23.2896 C   0  0  0  0  0  0
  -18.9479  -30.1478   23.8918 C   0  0  0  0  0  0
  -17.6488  -30.6619   24.0602 C   0  0  0  0  0  0
  -25.9053  -34.9486   23.5067 C   0  0  0  0  0  0
  -16.5372  -29.9125   23.6360 C   0  0  0  0  0  0
  -16.7277  -28.6547   23.0360 C   0  0  0  0  0  0
  -26.4476  -31.6666   25.0718 C   0  0  0  0  0  0
  -25.3706  -31.3856   26.1448 C   0  0  0  0  0  0
  -27.0325  -30.3100   24.6166 C   0  0  0  0  0  0
  -27.6013  -32.4448   25.7502 C   0  0  0  0  0  0
  -27.5576  -37.1795   24.8453 C   0  0  0  0  0  0
  -21.4168  -29.3058   22.3674 N   0  0  0  0  0  0
  -26.4292  -37.3802   23.9402 N   0  0  0  0  0  0
  -24.6810  -31.0692   22.0932 N   0  0  0  0  0  0
  -23.4209  -28.8207   23.2999 O   0  0  0  0  0  0
  -28.3705  -26.5512   20.2241 O   0  0  0  0  0  0
  -26.5630  -34.8945   22.4633 O   0  0  0  0  0  0
  -23.5415  -32.1397   23.7393 O   0  0  0  0  0  0
  -30.9830  -19.1688   23.8427 C   0  0  0  0  0  0
  -30.3158  -18.5072   22.8102 C   0  0  0  0  0  0
  -31.1604  -20.5501   23.7394 C   0  0  0  0  0  0
  -29.8594  -19.2351   21.6915 C   0  0  0  0  0  0
  -29.9370  -20.6784   21.7453 C   0  0  0  0  0  0
  -29.0093  -24.3034   22.5525 C   0  0  0  0  0  0
  -29.3750  -18.3576   20.5150 C   0  0  0  0  0  0
  -30.2858  -17.0893   20.1995 C   0  0  0  0  0  0
  -29.9106  -22.9135   20.5156 C   0  0  0  0  0  0
  -28.2300  -25.0854   20.2169 C   0  0  0  0  0  0
  -29.3242  -24.3022   21.0479 C   0  0  1  0  0  0
  -30.6142  -21.2825   22.7455 N   0  0  0  0  0  0
  -29.2950  -21.5914   20.8612 N   0  0  0  0  0  0
  -29.9011  -15.7265   20.6938 N   0  0  0  0  0  0
  -31.4743  -12.4815   19.1526 H   0  0  0  0  0  0
  -30.3581  -11.3833   19.9179 H   0  0  0  0  0  0
  -29.7621  -11.7129   17.5002 H   0  0  0  0  0  0
  -29.6592  -13.4361   17.7248 H   0  0  0  0  0  0
  -27.8490  -11.2926   18.8787 H   0  0  0  0  0  0
  -27.3750  -12.5836   17.8025 H   0  0  0  0  0  0
  -27.6671  -14.2554   19.5204 H   0  0  0  0  0  0
  -28.7068  -12.0846   21.4107 H   0  0  0  0  0  0
  -28.4658  -13.7601   21.8322 H   0  0  0  0  0  0
  -25.2768   -9.5666   22.4808 H   0  0  0  0  0  0
  -24.0007   -7.4618   22.7468 H   0  0  0  0  0  0
  -21.0877   -8.8809   19.8961 H   0  0  0  0  0  0
  -22.3736  -10.9722   19.6200 H   0  0  0  0  0  0
  -21.1986   -7.6160   23.9734 H   0  0  0  0  0  0
  -21.1469   -6.0517   25.9087 H   0  0  0  0  0  0
  -22.0615   -2.7628   23.2805 H   0  0  0  0  0  0
  -22.4048  -11.9938   22.4835 H   0  0  0  0  0  0
  -21.1086  -13.1347   22.2529 H   0  0  0  0  0  0
  -24.6476  -15.8366   20.5177 H   0  0  0  0  0  0
  -26.2601  -15.6369   20.0600 H   0  0  0  0  0  0
  -26.7164  -32.5499   23.1105 H   0  0  0  0  0  0
  -25.0077  -33.9779   25.0401 H   0  0  0  0  0  0
  -22.7065  -31.3075   21.3999 H   0  0  0  0  0  0
  -23.3745  -35.9632   23.3323 H   0  0  0  0  0  0
  -24.3571  -36.8926   22.2048 H   0  0  0  0  0  0
  -23.7216  -37.6512   23.6672 H   0  0  0  0  0  0
  -26.0671  -31.5761   20.5930 H   0  0  0  0  0  0
  -26.8356  -30.8663   21.9827 H   0  0  0  0  0  0
  -28.1152  -29.0419   21.1615 H   0  0  0  0  0  0
  -26.0030  -25.9159   19.0617 H   0  0  0  0  0  0
  -23.9704  -27.2838   19.0487 H   0  0  0  0  0  0
  -23.7481  -30.5972   19.4007 H   0  0  0  0  0  0
  -22.7477  -29.2518   19.8563 H   0  0  0  0  0  0
  -25.1299  -36.1946   25.0795 H   0  0  0  0  0  0
  -20.9994  -28.3292   24.1414 H   0  0  0  0  0  0
  -20.5709  -26.2316   23.3622 H   0  0  0  0  0  0
  -21.6643  -26.7479   22.1198 H   0  0  0  0  0  0
  -19.6912  -25.6311   21.1266 H   0  0  0  0  0  0
  -19.6702  -27.3215   20.6764 H   0  0  0  0  0  0
  -17.4203  -26.6761   21.4010 H   0  0  0  0  0  0
  -18.0286  -26.0089   22.9006 H   0  0  0  0  0  0
  -19.7962  -30.7292   24.2286 H   0  0  0  0  0  0
  -17.5053  -31.6302   24.5207 H   0  0  0  0  0  0
  -15.5378  -30.3057   23.7684 H   0  0  0  0  0  0
  -15.8660  -28.0902   22.7051 H   0  0  0  0  0  0
  -24.5808  -30.7288   25.7787 H   0  0  0  0  0  0
  -24.8998  -32.3076   26.4887 H   0  0  0  0  0  0
  -25.7995  -30.9011   27.0223 H   0  0  0  0  0  0
  -26.2902  -29.6875   24.1163 H   0  0  0  0  0  0
  -27.4011  -29.7341   25.4665 H   0  0  0  0  0  0
  -27.8763  -30.4414   23.9384 H   0  0  0  0  0  0
  -27.2556  -33.3722   26.2098 H   0  0  0  0  0  0
  -28.3812  -32.7091   25.0343 H   0  0  0  0  0  0
  -28.0702  -31.8601   26.5424 H   0  0  0  0  0  0
  -28.2584  -38.0108   24.7542 H   0  0  0  0  0  0
  -28.1075  -36.2634   24.6235 H   0  0  0  0  0  0
  -27.2302  -37.1409   25.8861 H   0  0  0  0  0  0
  -20.9331  -29.8813   21.6922 H   0  0  0  0  0  0
  -26.0167  -38.2859   24.1474 H   0  0  0  0  0  0
  -31.3803  -18.6192   24.6838 H   0  0  0  0  0  0
  -30.1950  -17.4328   22.8597 H   0  0  0  0  0  0
  -31.7406  -21.0806   24.4814 H   0  0  0  0  0  0
  -29.8757  -23.9865   23.1355 H   0  0  0  0  0  0
  -28.1922  -23.6182   22.7796 H   0  0  0  0  0  0
  -28.7264  -25.3014   22.8980 H   0  0  0  0  0  0
  -29.3836  -18.9996   19.6331 H   0  0  0  0  0  0
  -28.3359  -18.0673   20.6611 H   0  0  0  0  0  0
  -31.3218  -17.3035   20.4666 H   0  0  0  0  0  0
  -30.3094  -16.9840   19.1146 H   0  0  0  0  0  0
  -30.9560  -22.8728   20.8307 H   0  0  0  0  0  0
  -29.9398  -22.9605   19.4272 H   0  0  0  0  0  0
  -28.2587  -24.7558   19.1794 H   0  0  0  0  0  0
  -27.2533  -24.7961   20.6081 H   0  0  0  0  0  0
  -30.1886  -24.9633   20.9454 H   0  0  0  0  0  0
  -28.7987  -21.1541   20.0912 H   0  0  0  0  0  0
  -28.9461  -15.5818   20.9865 H   0  0  0  0  0  0
  1 25  1  0  0  0
  1 30  2  0  0  0
  1 84  1  0  0  0
  2  3  1  0  0  0
  2 25  1  0  0  0
  2 85  1  0  0  0
  2 86  1  0  0  0
  3  4  1  0  0  0
  3 87  1  0  0  0
  3 88  1  0  0  0
  4  5  1  0  0  0
  4 89  1  0  0  0
  4 90  1  0  0  0
  5  6  1  0  0  0
  5 26  1  0  0  0
  5 91  1  0  0  0
  6 25  1  0  0  0
  6 92  1  0  0  0
  6 93  1  0  0  0
  7  8  2  0  0  0
  7 26  1  0  0  0
  7 29  1  0  0  0
  8  9  1  0  0  0
  8 22  1  0  0  0
  9 10  1  0  0  0
  9 27  2  0  0  0
 10 11  2  0  0  0
 10 15  1  0  0  0
 11 12  1  0  0  0
 11 94  1  0  0  0
 12 13  2  0  0  0
 12 95  1  0  0  0
 13 14  1  0  0  0
 13 31  1  0  0  0
 14 15  2  0  0  0
 14 96  1  0  0  0
 15 97  1  0  0  0
 16 17  2  0  0  0
 16 21  1  0  0  0
 16 31  1  0  0  0
 17 18  1  0  0  0
 17 98  1  0  0  0
 18 19  2  0  0  0
 18 99  1  0  0  0
 19 20  1  0  0  0
 19 24  1  0  0  0
 20 21  2  0  0  0
 20100  1  0  0  0
 21 23  1  0  0  0
 22 28  1  0  0  0
 22 32  2  0  0  0
 26 27  1  0  0  0
 28101  1  0  0  0
 28102  1  0  0  0
 29103  1  0  0  0
 29104  1  0  0  0
 33 34  1  0  0  0
 33 66  1  0  0  0
 33 70  2  0  0  0
 34 36  1  0  0  0
 34 59  1  0  0  0
 34105  1  0  0  0
 35 44  2  0  0  0
 35 45  1  0  0  0
 35 68  1  0  0  0
 36 56  1  0  0  0
 36106  1  0  0  0
 37 39  1  0  0  0
 37 47  1  0  0  0
 37 66  1  0  0  0
 37107  1  0  0  0
 38 43  2  0  0  0
 38 46  1  0  0  0
 38 47  1  0  0  0
 39 64  1  0  0  0
 39 67  2  0  0  0
 40 52  1  0  0  0
 40 53  2  0  0  0
 40 58  1  0  0  0
 41108  1  0  0  0
 41109  1  0  0  0
 41110  1  0  0  0
 41 48  1  0  0  0
 42 43  1  0  0  0
 42 66  1  0  0  0
 42111  1  0  0  0
 42112  1  0  0  0
 43 44  1  0  0  0
 44113  1  0  0  0
 45 46  2  0  0  0
 45114  1  0  0  0
 46115  1  0  0  0
 47116  1  0  0  0
 47117  1  0  0  0
 48 56  1  0  0  0
 48 65  1  0  0  0
 48118  1  0  0  0
 49 50  1  0  0  0
 49 53  1  0  0  0
 49 64  1  0  0  0
 49119  1  0  0  0
 50 51  1  0  0  0
 50120  1  0  0  0
 50121  1  0  0  0
 51 52  1  0  0  0
 51122  1  0  0  0
 51123  1  0  0  0
 52124  1  0  0  0
 52125  1  0  0  0
 53 54  1  0  0  0
 54 55  2  0  0  0
 54126  1  0  0  0
 55 57  1  0  0  0
 55127  1  0  0  0
 56 69  2  0  0  0
 57 58  2  0  0  0
 57128  1  0  0  0
 58129  1  0  0  0
 59 60  1  0  0  0
 59 61  1  0  0  0
 59 62  1  0  0  0
 60130  1  0  0  0
 60131  1  0  0  0
 60132  1  0  0  0
 61133  1  0  0  0
 61134  1  0  0  0
 61135  1  0  0  0
 62136  1  0  0  0
 62137  1  0  0  0
 62138  1  0  0  0
 63 65  1  0  0  0
 63139  1  0  0  0
 63140  1  0  0  0
 63141  1  0  0  0
 64142  1  0  0  0
 65143  1  0  0  0
 68 80  1  0  0  0
 71 72  2  0  0  0
 71 73  1  0  0  0
 71144  1  0  0  0
 72 74  1  0  0  0
 72145  1  0  0  0
 73 82  2  0  0  0
 73146  1  0  0  0
 74 75  2  0  0  0
 74 77  1  0  0  0
 75 82  1  0  0  0
 75 83  1  0  0  0
 76147  1  0  0  0
 76148  1  0  0  0
 76149  1  0  0  0
 76 81  1  0  0  0
 77 78  1  0  0  0
 77150  1  0  0  0
 77151  1  0  0  0
 78 84  1  0  0  0
 78152  1  0  0  0
 78153  1  0  0  0
 79 81  1  0  0  0
 79 83  1  0  0  0
 79154  1  0  0  0
 79155  1  0  0  0
 80 81  1  0  0  0
 80156  1  0  0  0
 80157  1  0  0  0
 81158  1  0  0  0
 83159  1  0  0  0
 84160  1  0  0  0
M  ISO  4   1 100  68 101  80 101  84 100
M  END
> <chiral flag>
0

> <version>
0

> <s_m_source_file>
/data/baiqing/PycharmProjects/Reinvent-master-3.2/result/LINK_invent/BTK/process_docking_weight1_custom_sum_contain_oxygen_bond_distance_aromatic_linkinvent_7_9_3/rearranged_h_0099.sdf

> <i_m_source_file_index>
95

> <r_mmod_Potential_Energy-OPLS-2005>
-191.263366699219

> <r_mmod_Stretch_Energy-OPLS-2005>
70.8699340820312

> <r_mmod_Bend_Energy-OPLS-2005>
158.493621826172

> <r_mmod_Torsional_Energy-OPLS-2005>
255.450531005859

> <r_mmod_Improper_Torsional_Energy-OPLS-2005>
10.1125593185425

> <r_mmod_Van_der_Waal_Energy-OPLS-2005>
149.94694519043

> <r_mmod_Electrostatic_Energy-OPLS-2005>
-635.993469238281

> <r_mmod_Solvation_Energy-OPLS-2005>
-241.270843505859

> <b_mmod_Minimization_Converged-OPLS-2005>
0

> <r_mmod_RMS_Derivative-OPLS-2005>
4.67552471160889

$$$$
95
                    3D
 Structure written by MMmdl.
160168  0  0  1  0            999 V2000
  -28.9033  -15.0165   19.9145 C   0  0  0  0  0  0
  -30.3338  -12.9760   19.1755 C   0  0  0  0  0  0
  -29.4127  -12.3743   18.0814 C   0  0  0  0  0  0
  -28.1199  -11.7355   18.6931 C   0  0  0  0  0  0
  -27.7519  -12.5741   19.9125 C   0  0  2  0  0  0
  -28.8612  -12.7494   20.9022 C   0  0  0  0  0  0
  -26.2874  -13.5556   21.6017 C   0  0  0  0  0  0
  -25.0919  -13.5877   21.2386 C   0  0  0  0  0  0
  -24.9107  -11.9764   21.2711 C   0  0  0  0  0  0
  -24.0331  -10.6426   21.3377 C   0  0  0  0  0  0
  -24.5790   -9.3980   21.8122 C   0  0  0  0  0  0
  -23.8430   -8.1698   21.8916 C   0  0  0  0  0  0
  -22.5205   -8.0581   21.3983 C   0  0  0  0  0  0
  -21.9563   -9.2288   20.8986 C   0  0  0  0  0  0
  -22.6733  -10.4401   21.0403 C   0  0  0  0  0  0
  -21.7220   -6.0901   22.5170 C   0  0  0  0  0  0
  -21.4337   -6.5811   23.8113 C   0  0  0  0  0  0
  -21.3827   -5.6960   24.9094 C   0  0  0  0  0  0
  -21.5995   -4.3177   24.7150 C   0  0  0  0  0  0
  -21.8677   -3.8227   23.4264 C   0  0  0  0  0  0
  -21.9209   -4.7039   22.3299 C   0  0  0  0  0  0
  -23.1640  -15.7446   19.9964 C   0  0  0  0  0  0
  -22.1687   -4.2218   21.0891 F   0  0  0  0  0  0
  -21.5542   -3.4613   25.7646 F   0  0  0  0  0  0
  -29.4417  -13.7273   20.1186 N   0  0  0  0  0  0
  -26.6661  -12.5872   20.6940 N   0  0  0  0  0  0
  -25.9414  -11.5256   20.6607 N   0  0  0  0  0  0
  -21.8787  -15.7931   20.6216 N   0  0  0  0  0  0
  -26.9286  -14.6376   22.0909 N   0  0  0  0  0  0
  -30.0090  -15.6515   19.8499 O   0  0  0  0  0  0
  -21.7561   -6.9080   21.4140 O   0  0  0  0  0  0
  -22.5986  -15.6703   18.9457 O   0  0  0  0  0  0
  -24.7250  -31.7397   23.1296 C   0  0  0  0  0  0
  -25.9680  -32.4145   23.7910 C   0  0  1  0  0  0
  -26.6015  -26.0103   20.5000 C   0  0  0  0  0  0
  -25.6111  -33.8048   24.1698 N   0  0  0  0  0  0
  -23.5471  -30.3597   21.4902 C   0  0  2  0  0  0
  -24.9093  -28.6010   20.1148 C   0  0  0  0  0  0
  -22.7828  -29.4035   22.4528 C   0  0  0  0  0  0
  -18.0286  -28.1445   22.8396 C   0  0  0  0  0  0
  -24.1467  -36.7027   23.2647 C   0  0  0  0  0  0
  -26.1249  -30.2247   21.5130 C   0  0  0  0  0  0
  -26.0585  -28.7321   20.8911 C   0  0  0  0  0  0
  -26.9141  -27.4633   21.0379 C   0  0  0  0  0  0
  -25.6316  -26.2714   19.5025 C   0  0  0  0  0  0
  -24.7934  -27.4188   19.3686 C   0  0  0  0  0  0
  -23.8142  -29.6825   20.1095 C   0  0  0  0  0  0
  -25.4148  -36.2738   24.0209 C   0  0  1  0  0  0
  -20.5950  -28.3798   23.1058 C   0  0  2  0  0  0
  -20.6766  -26.9441   22.5402 C   0  0  0  0  0  0
  -19.5751  -26.6347   21.5204 C   0  0  0  0  0  0
  -18.1920  -26.7943   22.1587 C   0  0  0  0  0  0
  -19.1579  -28.8940   23.2699 C   0  0  0  0  0  0
  -18.9500  -30.1518   23.8769 C   0  0  0  0  0  0
  -17.6501  -30.6632   24.0530 C   0  0  0  0  0  0
  -25.9169  -34.9134   23.4820 C   0  0  0  0  0  0
  -16.5365  -29.9127   23.6413 C   0  0  0  0  0  0
  -16.7264  -28.6559   23.0389 C   0  0  0  0  0  0
  -26.4697  -31.6526   25.0813 C   0  0  0  0  0  0
  -25.3621  -31.4115   26.1357 C   0  0  0  0  0  0
  -27.0768  -30.2817   24.7234 C   0  0  0  0  0  0
  -27.5991  -32.4608   25.7650 C   0  0  0  0  0  0
  -27.5548  -37.1656   24.8447 C   0  0  0  0  0  0
  -21.4450  -29.2959   22.3334 N   0  0  0  0  0  0
  -26.4204  -37.3592   23.9451 N   0  0  0  0  0  0
  -24.8366  -30.8276   22.0899 N   0  0  0  0  0  0
  -23.4141  -28.7663   23.2987 O   0  0  0  0  0  0
  -27.0265  -24.3935   20.6809 O   0  0  0  0  0  0
  -26.5853  -34.8809   22.4484 O   0  0  0  0  0  0
  -23.6171  -32.0842   23.5860 O   0  0  0  0  0  0
  -24.5426  -14.0447   19.1645 C   0  0  0  0  0  0
  -23.5484  -14.8650   22.0719 C   0  0  0  0  0  0
  -23.0376  -13.5773   20.5609 C   0  0  0  0  0  0
  -25.6788  -15.3204   19.7994 C   0  0  0  0  0  0
  -22.2410  -11.9168   18.7267 C   0  0  0  0  0  0
  -20.6249  -13.6543   19.0928 C   0  0  0  0  0  0
  -24.8650  -20.4003   19.7426 C   0  0  0  0  0  0
  -25.4693  -18.1591   21.5741 C   0  0  0  0  0  0
  -26.3755  -22.4911   21.1144 C   0  0  0  0  0  0
  -21.7491  -12.8785   19.8590 C   0  0  0  0  0  0
  -25.9506  -20.2578   20.7961 C   0  0  2  0  0  0
  -25.0297  -16.1390   21.3182 N   0  0  0  0  0  0
  -27.3317  -15.4704   19.5908 N   0  0  0  0  0  0
  -31.0404  -13.6648   18.7129 H   0  0  0  0  0  0
  -30.9483  -12.2173   19.6582 H   0  0  0  0  0  0
  -29.9564  -11.6488   17.4754 H   0  0  0  0  0  0
  -29.1220  -13.1703   17.3867 H   0  0  0  0  0  0
  -28.3330  -10.7178   19.0098 H   0  0  0  0  0  0
  -27.3217  -11.6499   17.9502 H   0  0  0  0  0  0
  -27.3938  -13.2854   19.1934 H   0  0  0  0  0  0
  -29.4138  -11.8131   21.0191 H   0  0  0  0  0  0
  -28.7007  -13.0834   21.9249 H   0  0  0  0  0  0
  -25.6186   -9.3760   22.1097 H   0  0  0  0  0  0
  -24.3429   -7.2793   22.2516 H   0  0  0  0  0  0
  -20.8864   -9.2662   20.7117 H   0  0  0  0  0  0
  -22.0958  -11.2415   21.4225 H   0  0  0  0  0  0
  -21.2605   -7.6371   23.9592 H   0  0  0  0  0  0
  -21.1724   -6.0809   25.9044 H   0  0  0  0  0  0
  -22.0236   -2.7650   23.2699 H   0  0  0  0  0  0
  -21.7494  -15.3552   21.5203 H   0  0  0  0  0  0
  -21.0883  -16.1027   20.0749 H   0  0  0  0  0  0
  -26.3203  -15.0955   22.7630 H   0  0  0  0  0  0
  -26.9356  -15.2520   21.2780 H   0  0  0  0  0  0
  -26.7820  -32.4409   23.0612 H   0  0  0  0  0  0
  -25.0146  -33.9089   24.9770 H   0  0  0  0  0  0
  -22.8900  -31.2150   21.3032 H   0  0  0  0  0  0
  -23.3807  -35.9276   23.3120 H   0  0  0  0  0  0
  -24.3505  -36.8919   22.2102 H   0  0  0  0  0  0
  -23.7119  -37.6073   23.6901 H   0  0  0  0  0  0
  -26.4420  -30.8877   20.7072 H   0  0  0  0  0  0
  -26.9440  -30.2391   22.2159 H   0  0  0  0  0  0
  -27.7528  -27.5346   21.7224 H   0  0  0  0  0  0
  -25.3657  -25.4242   18.8812 H   0  0  0  0  0  0
  -23.9769  -27.3378   18.6646 H   0  0  0  0  0  0
  -24.1191  -30.4466   19.3885 H   0  0  0  0  0  0
  -22.8850  -29.2543   19.7232 H   0  0  0  0  0  0
  -25.1357  -36.1391   25.0672 H   0  0  0  0  0  0
  -20.9937  -28.3445   24.1206 H   0  0  0  0  0  0
  -20.5664  -26.2383   23.3665 H   0  0  0  0  0  0
  -21.6616  -26.7385   22.1193 H   0  0  0  0  0  0
  -19.6947  -25.6225   21.1323 H   0  0  0  0  0  0
  -19.6758  -27.3059   20.6659 H   0  0  0  0  0  0
  -17.4210  -26.6604   21.3995 H   0  0  0  0  0  0
  -18.0349  -26.0136   22.9031 H   0  0  0  0  0  0
  -19.7996  -30.7346   24.2094 H   0  0  0  0  0  0
  -17.5076  -31.6307   24.5131 H   0  0  0  0  0  0
  -15.5379  -30.3006   23.7830 H   0  0  0  0  0  0
  -15.8628  -28.0862   22.7193 H   0  0  0  0  0  0
  -24.5614  -30.7698   25.7681 H   0  0  0  0  0  0
  -24.9061  -32.3462   26.4616 H   0  0  0  0  0  0
  -25.7613  -30.9317   27.0290 H   0  0  0  0  0  0
  -26.3542  -29.6111   24.2573 H   0  0  0  0  0  0
  -27.4232  -29.7703   25.6222 H   0  0  0  0  0  0
  -27.9508  -30.3838   24.0802 H   0  0  0  0  0  0
  -27.2367  -33.3985   26.1887 H   0  0  0  0  0  0
  -28.3971  -32.7087   25.0647 H   0  0  0  0  0  0
  -28.0492  -31.9046   26.5870 H   0  0  0  0  0  0
  -28.2398  -38.0113   24.7657 H   0  0  0  0  0  0
  -28.1204  -36.2639   24.6039 H   0  0  0  0  0  0
  -27.2298  -37.0976   25.8848 H   0  0  0  0  0  0
  -20.9808  -29.8644   21.6389 H   0  0  0  0  0  0
  -25.9949  -38.2575   24.1611 H   0  0  0  0  0  0
  -24.7015  -13.5006   18.2431 H   0  0  0  0  0  0
  -22.9640  -15.1774   22.9277 H   0  0  0  0  0  0
  -23.2834  -11.6289   18.8483 H   0  0  0  0  0  0
  -22.1964  -12.3430   17.7268 H   0  0  0  0  0  0
  -21.6550  -11.0024   18.6628 H   0  0  0  0  0  0
  -19.9846  -14.2621   19.7379 H   0  0  0  0  0  0
  -19.9487  -12.9560   18.5943 H   0  0  0  0  0  0
  -20.9880  -14.2379   18.2497 H   0  0  0  0  0  0
  -24.8314  -19.5518   19.0646 H   0  0  0  0  0  0
  -25.0531  -21.2798   19.1368 H   0  0  0  0  0  0
  -23.8758  -20.5191   20.1843 H   0  0  0  0  0  0
  -24.5939  -18.4387   22.1589 H   0  0  0  0  0  0
  -26.2474  -18.0642   22.3294 H   0  0  0  0  0  0
  -25.6516  -22.7240   21.9017 H   0  0  0  0  0  0
  -27.2581  -22.3034   21.7258 H   0  0  0  0  0  0
  -21.0350  -12.4519   20.5530 H   0  0  0  0  0  0
  -26.8575  -20.0042   20.2385 H   0  0  0  0  0  0
  -27.4784  -16.3952   19.2171 H   0  0  0  0  0  0
  1 25  1  0  0  0
  1 30  2  0  0  0
  1 83  1  0  0  0
  2  3  1  0  0  0
  2 25  1  0  0  0
  2 84  1  0  0  0
  2 85  1  0  0  0
  3  4  1  0  0  0
  3 86  1  0  0  0
  3 87  1  0  0  0
  4  5  1  0  0  0
  4 88  1  0  0  0
  4 89  1  0  0  0
  5  6  1  0  0  0
  5 26  1  0  0  0
  5 90  1  0  0  0
  6 25  1  0  0  0
  6 91  1  0  0  0
  6 92  1  0  0  0
  7  8  2  0  0  0
  7 26  1  0  0  0
  7 29  1  0  0  0
  8  9  1  0  0  0
  8 22  1  0  0  0
  9 10  1  0  0  0
  9 27  2  0  0  0
 10 11  2  0  0  0
 10 15  1  0  0  0
 11 12  1  0  0  0
 11 93  1  0  0  0
 12 13  2  0  0  0
 12 94  1  0  0  0
 13 14  1  0  0  0
 13 31  1  0  0  0
 14 15  2  0  0  0
 14 95  1  0  0  0
 15 96  1  0  0  0
 16 17  2  0  0  0
 16 21  1  0  0  0
 16 31  1  0  0  0
 17 18  1  0  0  0
 17 97  1  0  0  0
 18 19  2  0  0  0
 18 98  1  0  0  0
 19 20  1  0  0  0
 19 24  1  0  0  0
 20 21  2  0  0  0
 20 99  1  0  0  0
 21 23  1  0  0  0
 22 28  1  0  0  0
 22 32  2  0  0  0
 26 27  1  0  0  0
 28100  1  0  0  0
 28101  1  0  0  0
 29102  1  0  0  0
 29103  1  0  0  0
 33 34  1  0  0  0
 33 66  1  0  0  0
 33 70  2  0  0  0
 34 36  1  0  0  0
 34 59  1  0  0  0
 34104  1  0  0  0
 35 44  2  0  0  0
 35 45  1  0  0  0
 35 68  1  0  0  0
 36 56  1  0  0  0
 36105  1  0  0  0
 37 39  1  0  0  0
 37 47  1  0  0  0
 37 66  1  0  0  0
 37106  1  0  0  0
 38 43  2  0  0  0
 38 46  1  0  0  0
 38 47  1  0  0  0
 39 64  1  0  0  0
 39 67  2  0  0  0
 40 52  1  0  0  0
 40 53  2  0  0  0
 40 58  1  0  0  0
 41107  1  0  0  0
 41108  1  0  0  0
 41109  1  0  0  0
 41 48  1  0  0  0
 42 43  1  0  0  0
 42 66  1  0  0  0
 42110  1  0  0  0
 42111  1  0  0  0
 43 44  1  0  0  0
 44112  1  0  0  0
 45 46  2  0  0  0
 45113  1  0  0  0
 46114  1  0  0  0
 47115  1  0  0  0
 47116  1  0  0  0
 48 56  1  0  0  0
 48 65  1  0  0  0
 48117  1  0  0  0
 49 50  1  0  0  0
 49 53  1  0  0  0
 49 64  1  0  0  0
 49118  1  0  0  0
 50 51  1  0  0  0
 50119  1  0  0  0
 50120  1  0  0  0
 51 52  1  0  0  0
 51121  1  0  0  0
 51122  1  0  0  0
 52123  1  0  0  0
 52124  1  0  0  0
 53 54  1  0  0  0
 54 55  2  0  0  0
 54125  1  0  0  0
 55 57  1  0  0  0
 55126  1  0  0  0
 56 69  2  0  0  0
 57 58  2  0  0  0
 57127  1  0  0  0
 58128  1  0  0  0
 59 60  1  0  0  0
 59 61  1  0  0  0
 59 62  1  0  0  0
 60129  1  0  0  0
 60130  1  0  0  0
 60131  1  0  0  0
 61132  1  0  0  0
 61133  1  0  0  0
 61134  1  0  0  0
 62135  1  0  0  0
 62136  1  0  0  0
 62137  1  0  0  0
 63 65  1  0  0  0
 63138  1  0  0  0
 63139  1  0  0  0
 63140  1  0  0  0
 64141  1  0  0  0
 65142  1  0  0  0
 68 79  1  0  0  0
 71 73  1  0  0  0
 71 74  2  0  0  0
 71143  1  0  0  0
 72 73  2  0  0  0
 72 82  1  0  0  0
 72144  1  0  0  0
 73 80  1  0  0  0
 74 82  1  0  0  0
 74 83  1  0  0  0
 75145  1  0  0  0
 75146  1  0  0  0
 75147  1  0  0  0
 75 80  1  0  0  0
 76 80  1  0  0  0
 76148  1  0  0  0
 76149  1  0  0  0
 76150  1  0  0  0
 77151  1  0  0  0
 77152  1  0  0  0
 77153  1  0  0  0
 77 81  1  0  0  0
 78 81  1  0  0  0
 78 82  1  0  0  0
 78154  1  0  0  0
 78155  1  0  0  0
 79 81  1  0  0  0
 79156  1  0  0  0
 79157  1  0  0  0
 80158  1  0  0  0
 81159  1  0  0  0
 83160  1  0  0  0
M  ISO  4   1 100  68 101  79 101  83 100
M  END
> <chiral flag>
0

> <version>
0

> <s_m_source_file>
/data/baiqing/PycharmProjects/Reinvent-master-3.2/result/LINK_invent/BTK/process_docking_weight1_custom_sum_contain_oxygen_bond_distance_aromatic_linkinvent_7_9_3/rearranged_h_0099.sdf

> <i_m_source_file_index>
96

> <r_mmod_Potential_Energy-OPLS-2005>
23107.087890625

> <r_mmod_Stretch_Energy-OPLS-2005>
11802.0849609375

> <r_mmod_Bend_Energy-OPLS-2005>
1680.69458007812

> <r_mmod_Torsional_Energy-OPLS-2005>
716.601257324219

> <r_mmod_Improper_Torsional_Energy-OPLS-2005>
116.209732055664

> <r_mmod_Van_der_Waal_Energy-OPLS-2005>
3602.8974609375

> <r_mmod_Electrostatic_Energy-OPLS-2005>
-434.223175048828

> <r_mmod_Solvation_Energy-OPLS-2005>
-200.615615844727

> <b_mmod_Minimization_Converged-OPLS-2005>
0

> <r_mmod_RMS_Derivative-OPLS-2005>
33.5282440185547

$$$$
96
                    3D
 Structure written by MMmdl.
172180  0  0  1  0            999 V2000
  -30.7738  -14.3198   20.7168 C   0  0  0  0  0  0
  -30.4149  -12.2865   19.3668 C   0  0  0  0  0  0
  -29.4740  -12.5477   18.1771 C   0  0  0  0  0  0
  -27.9976  -12.4087   18.5932 C   0  0  0  0  0  0
  -27.6671  -13.2002   19.8866 C   0  0  2  0  0  0
  -28.7076  -12.8986   20.9864 C   0  0  0  0  0  0
  -25.2586  -13.8075   20.5676 C   0  0  0  0  0  0
  -24.1834  -13.0398   20.9172 C   0  0  0  0  0  0
  -24.6389  -11.6869   20.8723 C   0  0  0  0  0  0
  -23.9051  -10.4275   21.0376 C   0  0  0  0  0  0
  -24.3611   -9.4205   21.9157 C   0  0  0  0  0  0
  -23.6293   -8.2238   22.0744 C   0  0  0  0  0  0
  -22.4268   -8.0272   21.3544 C   0  0  0  0  0  0
  -21.9895   -9.0238   20.4636 C   0  0  0  0  0  0
  -22.7217  -10.2122   20.3031 C   0  0  0  0  0  0
  -21.6853   -6.0746   22.5297 C   0  0  0  0  0  0
  -21.4003   -6.5644   23.8237 C   0  0  0  0  0  0
  -21.3657   -5.6789   24.9194 C   0  0  0  0  0  0
  -21.6043   -4.3054   24.7233 C   0  0  0  0  0  0
  -21.8815   -3.8156   23.4352 C   0  0  0  0  0  0
  -21.9190   -4.6974   22.3415 C   0  0  0  0  0  0
  -22.7860  -13.5211   21.1838 C   0  0  0  0  0  0
  -22.1652   -4.2157   21.0994 F   0  0  0  0  0  0
  -21.5633   -3.4538   25.7750 F   0  0  0  0  0  0
  -30.0523  -13.2006   20.4574 N   0  0  0  0  0  0
  -26.3056  -12.9278   20.3413 N   0  0  0  0  0  0
  -25.9327  -11.6444   20.5771 N   0  0  0  0  0  0
  -22.0508  -12.8217   22.0403 N   0  0  0  0  0  0
  -25.4281  -15.1753   20.4062 N   0  0  0  0  0  0
  -31.7516  -14.6741   20.0512 O   0  0  0  0  0  0
  -21.6630   -6.8874   21.4255 O   0  0  0  0  0  0
  -22.3567  -14.5538   20.6700 O   0  0  0  0  0  0
  -24.6095  -31.8681   23.2111 C   0  0  0  0  0  0
  -25.9013  -32.4827   23.8393 C   0  0  1  0  0  0
  -27.2550  -27.4622   20.0869 C   0  0  0  0  0  0
  -25.5906  -33.8631   24.2337 N   0  0  0  0  0  0
  -23.3998  -30.4898   21.5473 C   0  0  2  0  0  0
  -24.8481  -28.9515   20.1153 C   0  0  0  0  0  0
  -22.7392  -29.4656   22.4968 C   0  0  0  0  0  0
  -18.0274  -28.1395   22.8481 C   0  0  0  0  0  0
  -24.1483  -36.7292   23.2640 C   0  0  0  0  0  0
  -25.9239  -30.8357   21.3644 C   0  0  0  0  0  0
  -26.0003  -29.4712   20.7142 C   0  0  0  0  0  0
  -27.1980  -28.7305   20.7027 C   0  0  0  0  0  0
  -26.0831  -26.9414   19.4903 C   0  0  0  0  0  0
  -24.8815  -27.6816   19.5095 C   0  0  0  0  0  0
  -23.6074  -29.8155   20.1630 C   0  0  0  0  0  0
  -25.4111  -36.3125   24.0342 C   0  0  1  0  0  0
  -20.5856  -28.3661   23.1306 C   0  0  2  0  0  0
  -20.6769  -26.9389   22.5417 C   0  0  0  0  0  0
  -19.5751  -26.6385   21.5215 C   0  0  0  0  0  0
  -18.1926  -26.7933   22.1617 C   0  0  0  0  0  0
  -19.1525  -28.8836   23.2891 C   0  0  0  0  0  0
  -18.9466  -30.1443   23.8898 C   0  0  0  0  0  0
  -17.6475  -30.6593   24.0560 C   0  0  0  0  0  0
  -25.9038  -34.9483   23.5137 C   0  0  0  0  0  0
  -16.5361  -29.9102   23.6329 C   0  0  0  0  0  0
  -16.7260  -28.6522   23.0341 C   0  0  0  0  0  0
  -26.4468  -31.6618   25.0714 C   0  0  0  0  0  0
  -25.3755  -31.3731   26.1486 C   0  0  0  0  0  0
  -27.0296  -30.3063   24.6078 C   0  0  0  0  0  0
  -27.6045  -32.4344   25.7473 C   0  0  0  0  0  0
  -27.5577  -37.1803   24.8461 C   0  0  0  0  0  0
  -21.4115  -29.3044   22.3722 N   0  0  0  0  0  0
  -26.4294  -37.3805   23.9411 N   0  0  0  0  0  0
  -24.6613  -31.0809   22.0990 N   0  0  0  0  0  0
  -23.4169  -28.8201   23.3004 O   0  0  0  0  0  0
  -28.4700  -26.8111   20.0991 O   0  0  0  0  0  0
  -26.5584  -34.8924   22.4688 O   0  0  0  0  0  0
  -23.5297  -32.1425   23.7535 O   0  0  0  0  0  0
  -30.5550  -18.7126   22.2137 C   0  0  0  0  0  0
  -28.6093  -17.2650   22.0400 C   0  0  0  0  0  0
  -30.0047  -17.4159   22.1963 C   0  0  0  0  0  0
  -29.7328  -19.8584   22.1101 C   0  0  0  0  0  0
  -28.3260  -19.6990   21.9764 C   0  0  0  0  0  0
  -27.7796  -18.3943   21.8949 C   0  0  0  0  0  0
  -27.3949  -20.9092   21.9253 C   0  0  0  0  0  0
  -31.2172  -21.4691   23.3797 C   0  0  0  0  0  0
  -26.0578  -18.4506   20.3185 C   0  0  0  0  0  0
  -30.9364  -16.2149   22.3365 C   0  0  0  0  0  0
  -29.9227  -24.9270   20.1601 C   0  0  0  0  0  0
  -30.2001  -23.4695   19.7552 C   0  0  0  0  0  0
  -31.2179  -21.4594   20.8092 C   0  0  0  0  0  0
  -28.5843  -25.4729   19.6250 C   0  0  0  0  0  0
  -30.3879  -21.2435   22.1015 C   0  0  1  0  0  0
  -30.3824  -14.9703   21.8154 N   0  0  0  0  0  0
  -31.3697  -22.8927   20.4673 N   0  3  0  0  0  0
  -26.4426  -18.1975   21.6674 O   0  0  0  0  0  0
  -31.4536  -12.4013   19.0553 H   0  0  0  0  0  0
  -30.3222  -11.2550   19.7076 H   0  0  0  0  0  0
  -29.6998  -11.8609   17.3597 H   0  0  0  0  0  0
  -29.6478  -13.5521   17.7875 H   0  0  0  0  0  0
  -27.7831  -11.3486   18.7350 H   0  0  0  0  0  0
  -27.3503  -12.7392   17.7795 H   0  0  0  0  0  0
  -27.7343  -14.2611   19.6490 H   0  0  0  0  0  0
  -28.6673  -11.8424   21.2536 H   0  0  0  0  0  0
  -28.4556  -13.4310   21.9029 H   0  0  0  0  0  0
  -25.2766   -9.5701   22.4717 H   0  0  0  0  0  0
  -24.0019   -7.4636   22.7462 H   0  0  0  0  0  0
  -21.0827   -8.8747   19.8943 H   0  0  0  0  0  0
  -22.3665  -10.9658   19.6134 H   0  0  0  0  0  0
  -21.1984   -7.6154   23.9740 H   0  0  0  0  0  0
  -21.1473   -6.0523   25.9096 H   0  0  0  0  0  0
  -22.0592   -2.7620   23.2861 H   0  0  0  0  0  0
  -22.4106  -11.9878   22.4803 H   0  0  0  0  0  0
  -21.1124  -13.1242   22.2596 H   0  0  0  0  0  0
  -24.6708  -15.8331   20.5456 H   0  0  0  0  0  0
  -26.2916  -15.6162   20.1208 H   0  0  0  0  0  0
  -26.7075  -32.5538   23.1146 H   0  0  0  0  0  0
  -25.0112  -33.9800   25.0523 H   0  0  0  0  0  0
  -22.6862  -31.3055   21.4077 H   0  0  0  0  0  0
  -23.3764  -35.9608   23.3333 H   0  0  0  0  0  0
  -24.3566  -36.8863   22.2046 H   0  0  0  0  0  0
  -23.7217  -37.6500   23.6624 H   0  0  0  0  0  0
  -26.0412  -31.6000   20.5949 H   0  0  0  0  0  0
  -26.8100  -30.8861   21.9858 H   0  0  0  0  0  0
  -28.0879  -29.1329   21.1665 H   0  0  0  0  0  0
  -26.0800  -25.9782   19.0032 H   0  0  0  0  0  0
  -23.9928  -27.2707   19.0516 H   0  0  0  0  0  0
  -23.7111  -30.5900   19.4009 H   0  0  0  0  0  0
  -22.7339  -29.2304   19.8714 H   0  0  0  0  0  0
  -25.1294  -36.1997   25.0835 H   0  0  0  0  0  0
  -20.9948  -28.3241   24.1423 H   0  0  0  0  0  0
  -20.5671  -26.2263   23.3601 H   0  0  0  0  0  0
  -21.6642  -26.7432   22.1217 H   0  0  0  0  0  0
  -19.6910  -25.6306   21.1225 H   0  0  0  0  0  0
  -19.6727  -27.3210   20.6756 H   0  0  0  0  0  0
  -17.4205  -26.6669   21.4013 H   0  0  0  0  0  0
  -18.0324  -26.0086   22.9014 H   0  0  0  0  0  0
  -19.7954  -30.7249   24.2265 H   0  0  0  0  0  0
  -17.5048  -31.6268   24.5179 H   0  0  0  0  0  0
  -15.5367  -30.3015   23.7670 H   0  0  0  0  0  0
  -15.8656  -28.0855   22.7048 H   0  0  0  0  0  0
  -24.5934  -30.7049   25.7854 H   0  0  0  0  0  0
  -24.8938  -32.2887   26.4925 H   0  0  0  0  0  0
  -25.8142  -30.8936   27.0244 H   0  0  0  0  0  0
  -26.2824  -29.6829   24.1145 H   0  0  0  0  0  0
  -27.4089  -29.7297   25.4524 H   0  0  0  0  0  0
  -27.8653  -30.4392   23.9206 H   0  0  0  0  0  0
  -27.2667  -33.3638   26.2062 H   0  0  0  0  0  0
  -28.3851  -32.6908   25.0305 H   0  0  0  0  0  0
  -28.0707  -31.8459   26.5379 H   0  0  0  0  0  0
  -28.2621  -38.0078   24.7523 H   0  0  0  0  0  0
  -28.1061  -36.2617   24.6308 H   0  0  0  0  0  0
  -27.2277  -37.1454   25.8857 H   0  0  0  0  0  0
  -20.9261  -29.8762   21.6949 H   0  0  0  0  0  0
  -26.0191  -38.2878   24.1459 H   0  0  0  0  0  0
  -31.6278  -18.8260   22.3037 H   0  0  0  0  0  0
  -28.1601  -16.2830   22.0115 H   0  0  0  0  0  0
  -27.5041  -21.5155   22.8263 H   0  0  0  0  0  0
  -26.3423  -20.6337   21.8678 H   0  0  0  0  0  0
  -27.6076  -21.5262   21.0532 H   0  0  0  0  0  0
  -31.6606  -22.4629   23.4069 H   0  0  0  0  0  0
  -32.0330  -20.7530   23.4799 H   0  0  0  0  0  0
  -30.5900  -21.3716   24.2661 H   0  0  0  0  0  0
  -26.5114  -19.3497   19.9010 H   0  0  0  0  0  0
  -24.9769  -18.5766   20.2623 H   0  0  0  0  0  0
  -26.3396  -17.6195   19.6722 H   0  0  0  0  0  0
  -31.8898  -16.4446   21.8565 H   0  0  0  0  0  0
  -31.1577  -16.0661   23.3951 H   0  0  0  0  0  0
  -30.7458  -25.5582   19.8186 H   0  0  0  0  0  0
  -29.9069  -24.9993   21.2483 H   0  0  0  0  0  0
  -30.3775  -23.4051   18.6810 H   0  0  0  0  0  0
  -29.3098  -22.8703   19.9478 H   0  0  0  0  0  0
  -30.7580  -20.9466   19.9635 H   0  0  0  0  0  0
  -32.2057  -21.0116   20.9255 H   0  0  0  0  0  0
  -27.7676  -24.8486   19.9904 H   0  0  0  0  0  0
  -28.5645  -25.4572   18.5345 H   0  0  0  0  0  0
  -29.6133  -22.0040   22.1250 H   0  0  0  0  0  0
  -29.6272  -14.5506   22.3346 H   0  0  0  0  0  0
  -31.5660  -23.4121   21.3065 H   0  0  0  0  0  0
  -32.1725  -22.9856   19.8655 H   0  0  0  0  0  0
  1 25  1  0  0  0
  1 30  2  0  0  0
  1 86  1  0  0  0
  2  3  1  0  0  0
  2 25  1  0  0  0
  2 89  1  0  0  0
  2 90  1  0  0  0
  3  4  1  0  0  0
  3 91  1  0  0  0
  3 92  1  0  0  0
  4  5  1  0  0  0
  4 93  1  0  0  0
  4 94  1  0  0  0
  5  6  1  0  0  0
  5 26  1  0  0  0
  5 95  1  0  0  0
  6 25  1  0  0  0
  6 96  1  0  0  0
  6 97  1  0  0  0
  7  8  2  0  0  0
  7 26  1  0  0  0
  7 29  1  0  0  0
  8  9  1  0  0  0
  8 22  1  0  0  0
  9 10  1  0  0  0
  9 27  2  0  0  0
 10 11  2  0  0  0
 10 15  1  0  0  0
 11 12  1  0  0  0
 11 98  1  0  0  0
 12 13  2  0  0  0
 12 99  1  0  0  0
 13 14  1  0  0  0
 13 31  1  0  0  0
 14 15  2  0  0  0
 14100  1  0  0  0
 15101  1  0  0  0
 16 17  2  0  0  0
 16 21  1  0  0  0
 16 31  1  0  0  0
 17 18  1  0  0  0
 17102  1  0  0  0
 18 19  2  0  0  0
 18103  1  0  0  0
 19 20  1  0  0  0
 19 24  1  0  0  0
 20 21  2  0  0  0
 20104  1  0  0  0
 21 23  1  0  0  0
 22 28  1  0  0  0
 22 32  2  0  0  0
 26 27  1  0  0  0
 28105  1  0  0  0
 28106  1  0  0  0
 29107  1  0  0  0
 29108  1  0  0  0
 33 34  1  0  0  0
 33 66  1  0  0  0
 33 70  2  0  0  0
 34 36  1  0  0  0
 34 59  1  0  0  0
 34109  1  0  0  0
 35 44  2  0  0  0
 35 45  1  0  0  0
 35 68  1  0  0  0
 36 56  1  0  0  0
 36110  1  0  0  0
 37 39  1  0  0  0
 37 47  1  0  0  0
 37 66  1  0  0  0
 37111  1  0  0  0
 38 43  2  0  0  0
 38 46  1  0  0  0
 38 47  1  0  0  0
 39 64  1  0  0  0
 39 67  2  0  0  0
 40 52  1  0  0  0
 40 53  2  0  0  0
 40 58  1  0  0  0
 41112  1  0  0  0
 41113  1  0  0  0
 41114  1  0  0  0
 41 48  1  0  0  0
 42 43  1  0  0  0
 42 66  1  0  0  0
 42115  1  0  0  0
 42116  1  0  0  0
 43 44  1  0  0  0
 44117  1  0  0  0
 45 46  2  0  0  0
 45118  1  0  0  0
 46119  1  0  0  0
 47120  1  0  0  0
 47121  1  0  0  0
 48 56  1  0  0  0
 48 65  1  0  0  0
 48122  1  0  0  0
 49 50  1  0  0  0
 49 53  1  0  0  0
 49 64  1  0  0  0
 49123  1  0  0  0
 50 51  1  0  0  0
 50124  1  0  0  0
 50125  1  0  0  0
 51 52  1  0  0  0
 51126  1  0  0  0
 51127  1  0  0  0
 52128  1  0  0  0
 52129  1  0  0  0
 53 54  1  0  0  0
 54 55  2  0  0  0
 54130  1  0  0  0
 55 57  1  0  0  0
 55131  1  0  0  0
 56 69  2  0  0  0
 57 58  2  0  0  0
 57132  1  0  0  0
 58133  1  0  0  0
 59 60  1  0  0  0
 59 61  1  0  0  0
 59 62  1  0  0  0
 60134  1  0  0  0
 60135  1  0  0  0
 60136  1  0  0  0
 61137  1  0  0  0
 61138  1  0  0  0
 61139  1  0  0  0
 62140  1  0  0  0
 62141  1  0  0  0
 62142  1  0  0  0
 63 65  1  0  0  0
 63143  1  0  0  0
 63144  1  0  0  0
 63145  1  0  0  0
 64146  1  0  0  0
 65147  1  0  0  0
 68 84  1  0  0  0
 71 73  2  0  0  0
 71 74  1  0  0  0
 71148  1  0  0  0
 72 73  1  0  0  0
 72 76  2  0  0  0
 72149  1  0  0  0
 73 80  1  0  0  0
 74 75  2  0  0  0
 74 85  1  0  0  0
 75 76  1  0  0  0
 75 77  1  0  0  0
 76 88  1  0  0  0
 77150  1  0  0  0
 77151  1  0  0  0
 77152  1  0  0  0
 78153  1  0  0  0
 78154  1  0  0  0
 78155  1  0  0  0
 78 85  1  0  0  0
 79 88  1  0  0  0
 79156  1  0  0  0
 79157  1  0  0  0
 79158  1  0  0  0
 80 86  1  0  0  0
 80159  1  0  0  0
 80160  1  0  0  0
 81 82  1  0  0  0
 81 84  1  0  0  0
 81161  1  0  0  0
 81162  1  0  0  0
 82 87  1  0  0  0
 82163  1  0  0  0
 82164  1  0  0  0
 83 85  1  0  0  0
 83 87  1  0  0  0
 83165  1  0  0  0
 83166  1  0  0  0
 84167  1  0  0  0
 84168  1  0  0  0
 85169  1  0  0  0
 86170  1  0  0  0
 87171  1  0  0  0
 87172  1  0  0  0
M  CHG  1  87   1
M  ISO  4   1 100  68 101  84 101  86 100
M  END
> <chiral flag>
0

> <version>
0

> <s_m_source_file>
/data/baiqing/PycharmProjects/Reinvent-master-3.2/result/LINK_invent/BTK/process_docking_weight1_custom_sum_contain_oxygen_bond_distance_aromatic_linkinvent_7_9_3/rearranged_h_0099.sdf

> <i_m_source_file_index>
97

> <r_mmod_Potential_Energy-OPLS-2005>
-292.427947998047

> <r_mmod_Stretch_Energy-OPLS-2005>
34.8596992492676

> <r_mmod_Bend_Energy-OPLS-2005>
98.0399322509766

> <r_mmod_Torsional_Energy-OPLS-2005>
241.085250854492

> <r_mmod_Improper_Torsional_Energy-OPLS-2005>
2.04318737983704

> <r_mmod_Van_der_Waal_Energy-OPLS-2005>
158.852294921875

> <r_mmod_Electrostatic_Energy-OPLS-2005>
-364.554443359375

> <r_mmod_Solvation_Energy-OPLS-2005>
-471.877197265625

> <b_mmod_Minimization_Converged-OPLS-2005>
0

> <r_mmod_RMS_Derivative-OPLS-2005>
3.12435173988342

$$$$
97
                    3D
 Structure written by MMmdl.
158165  0  0  1  0            999 V2000
  -30.5516  -14.9290   20.4524 C   0  0  0  0  0  0
  -30.4382  -12.5829   19.4855 C   0  0  0  0  0  0
  -29.5171  -12.5397   18.2464 C   0  0  0  0  0  0
  -28.0503  -12.3262   18.6648 C   0  0  0  0  0  0
  -27.6324  -13.2453   19.8411 C   0  0  2  0  0  0
  -28.6768  -13.2637   20.9768 C   0  0  0  0  0  0
  -25.2512  -13.8212   20.5708 C   0  0  0  0  0  0
  -24.1831  -13.0452   20.9222 C   0  0  0  0  0  0
  -24.6437  -11.6920   20.8751 C   0  0  0  0  0  0
  -23.9110  -10.4302   21.0408 C   0  0  0  0  0  0
  -24.3664   -9.4222   21.9183 C   0  0  0  0  0  0
  -23.6324   -8.2262   22.0758 C   0  0  0  0  0  0
  -22.4302   -8.0302   21.3551 C   0  0  0  0  0  0
  -21.9950   -9.0270   20.4646 C   0  0  0  0  0  0
  -22.7284  -10.2142   20.3055 C   0  0  0  0  0  0
  -21.6863   -6.0753   22.5277 C   0  0  0  0  0  0
  -21.4016   -6.5648   23.8207 C   0  0  0  0  0  0
  -21.3662   -5.6791   24.9165 C   0  0  0  0  0  0
  -21.6055   -4.3053   24.7210 C   0  0  0  0  0  0
  -21.8824   -3.8154   23.4323 C   0  0  0  0  0  0
  -21.9216   -4.6982   22.3391 C   0  0  0  0  0  0
  -22.7862  -13.5224   21.1869 C   0  0  0  0  0  0
  -22.1680   -4.2179   21.0969 F   0  0  0  0  0  0
  -21.5634   -3.4535   25.7719 F   0  0  0  0  0  0
  -29.9487  -13.6767   20.3706 N   0  0  0  0  0  0
  -26.2920  -12.9421   20.3255 N   0  0  0  0  0  0
  -25.9371  -11.6551   20.5750 N   0  0  0  0  0  0
  -22.0523  -12.8210   22.0408 N   0  0  0  0  0  0
  -25.4188  -15.1939   20.4102 N   0  0  0  0  0  0
  -31.7638  -14.9931   20.2249 O   0  0  0  0  0  0
  -21.6661   -6.8902   21.4245 O   0  0  0  0  0  0
  -22.3547  -14.5546   20.6715 O   0  0  0  0  0  0
  -24.6453  -31.8432   23.1871 C   0  0  0  0  0  0
  -25.9239  -32.4675   23.8261 C   0  0  1  0  0  0
  -27.2066  -27.1408   20.1452 C   0  0  0  0  0  0
  -25.5986  -33.8482   24.2185 N   0  0  0  0  0  0
  -23.4459  -30.4627   21.5352 C   0  0  2  0  0  0
  -24.8915  -28.8921   20.1051 C   0  0  0  0  0  0
  -22.7573  -29.4525   22.4876 C   0  0  0  0  0  0
  -18.0296  -28.1378   22.8461 C   0  0  0  0  0  0
  -24.1497  -36.7264   23.2641 C   0  0  0  0  0  0
  -26.0028  -30.7145   21.3873 C   0  0  0  0  0  0
  -26.0686  -29.3288   20.7250 C   0  0  0  0  0  0
  -27.2279  -28.4690   20.7277 C   0  0  0  0  0  0
  -26.0083  -26.8057   19.4774 C   0  0  0  0  0  0
  -24.8743  -27.6440   19.4638 C   0  0  0  0  0  0
  -23.6689  -29.7943   20.1529 C   0  0  0  0  0  0
  -25.4124  -36.3025   24.0314 C   0  0  1  0  0  0
  -20.5908  -28.3700   23.1232 C   0  0  2  0  0  0
  -20.6773  -26.9403   22.5405 C   0  0  0  0  0  0
  -19.5749  -26.6358   21.5206 C   0  0  0  0  0  0
  -18.1928  -26.7909   22.1608 C   0  0  0  0  0  0
  -19.1551  -28.8853   23.2827 C   0  0  0  0  0  0
  -18.9481  -30.1452   23.8840 C   0  0  0  0  0  0
  -17.6479  -30.6571   24.0550 C   0  0  0  0  0  0
  -25.9079  -34.9401   23.5061 C   0  0  0  0  0  0
  -16.5361  -29.9061   23.6339 C   0  0  0  0  0  0
  -16.7283  -28.6485   23.0337 C   0  0  0  0  0  0
  -26.4543  -31.6531   25.0717 C   0  0  0  0  0  0
  -25.3710  -31.3782   26.1403 C   0  0  0  0  0  0
  -27.0434  -30.2916   24.6336 C   0  0  0  0  0  0
  -27.6058  -32.4307   25.7512 C   0  0  0  0  0  0
  -27.5580  -37.1787   24.8460 C   0  0  0  0  0  0
  -21.4260  -29.3040   22.3623 N   0  0  0  0  0  0
  -26.4285  -37.3746   23.9403 N   0  0  0  0  0  0
  -24.7176  -31.0288   22.0913 N   0  0  0  0  0  0
  -23.4223  -28.8068   23.3015 O   0  0  0  0  0  0
  -28.2535  -26.1567   20.2370 O   0  0  0  0  0  0
  -26.5661  -34.8900   22.4639 O   0  0  0  0  0  0
  -23.5579  -32.1328   23.7085 O   0  0  0  0  0  0
  -31.8747  -20.5543   19.7366 C   0  0  0  0  0  0
  -31.5524  -20.3816   22.2760 C   0  0  0  0  0  0
  -28.9388  -23.3492   20.5047 C   0  0  0  0  0  0
  -30.1125  -17.6280   20.8836 C   0  0  0  0  0  0
  -28.7343  -21.7137   20.0920 C   0  0  0  0  0  0
  -29.3126  -18.9868   20.2578 C   0  0  0  0  0  0
  -27.9895  -24.6425   20.0061 C   0  0  0  0  0  0
  -30.9759  -20.8784   20.9402 C   0  0  0  0  0  0
  -29.7709  -16.1074   20.5987 N   0  0  0  0  0  0
  -29.5435  -20.4986   20.7392 N   0  3  1  0  0  0
  -31.4685  -12.7466   19.1698 H   0  0  0  0  0  0
  -30.4290  -11.6216   20.0043 H   0  0  0  0  0  0
  -29.8307  -11.7502   17.5634 H   0  0  0  0  0  0
  -29.6084  -13.4766   17.6941 H   0  0  0  0  0  0
  -27.9431  -11.2804   18.9530 H   0  0  0  0  0  0
  -27.3879  -12.4824   17.8132 H   0  0  0  0  0  0
  -27.5993  -14.2519   19.4235 H   0  0  0  0  0  0
  -28.7667  -12.2880   21.4574 H   0  0  0  0  0  0
  -28.3784  -13.9650   21.7579 H   0  0  0  0  0  0
  -25.2829   -9.5722   22.4738 H   0  0  0  0  0  0
  -24.0074   -7.4670   22.7471 H   0  0  0  0  0  0
  -21.0895   -8.8778   19.8938 H   0  0  0  0  0  0
  -22.3745  -10.9688   19.6165 H   0  0  0  0  0  0
  -21.1977   -7.6146   23.9726 H   0  0  0  0  0  0
  -21.1480   -6.0505   25.9079 H   0  0  0  0  0  0
  -22.0601   -2.7620   23.2801 H   0  0  0  0  0  0
  -22.4174  -11.9865   22.4780 H   0  0  0  0  0  0
  -21.1136  -13.1205   22.2591 H   0  0  0  0  0  0
  -24.6420  -15.8404   20.5078 H   0  0  0  0  0  0
  -26.2436  -15.6266   20.0140 H   0  0  0  0  0  0
  -26.7309  -32.5260   23.0986 H   0  0  0  0  0  0
  -25.0124  -33.9586   25.0328 H   0  0  0  0  0  0
  -22.7490  -31.2888   21.3826 H   0  0  0  0  0  0
  -23.3756  -35.9596   23.3269 H   0  0  0  0  0  0
  -24.3592  -36.8930   22.2065 H   0  0  0  0  0  0
  -23.7243  -37.6447   23.6702 H   0  0  0  0  0  0
  -26.1668  -31.4664   20.6143 H   0  0  0  0  0  0
  -26.8727  -30.7563   22.0330 H   0  0  0  0  0  0
  -28.1244  -28.7957   21.2349 H   0  0  0  0  0  0
  -25.9110  -25.8517   18.9811 H   0  0  0  0  0  0
  -23.9778  -27.3048   18.9639 H   0  0  0  0  0  0
  -23.8089  -30.5712   19.4002 H   0  0  0  0  0  0
  -22.7810  -29.2403   19.8409 H   0  0  0  0  0  0
  -25.1307  -36.1858   25.0805 H   0  0  0  0  0  0
  -20.9984  -28.3286   24.1354 H   0  0  0  0  0  0
  -20.5640  -26.2326   23.3630 H   0  0  0  0  0  0
  -21.6644  -26.7380   22.1219 H   0  0  0  0  0  0
  -19.6916  -25.6262   21.1243 H   0  0  0  0  0  0
  -19.6678  -27.3159   20.6728 H   0  0  0  0  0  0
  -17.4204  -26.6645   21.4007 H   0  0  0  0  0  0
  -18.0314  -26.0048   22.9002 H   0  0  0  0  0  0
  -19.7960  -30.7282   24.2171 H   0  0  0  0  0  0
  -17.5031  -31.6239   24.5166 H   0  0  0  0  0  0
  -15.5361  -30.2944   23.7686 H   0  0  0  0  0  0
  -15.8680  -28.0796   22.7064 H   0  0  0  0  0  0
  -24.5851  -30.7163   25.7747 H   0  0  0  0  0  0
  -24.8948  -32.3002   26.4753 H   0  0  0  0  0  0
  -25.7963  -30.8998   27.0233 H   0  0  0  0  0  0
  -26.3096  -29.6589   24.1328 H   0  0  0  0  0  0
  -27.4018  -29.7256   25.4948 H   0  0  0  0  0  0
  -27.9001  -30.4139   23.9704 H   0  0  0  0  0  0
  -27.2626  -33.3611   26.2047 H   0  0  0  0  0  0
  -28.3904  -32.6842   25.0377 H   0  0  0  0  0  0
  -28.0682  -31.8455   26.5472 H   0  0  0  0  0  0
  -28.2579  -38.0104   24.7511 H   0  0  0  0  0  0
  -28.1092  -36.2627   24.6269 H   0  0  0  0  0  0
  -27.2304  -37.1418   25.8866 H   0  0  0  0  0  0
  -20.9477  -29.8804   21.6836 H   0  0  0  0  0  0
  -26.0150  -38.2817   24.1379 H   0  0  0  0  0  0
  -32.8291  -21.0736   19.8277 H   0  0  0  0  0  0
  -31.4143  -20.8797   18.8035 H   0  0  0  0  0  0
  -32.1012  -19.4938   19.6562 H   0  0  0  0  0  0
  -32.5577  -20.7788   22.4235 H   0  0  0  0  0  0
  -31.6216  -19.2986   22.3374 H   0  0  0  0  0  0
  -30.9534  -20.7252   23.1200 H   0  0  0  0  0  0
  -29.9438  -23.6251   20.1838 H   0  0  0  0  0  0
  -28.9597  -23.3971   21.5920 H   0  0  0  0  0  0
  -30.0331  -17.7066   21.9671 H   0  0  0  0  0  0
  -31.1767  -17.7333   20.6830 H   0  0  0  0  0  0
  -28.9201  -21.6536   19.0205 H   0  0  0  0  0  0
  -27.6769  -21.4737   20.2027 H   0  0  0  0  0  0
  -28.2435  -18.8065   20.3693 H   0  0  0  0  0  0
  -29.4837  -18.9835   19.1808 H   0  0  0  0  0  0
  -26.9964  -24.4378   20.4088 H   0  0  0  0  0  0
  -27.8788  -24.5352   18.9273 H   0  0  0  0  0  0
  -31.0184  -21.9591   21.0438 H   0  0  0  0  0  0
  -28.7809  -15.9088   20.6324 H   0  0  0  0  0  0
  -29.1772  -20.4827   21.6796 H   0  0  0  0  0  0
  1 25  1  0  0  0
  1 30  2  0  0  0
  1 79  1  0  0  0
  2  3  1  0  0  0
  2 25  1  0  0  0
  2 81  1  0  0  0
  2 82  1  0  0  0
  3  4  1  0  0  0
  3 83  1  0  0  0
  3 84  1  0  0  0
  4  5  1  0  0  0
  4 85  1  0  0  0
  4 86  1  0  0  0
  5  6  1  0  0  0
  5 26  1  0  0  0
  5 87  1  0  0  0
  6 25  1  0  0  0
  6 88  1  0  0  0
  6 89  1  0  0  0
  7  8  2  0  0  0
  7 26  1  0  0  0
  7 29  1  0  0  0
  8  9  1  0  0  0
  8 22  1  0  0  0
  9 10  1  0  0  0
  9 27  2  0  0  0
 10 11  2  0  0  0
 10 15  1  0  0  0
 11 12  1  0  0  0
 11 90  1  0  0  0
 12 13  2  0  0  0
 12 91  1  0  0  0
 13 14  1  0  0  0
 13 31  1  0  0  0
 14 15  2  0  0  0
 14 92  1  0  0  0
 15 93  1  0  0  0
 16 17  2  0  0  0
 16 21  1  0  0  0
 16 31  1  0  0  0
 17 18  1  0  0  0
 17 94  1  0  0  0
 18 19  2  0  0  0
 18 95  1  0  0  0
 19 20  1  0  0  0
 19 24  1  0  0  0
 20 21  2  0  0  0
 20 96  1  0  0  0
 21 23  1  0  0  0
 22 28  1  0  0  0
 22 32  2  0  0  0
 26 27  1  0  0  0
 28 97  1  0  0  0
 28 98  1  0  0  0
 29 99  1  0  0  0
 29100  1  0  0  0
 33 34  1  0  0  0
 33 66  1  0  0  0
 33 70  2  0  0  0
 34 36  1  0  0  0
 34 59  1  0  0  0
 34101  1  0  0  0
 35 44  2  0  0  0
 35 45  1  0  0  0
 35 68  1  0  0  0
 36 56  1  0  0  0
 36102  1  0  0  0
 37 39  1  0  0  0
 37 47  1  0  0  0
 37 66  1  0  0  0
 37103  1  0  0  0
 38 43  2  0  0  0
 38 46  1  0  0  0
 38 47  1  0  0  0
 39 64  1  0  0  0
 39 67  2  0  0  0
 40 52  1  0  0  0
 40 53  2  0  0  0
 40 58  1  0  0  0
 41104  1  0  0  0
 41105  1  0  0  0
 41106  1  0  0  0
 41 48  1  0  0  0
 42 43  1  0  0  0
 42 66  1  0  0  0
 42107  1  0  0  0
 42108  1  0  0  0
 43 44  1  0  0  0
 44109  1  0  0  0
 45 46  2  0  0  0
 45110  1  0  0  0
 46111  1  0  0  0
 47112  1  0  0  0
 47113  1  0  0  0
 48 56  1  0  0  0
 48 65  1  0  0  0
 48114  1  0  0  0
 49 50  1  0  0  0
 49 53  1  0  0  0
 49 64  1  0  0  0
 49115  1  0  0  0
 50 51  1  0  0  0
 50116  1  0  0  0
 50117  1  0  0  0
 51 52  1  0  0  0
 51118  1  0  0  0
 51119  1  0  0  0
 52120  1  0  0  0
 52121  1  0  0  0
 53 54  1  0  0  0
 54 55  2  0  0  0
 54122  1  0  0  0
 55 57  1  0  0  0
 55123  1  0  0  0
 56 69  2  0  0  0
 57 58  2  0  0  0
 57124  1  0  0  0
 58125  1  0  0  0
 59 60  1  0  0  0
 59 61  1  0  0  0
 59 62  1  0  0  0
 60126  1  0  0  0
 60127  1  0  0  0
 60128  1  0  0  0
 61129  1  0  0  0
 61130  1  0  0  0
 61131  1  0  0  0
 62132  1  0  0  0
 62133  1  0  0  0
 62134  1  0  0  0
 63 65  1  0  0  0
 63135  1  0  0  0
 63136  1  0  0  0
 63137  1  0  0  0
 64138  1  0  0  0
 65139  1  0  0  0
 68 77  1  0  0  0
 71140  1  0  0  0
 71141  1  0  0  0
 71142  1  0  0  0
 71 78  1  0  0  0
 72 78  1  0  0  0
 72143  1  0  0  0
 72144  1  0  0  0
 72145  1  0  0  0
 73 75  1  0  0  0
 73 77  1  0  0  0
 73146  1  0  0  0
 73147  1  0  0  0
 74 76  1  0  0  0
 74 79  1  0  0  0
 74148  1  0  0  0
 74149  1  0  0  0
 75150  1  0  0  0
 75151  1  0  0  0
 75 80  1  0  0  0
 76 80  1  0  0  0
 76152  1  0  0  0
 76153  1  0  0  0
 77154  1  0  0  0
 77155  1  0  0  0
 78 80  1  0  0  0
 78156  1  0  0  0
 79157  1  0  0  0
 80158  1  0  0  0
M  CHG  1  80   1
M  ISO  4   1 100  68 101  77 101  79 100
M  END
> <chiral flag>
0

> <version>
0

> <s_m_source_file>
/data/baiqing/PycharmProjects/Reinvent-master-3.2/result/LINK_invent/BTK/process_docking_weight1_custom_sum_contain_oxygen_bond_distance_aromatic_linkinvent_7_9_3/rearranged_h_0099.sdf

> <i_m_source_file_index>
98

> <r_mmod_Potential_Energy-OPLS-2005>
356.601379394531

> <r_mmod_Stretch_Energy-OPLS-2005>
269.509796142578

> <r_mmod_Bend_Energy-OPLS-2005>
265.096466064453

> <r_mmod_Torsional_Energy-OPLS-2005>
224.639465332031

> <r_mmod_Improper_Torsional_Energy-OPLS-2005>
4.25384378433228

> <r_mmod_Van_der_Waal_Energy-OPLS-2005>
118.021118164062

> <r_mmod_Electrostatic_Energy-OPLS-2005>
-248.887619018555

> <r_mmod_Solvation_Energy-OPLS-2005>
-462.251068115234

> <b_mmod_Minimization_Converged-OPLS-2005>
0

> <r_mmod_RMS_Derivative-OPLS-2005>
3.21149849891663

$$$$
98
                    3D
 Structure written by MMmdl.
163171  0  0  1  0            999 V2000
  -30.5685  -14.8254   20.4421 C   0  0  0  0  0  0
  -30.4412  -12.5122   19.4722 C   0  0  0  0  0  0
  -29.5086  -12.5150   18.2385 C   0  0  0  0  0  0
  -28.0403  -12.3158   18.6608 C   0  0  0  0  0  0
  -27.6378  -13.2283   19.8484 C   0  0  2  0  0  0
  -28.6840  -13.1957   20.9837 C   0  0  0  0  0  0
  -25.2514  -13.8171   20.5702 C   0  0  0  0  0  0
  -24.1790  -13.0420   20.9202 C   0  0  0  0  0  0
  -24.6368  -11.6908   20.8725 C   0  0  0  0  0  0
  -23.9034  -10.4293   21.0378 C   0  0  0  0  0  0
  -24.3596   -9.4226   21.9166 C   0  0  0  0  0  0
  -23.6291   -8.2253   22.0756 C   0  0  0  0  0  0
  -22.4284   -8.0261   21.3535 C   0  0  0  0  0  0
  -21.9891   -9.0225   20.4641 C   0  0  0  0  0  0
  -22.7198  -10.2118   20.3043 C   0  0  0  0  0  0
  -21.6865   -6.0717   22.5266 C   0  0  0  0  0  0
  -21.4016   -6.5635   23.8187 C   0  0  0  0  0  0
  -21.3667   -5.6799   24.9158 C   0  0  0  0  0  0
  -21.6042   -4.3058   24.7222 C   0  0  0  0  0  0
  -21.8826   -3.8139   23.4347 C   0  0  0  0  0  0
  -21.9198   -4.6946   22.3394 C   0  0  0  0  0  0
  -22.7829  -13.5224   21.1860 C   0  0  0  0  0  0
  -22.1675   -4.2134   21.0972 F   0  0  0  0  0  0
  -21.5630   -3.4542   25.7733 F   0  0  0  0  0  0
  -29.9717  -13.5784   20.3912 N   0  0  0  0  0  0
  -26.2918  -12.9361   20.3282 N   0  0  0  0  0  0
  -25.9297  -11.6512   20.5751 N   0  0  0  0  0  0
  -22.0492  -12.8184   22.0410 N   0  0  0  0  0  0
  -25.4194  -15.1880   20.4124 N   0  0  0  0  0  0
  -31.7621  -14.9333   20.1477 O   0  0  0  0  0  0
  -21.6654   -6.8852   21.4230 O   0  0  0  0  0  0
  -22.3519  -14.5538   20.6727 O   0  0  0  0  0  0
  -24.6375  -31.8456   23.1873 C   0  0  0  0  0  0
  -25.9172  -32.4689   23.8237 C   0  0  1  0  0  0
  -27.2337  -27.1951   20.1680 C   0  0  0  0  0  0
  -25.5948  -33.8495   24.2172 N   0  0  0  0  0  0
  -23.4398  -30.4609   21.5319 C   0  0  2  0  0  0
  -24.8929  -28.8873   20.1192 C   0  0  0  0  0  0
  -22.7544  -29.4527   22.4864 C   0  0  0  0  0  0
  -18.0300  -28.1361   22.8435 C   0  0  0  0  0  0
  -24.1512  -36.7269   23.2641 C   0  0  0  0  0  0
  -25.9871  -30.7447   21.3694 C   0  0  0  0  0  0
  -26.0648  -29.3544   20.7271 C   0  0  0  0  0  0
  -27.2402  -28.5237   20.7325 C   0  0  0  0  0  0
  -26.0386  -26.8091   19.5244 C   0  0  0  0  0  0
  -24.8871  -27.6252   19.5010 C   0  0  0  0  0  0
  -23.6648  -29.7826   20.1533 C   0  0  0  0  0  0
  -25.4135  -36.3016   24.0306 C   0  0  1  0  0  0
  -20.5917  -28.3678   23.1215 C   0  0  2  0  0  0
  -20.6799  -26.9388   22.5383 C   0  0  0  0  0  0
  -19.5794  -26.6352   21.5165 C   0  0  0  0  0  0
  -18.1958  -26.7894   22.1568 C   0  0  0  0  0  0
  -19.1560  -28.8831   23.2812 C   0  0  0  0  0  0
  -18.9487  -30.1431   23.8829 C   0  0  0  0  0  0
  -17.6494  -30.6568   24.0527 C   0  0  0  0  0  0
  -25.9080  -34.9396   23.5047 C   0  0  0  0  0  0
  -16.5377  -29.9062   23.6320 C   0  0  0  0  0  0
  -16.7285  -28.6482   23.0324 C   0  0  0  0  0  0
  -26.4539  -31.6517   25.0639 C   0  0  0  0  0  0
  -25.3744  -31.3650   26.1342 C   0  0  0  0  0  0
  -27.0382  -30.2918   24.6106 C   0  0  0  0  0  0
  -27.6073  -32.4263   25.7440 C   0  0  0  0  0  0
  -27.5577  -37.1794   24.8471 C   0  0  0  0  0  0
  -21.4245  -29.3009   22.3611 N   0  0  0  0  0  0
  -26.4292  -37.3728   23.9416 N   0  0  0  0  0  0
  -24.7081  -31.0367   22.0866 N   0  0  0  0  0  0
  -23.4192  -28.8068   23.3000 O   0  0  0  0  0  0
  -28.3253  -26.2747   20.1707 O   0  0  0  0  0  0
  -26.5662  -34.8893   22.4613 O   0  0  0  0  0  0
  -23.5513  -32.1302   23.7125 O   0  0  0  0  0  0
  -29.7248  -18.3596   19.3749 C   0  0  0  0  0  0
  -29.9261  -19.9610   19.4757 C   0  0  0  0  0  0
  -29.2392  -18.2557   21.7741 C   0  0  0  0  0  0
  -30.0436  -17.4884   20.6616 C   0  0  1  0  0  0
  -29.1172  -20.7292   20.6049 C   0  0  1  0  0  0
  -29.4584  -19.8307   21.8659 C   0  0  1  0  0  0
  -28.5858  -24.9758   22.1932 C   0  0  0  0  0  0
  -30.7382  -22.5532   21.3216 C   0  0  0  0  0  0
  -28.7990  -23.4654   20.0157 C   0  0  0  0  0  0
  -28.1740  -24.8487   20.7172 C   0  0  2  0  0  0
  -29.7628  -15.9572   20.6260 N   0  0  0  0  0  0
  -29.3477  -22.2706   20.8787 N   0  3  1  0  0  0
  -28.7256  -20.3361   22.9680 O   0  0  0  0  0  0
  -31.4751  -12.6705   19.1589 H   0  0  0  0  0  0
  -30.4259  -11.5432   19.9736 H   0  0  0  0  0  0
  -29.8076  -11.7321   17.5394 H   0  0  0  0  0  0
  -29.6082  -13.4620   17.7028 H   0  0  0  0  0  0
  -27.9185  -11.2683   18.9407 H   0  0  0  0  0  0
  -27.3766  -12.4844   17.8121 H   0  0  0  0  0  0
  -27.6224  -14.2434   19.4497 H   0  0  0  0  0  0
  -28.7477  -12.2044   21.4374 H   0  0  0  0  0  0
  -28.4052  -13.8820   21.7858 H   0  0  0  0  0  0
  -25.2735   -9.5727   22.4748 H   0  0  0  0  0  0
  -24.0007   -7.4657   22.7484 H   0  0  0  0  0  0
  -21.0824   -8.8713   19.8948 H   0  0  0  0  0  0
  -22.3620  -10.9648   19.6162 H   0  0  0  0  0  0
  -21.2012   -7.6147   23.9682 H   0  0  0  0  0  0
  -21.1484   -6.0533   25.9055 H   0  0  0  0  0  0
  -22.0599   -2.7602   23.2843 H   0  0  0  0  0  0
  -22.4153  -11.9838   22.4752 H   0  0  0  0  0  0
  -21.1104  -13.1167   22.2645 H   0  0  0  0  0  0
  -24.6453  -15.8339   20.5200 H   0  0  0  0  0  0
  -26.2502  -15.6287   20.0413 H   0  0  0  0  0  0
  -26.7230  -32.5326   23.0967 H   0  0  0  0  0  0
  -25.0079  -33.9603   25.0309 H   0  0  0  0  0  0
  -22.7399  -31.2829   21.3728 H   0  0  0  0  0  0
  -23.3739  -35.9633   23.3295 H   0  0  0  0  0  0
  -24.3614  -36.8918   22.2056 H   0  0  0  0  0  0
  -23.7318  -37.6481   23.6687 H   0  0  0  0  0  0
  -26.1204  -31.4920   20.5863 H   0  0  0  0  0  0
  -26.8659  -30.8119   21.9963 H   0  0  0  0  0  0
  -28.1407  -28.8821   21.2115 H   0  0  0  0  0  0
  -25.9869  -25.8443   19.0378 H   0  0  0  0  0  0
  -23.9928  -27.2645   19.0123 H   0  0  0  0  0  0
  -23.7998  -30.5535   19.3943 H   0  0  0  0  0  0
  -22.7821  -29.2182   19.8452 H   0  0  0  0  0  0
  -25.1323  -36.1823   25.0789 H   0  0  0  0  0  0
  -20.9979  -28.3270   24.1342 H   0  0  0  0  0  0
  -20.5664  -26.2295   23.3603 H   0  0  0  0  0  0
  -21.6671  -26.7393   22.1193 H   0  0  0  0  0  0
  -19.6992  -25.6242   21.1227 H   0  0  0  0  0  0
  -19.6750  -27.3114   20.6658 H   0  0  0  0  0  0
  -17.4229  -26.6558   21.3978 H   0  0  0  0  0  0
  -18.0401  -26.0039   22.8978 H   0  0  0  0  0  0
  -19.7983  -30.7230   24.2165 H   0  0  0  0  0  0
  -17.5080  -31.6245   24.5128 H   0  0  0  0  0  0
  -15.5382  -30.2954   23.7712 H   0  0  0  0  0  0
  -15.8676  -28.0818   22.7048 H   0  0  0  0  0  0
  -24.5976  -30.6928   25.7687 H   0  0  0  0  0  0
  -24.8860  -32.2796   26.4680 H   0  0  0  0  0  0
  -25.8062  -30.8909   27.0158 H   0  0  0  0  0  0
  -26.2942  -29.6651   24.1152 H   0  0  0  0  0  0
  -27.4118  -29.7182   25.4601 H   0  0  0  0  0  0
  -27.8814  -30.4198   23.9306 H   0  0  0  0  0  0
  -27.2673  -33.3613   26.1889 H   0  0  0  0  0  0
  -28.3953  -32.6715   25.0314 H   0  0  0  0  0  0
  -28.0632  -31.8432   26.5448 H   0  0  0  0  0  0
  -28.2552  -38.0124   24.7483 H   0  0  0  0  0  0
  -28.1094  -36.2630   24.6312 H   0  0  0  0  0  0
  -27.2285  -37.1471   25.8873 H   0  0  0  0  0  0
  -20.9457  -29.8735   21.6809 H   0  0  0  0  0  0
  -26.0131  -38.2786   24.1400 H   0  0  0  0  0  0
  -30.3344  -17.9879   18.5494 H   0  0  0  0  0  0
  -28.6947  -18.1659   19.0720 H   0  0  0  0  0  0
  -29.6799  -20.4037   18.5102 H   0  0  0  0  0  0
  -30.9920  -20.1463   19.6113 H   0  0  0  0  0  0
  -29.5096  -17.8166   22.7363 H   0  0  0  0  0  0
  -28.1737  -18.0500   21.6504 H   0  0  0  0  0  0
  -31.1077  -17.5978   20.8758 H   0  0  0  0  0  0
  -28.0540  -20.6143   20.3878 H   0  0  0  0  0  0
  -30.5182  -19.9487   22.0960 H   0  0  0  0  0  0
  -28.4225  -24.0466   22.7389 H   0  0  0  0  0  0
  -28.0022  -25.7453   22.6991 H   0  0  0  0  0  0
  -29.6334  -25.2550   22.2931 H   0  0  0  0  0  0
  -31.4682  -22.1494   20.6221 H   0  0  0  0  0  0
  -30.9281  -22.1321   22.3098 H   0  0  0  0  0  0
  -30.9378  -23.6213   21.4022 H   0  0  0  0  0  0
  -29.6086  -23.7706   19.3515 H   0  0  0  0  0  0
  -28.0429  -23.0664   19.3382 H   0  0  0  0  0  0
  -27.1026  -24.6554   20.7587 H   0  0  0  0  0  0
  -28.8017  -15.7135   20.8170 H   0  0  0  0  0  0
  -28.8068  -22.3492   21.7303 H   0  0  0  0  0  0
  -28.9973  -19.8499   23.7425 H   0  0  0  0  0  0
  1 25  1  0  0  0
  1 30  2  0  0  0
  1 81  1  0  0  0
  2  3  1  0  0  0
  2 25  1  0  0  0
  2 84  1  0  0  0
  2 85  1  0  0  0
  3  4  1  0  0  0
  3 86  1  0  0  0
  3 87  1  0  0  0
  4  5  1  0  0  0
  4 88  1  0  0  0
  4 89  1  0  0  0
  5  6  1  0  0  0
  5 26  1  0  0  0
  5 90  1  0  0  0
  6 25  1  0  0  0
  6 91  1  0  0  0
  6 92  1  0  0  0
  7  8  2  0  0  0
  7 26  1  0  0  0
  7 29  1  0  0  0
  8  9  1  0  0  0
  8 22  1  0  0  0
  9 10  1  0  0  0
  9 27  2  0  0  0
 10 11  2  0  0  0
 10 15  1  0  0  0
 11 12  1  0  0  0
 11 93  1  0  0  0
 12 13  2  0  0  0
 12 94  1  0  0  0
 13 14  1  0  0  0
 13 31  1  0  0  0
 14 15  2  0  0  0
 14 95  1  0  0  0
 15 96  1  0  0  0
 16 17  2  0  0  0
 16 21  1  0  0  0
 16 31  1  0  0  0
 17 18  1  0  0  0
 17 97  1  0  0  0
 18 19  2  0  0  0
 18 98  1  0  0  0
 19 20  1  0  0  0
 19 24  1  0  0  0
 20 21  2  0  0  0
 20 99  1  0  0  0
 21 23  1  0  0  0
 22 28  1  0  0  0
 22 32  2  0  0  0
 26 27  1  0  0  0
 28100  1  0  0  0
 28101  1  0  0  0
 29102  1  0  0  0
 29103  1  0  0  0
 33 34  1  0  0  0
 33 66  1  0  0  0
 33 70  2  0  0  0
 34 36  1  0  0  0
 34 59  1  0  0  0
 34104  1  0  0  0
 35 44  2  0  0  0
 35 45  1  0  0  0
 35 68  1  0  0  0
 36 56  1  0  0  0
 36105  1  0  0  0
 37 39  1  0  0  0
 37 47  1  0  0  0
 37 66  1  0  0  0
 37106  1  0  0  0
 38 43  2  0  0  0
 38 46  1  0  0  0
 38 47  1  0  0  0
 39 64  1  0  0  0
 39 67  2  0  0  0
 40 52  1  0  0  0
 40 53  2  0  0  0
 40 58  1  0  0  0
 41107  1  0  0  0
 41108  1  0  0  0
 41109  1  0  0  0
 41 48  1  0  0  0
 42 43  1  0  0  0
 42 66  1  0  0  0
 42110  1  0  0  0
 42111  1  0  0  0
 43 44  1  0  0  0
 44112  1  0  0  0
 45 46  2  0  0  0
 45113  1  0  0  0
 46114  1  0  0  0
 47115  1  0  0  0
 47116  1  0  0  0
 48 56  1  0  0  0
 48 65  1  0  0  0
 48117  1  0  0  0
 49 50  1  0  0  0
 49 53  1  0  0  0
 49 64  1  0  0  0
 49118  1  0  0  0
 50 51  1  0  0  0
 50119  1  0  0  0
 50120  1  0  0  0
 51 52  1  0  0  0
 51121  1  0  0  0
 51122  1  0  0  0
 52123  1  0  0  0
 52124  1  0  0  0
 53 54  1  0  0  0
 54 55  2  0  0  0
 54125  1  0  0  0
 55 57  1  0  0  0
 55126  1  0  0  0
 56 69  2  0  0  0
 57 58  2  0  0  0
 57127  1  0  0  0
 58128  1  0  0  0
 59 60  1  0  0  0
 59 61  1  0  0  0
 59 62  1  0  0  0
 60129  1  0  0  0
 60130  1  0  0  0
 60131  1  0  0  0
 61132  1  0  0  0
 61133  1  0  0  0
 61134  1  0  0  0
 62135  1  0  0  0
 62136  1  0  0  0
 62137  1  0  0  0
 63 65  1  0  0  0
 63138  1  0  0  0
 63139  1  0  0  0
 63140  1  0  0  0
 64141  1  0  0  0
 65142  1  0  0  0
 68 80  1  0  0  0
 71 72  1  0  0  0
 71 74  1  0  0  0
 71143  1  0  0  0
 71144  1  0  0  0
 72145  1  0  0  0
 72146  1  0  0  0
 72 75  1  0  0  0
 73 74  1  0  0  0
 73 76  1  0  0  0
 73147  1  0  0  0
 73148  1  0  0  0
 74 81  1  0  0  0
 74149  1  0  0  0
 75 76  1  0  0  0
 75 82  1  0  0  0
 75150  1  0  0  0
 76 83  1  0  0  0
 76151  1  0  0  0
 77152  1  0  0  0
 77153  1  0  0  0
 77154  1  0  0  0
 77 80  1  0  0  0
 78155  1  0  0  0
 78156  1  0  0  0
 78157  1  0  0  0
 78 82  1  0  0  0
 79 80  1  0  0  0
 79 82  1  0  0  0
 79158  1  0  0  0
 79159  1  0  0  0
 80160  1  0  0  0
 81161  1  0  0  0
 82162  1  0  0  0
 83163  1  0  0  0
M  CHG  1  82   1
M  ISO  4   1 100  68 101  80 101  81 100
M  END
> <chiral flag>
0

> <version>
0

> <s_m_source_file>
/data/baiqing/PycharmProjects/Reinvent-master-3.2/result/LINK_invent/BTK/process_docking_weight1_custom_sum_contain_oxygen_bond_distance_aromatic_linkinvent_7_9_3/rearranged_h_0099.sdf

> <i_m_source_file_index>
99

> <r_mmod_Potential_Energy-OPLS-2005>
254.055908203125

> <r_mmod_Stretch_Energy-OPLS-2005>
181.719772338867

> <r_mmod_Bend_Energy-OPLS-2005>
235.588394165039

> <r_mmod_Torsional_Energy-OPLS-2005>
279.471374511719

> <r_mmod_Improper_Torsional_Energy-OPLS-2005>
4.44443416595459

> <r_mmod_Van_der_Waal_Energy-OPLS-2005>
115.947227478027

> <r_mmod_Electrostatic_Energy-OPLS-2005>
-267.777587890625

> <r_mmod_Solvation_Energy-OPLS-2005>
-420.902954101562

> <b_mmod_Minimization_Converged-OPLS-2005>
0

> <r_mmod_RMS_Derivative-OPLS-2005>
3.24664711952209

$$$$
