0
                    3D
 Structure written by MMmdl.
163171  0  0  1  0            999 V2000
  -30.6810  -14.6102   20.4494 C   0  0  0  0  0  0
  -30.4160  -12.3672   19.4578 C   0  0  0  0  0  0
  -29.5000  -12.4840   18.2225 C   0  0  0  0  0  0
  -28.0227  -12.3388   18.6357 C   0  0  0  0  0  0
  -27.6444  -13.2280   19.8519 C   0  0  2  0  0  0
  -28.6910  -13.1312   20.9841 C   0  0  0  0  0  0
  -25.2523  -13.8196   20.5697 C   0  0  0  0  0  0
  -24.1811  -13.0443   20.9211 C   0  0  0  0  0  0
  -24.6396  -11.6920   20.8747 C   0  0  0  0  0  0
  -23.9073  -10.4292   21.0403 C   0  0  0  0  0  0
  -24.3615   -9.4206   21.9181 C   0  0  0  0  0  0
  -23.6289   -8.2241   22.0751 C   0  0  0  0  0  0
  -22.4271   -8.0281   21.3545 C   0  0  0  0  0  0
  -21.9910   -9.0254   20.4646 C   0  0  0  0  0  0
  -22.7242  -10.2133   20.3057 C   0  0  0  0  0  0
  -21.6854   -6.0735   22.5279 C   0  0  0  0  0  0
  -21.4016   -6.5637   23.8213 C   0  0  0  0  0  0
  -21.3658   -5.6790   24.9175 C   0  0  0  0  0  0
  -21.6047   -4.3053   24.7226 C   0  0  0  0  0  0
  -21.8820   -3.8147   23.4345 C   0  0  0  0  0  0
  -21.9191   -4.6964   22.3401 C   0  0  0  0  0  0
  -22.7833  -13.5223   21.1865 C   0  0  0  0  0  0
  -22.1662   -4.2150   21.0977 F   0  0  0  0  0  0
  -21.5628   -3.4534   25.7737 F   0  0  0  0  0  0
  -30.0044  -13.4241   20.4006 N   0  0  0  0  0  0
  -26.2954  -12.9401   20.3297 N   0  0  0  0  0  0
  -25.9327  -11.6546   20.5762 N   0  0  0  0  0  0
  -22.0478  -12.8215   22.0422 N   0  0  0  0  0  0
  -25.4197  -15.1919   20.4098 N   0  0  0  0  0  0
  -31.8843  -14.6584   20.1894 O   0  0  0  0  0  0
  -21.6640   -6.8875   21.4240 O   0  0  0  0  0  0
  -22.3512  -14.5520   20.6703 O   0  0  0  0  0  0
  -24.6223  -31.8628   23.2049 C   0  0  0  0  0  0
  -25.9083  -32.4797   23.8372 C   0  0  1  0  0  0
  -27.2201  -27.3572   20.1155 C   0  0  0  0  0  0
  -25.5913  -33.8601   24.2299 N   0  0  0  0  0  0
  -23.4148  -30.4861   21.5468 C   0  0  2  0  0  0
  -24.8611  -28.9446   20.1110 C   0  0  0  0  0  0
  -22.7452  -29.4635   22.4951 C   0  0  0  0  0  0
  -18.0287  -28.1387   22.8486 C   0  0  0  0  0  0
  -24.1489  -36.7304   23.2640 C   0  0  0  0  0  0
  -25.9515  -30.8058   21.3694 C   0  0  0  0  0  0
  -26.0282  -29.4361   20.7121 C   0  0  0  0  0  0
  -27.2157  -28.6528   20.7044 C   0  0  0  0  0  0
  -26.0391  -26.9055   19.4927 C   0  0  0  0  0  0
  -24.8658  -27.6831   19.4935 C   0  0  0  0  0  0
  -23.6269  -29.8202   20.1620 C   0  0  0  0  0  0
  -25.4114  -36.3101   24.0332 C   0  0  1  0  0  0
  -20.5884  -28.3676   23.1291 C   0  0  2  0  0  0
  -20.6784  -26.9403   22.5401 C   0  0  0  0  0  0
  -19.5753  -26.6372   21.5214 C   0  0  0  0  0  0
  -18.1930  -26.7930   22.1618 C   0  0  0  0  0  0
  -19.1541  -28.8844   23.2890 C   0  0  0  0  0  0
  -18.9470  -30.1441   23.8922 C   0  0  0  0  0  0
  -17.6473  -30.6581   24.0587 C   0  0  0  0  0  0
  -25.9044  -34.9465   23.5117 C   0  0  0  0  0  0
  -16.5361  -29.9094   23.6339 C   0  0  0  0  0  0
  -16.7277  -28.6515   23.0348 C   0  0  0  0  0  0
  -26.4480  -31.6589   25.0723 C   0  0  0  0  0  0
  -25.3726  -31.3704   26.1458 C   0  0  0  0  0  0
  -27.0317  -30.3024   24.6134 C   0  0  0  0  0  0
  -27.6054  -32.4316   25.7482 C   0  0  0  0  0  0
  -27.5582  -37.1805   24.8466 C   0  0  0  0  0  0
  -21.4169  -29.3041   22.3687 N   0  0  0  0  0  0
  -26.4299  -37.3788   23.9407 N   0  0  0  0  0  0
  -24.6817  -31.0672   22.0980 N   0  0  0  0  0  0
  -23.4189  -28.8170   23.3018 O   0  0  0  0  0  0
  -28.3218  -26.5065   20.1478 O   0  0  0  0  0  0
  -26.5615  -34.8925   22.4681 O   0  0  0  0  0  0
  -23.5393  -32.1409   23.7395 O   0  0  0  0  0  0
  -28.2232  -20.3001   19.6882 C   0  0  0  0  0  0
  -28.7175  -18.9754   19.5319 C   0  0  0  0  0  0
  -29.7405  -20.6375   21.5211 C   0  0  0  0  0  0
  -28.7235  -21.1696   20.6893 C   0  0  0  0  0  0
  -29.7584  -18.4497   20.3450 C   0  0  0  0  0  0
  -30.2619  -19.3104   21.3647 C   0  0  0  0  0  0
  -26.5365  -22.4090   21.0359 C   0  0  0  0  0  0
  -30.6866  -17.0222   18.4494 C   0  0  0  0  0  0
  -31.8444  -19.6610   23.1511 C   0  0  0  0  0  0
  -28.4979  -23.8509   20.1809 C   0  0  0  0  0  0
  -28.1094  -25.2357   20.8547 C   0  0  0  0  0  0
  -28.0712  -22.5617   21.0086 C   0  0  2  0  0  0
  -30.4723  -17.0926   19.9812 C   0  0  2  0  0  0
  -29.9502  -15.7695   20.4776 N   0  0  0  0  0  0
  -31.2707  -18.8117   22.1640 O   0  0  0  0  0  0
  -31.4623  -12.4527   19.1595 H   0  0  0  0  0  0
  -30.3169  -11.3853   19.9228 H   0  0  0  0  0  0
  -29.7582  -11.7199   17.4883 H   0  0  0  0  0  0
  -29.6561  -13.4462   17.7322 H   0  0  0  0  0  0
  -27.8539  -11.2890   18.8794 H   0  0  0  0  0  0
  -27.3715  -12.5618   17.7896 H   0  0  0  0  0  0
  -27.6486  -14.2550   19.4867 H   0  0  0  0  0  0
  -28.6917  -12.1352   21.4290 H   0  0  0  0  0  0
  -28.4576  -13.8296   21.7898 H   0  0  0  0  0  0
  -25.2756   -9.5690   22.4760 H   0  0  0  0  0  0
  -24.0005   -7.4634   22.7468 H   0  0  0  0  0  0
  -21.0842   -8.8767   19.8947 H   0  0  0  0  0  0
  -22.3691  -10.9670   19.6168 H   0  0  0  0  0  0
  -21.2008   -7.6146   23.9717 H   0  0  0  0  0  0
  -21.1484   -6.0521   25.9077 H   0  0  0  0  0  0
  -22.0600   -2.7610   23.2847 H   0  0  0  0  0  0
  -22.4097  -11.9882   22.4818 H   0  0  0  0  0  0
  -21.1092  -13.1241   22.2609 H   0  0  0  0  0  0
  -24.6498  -15.8429   20.5227 H   0  0  0  0  0  0
  -26.2618  -15.6342   20.0649 H   0  0  0  0  0  0
  -26.7149  -32.5479   23.1123 H   0  0  0  0  0  0
  -25.0058  -33.9755   25.0442 H   0  0  0  0  0  0
  -22.7074  -31.3057   21.4049 H   0  0  0  0  0  0
  -23.3756  -35.9632   23.3310 H   0  0  0  0  0  0
  -24.3580  -36.8918   22.2054 H   0  0  0  0  0  0
  -23.7236  -37.6505   23.6655 H   0  0  0  0  0  0
  -26.0756  -31.5694   20.6004 H   0  0  0  0  0  0
  -26.8354  -30.8571   21.9934 H   0  0  0  0  0  0
  -28.1130  -29.0217   21.1815 H   0  0  0  0  0  0
  -26.0205  -25.9317   19.0239 H   0  0  0  0  0  0
  -23.9700  -27.3001   19.0239 H   0  0  0  0  0  0
  -23.7423  -30.5972   19.4050 H   0  0  0  0  0  0
  -22.7473  -29.2476   19.8624 H   0  0  0  0  0  0
  -25.1290  -36.1962   25.0826 H   0  0  0  0  0  0
  -20.9976  -28.3245   24.1409 H   0  0  0  0  0  0
  -20.5707  -26.2279   23.3594 H   0  0  0  0  0  0
  -21.6641  -26.7441   22.1167 H   0  0  0  0  0  0
  -19.6904  -25.6276   21.1252 H   0  0  0  0  0  0
  -19.6697  -27.3175   20.6740 H   0  0  0  0  0  0
  -17.4194  -26.6681   21.4020 H   0  0  0  0  0  0
  -18.0320  -26.0077   22.9020 H   0  0  0  0  0  0
  -19.7948  -30.7242   24.2307 H   0  0  0  0  0  0
  -17.5034  -31.6250   24.5213 H   0  0  0  0  0  0
  -15.5368  -30.3003   23.7662 H   0  0  0  0  0  0
  -15.8674  -28.0845   22.7056 H   0  0  0  0  0  0
  -24.5910  -30.7042   25.7785 H   0  0  0  0  0  0
  -24.8899  -32.2858   26.4893 H   0  0  0  0  0  0
  -25.8065  -30.8878   27.0225 H   0  0  0  0  0  0
  -26.2876  -29.6779   24.1176 H   0  0  0  0  0  0
  -27.4061  -29.7267   25.4607 H   0  0  0  0  0  0
  -27.8723  -30.4333   23.9317 H   0  0  0  0  0  0
  -27.2682  -33.3618   26.2065 H   0  0  0  0  0  0
  -28.3855  -32.6872   25.0300 H   0  0  0  0  0  0
  -28.0731  -31.8437   26.5388 H   0  0  0  0  0  0
  -28.2601  -38.0098   24.7518 H   0  0  0  0  0  0
  -28.1073  -36.2633   24.6289 H   0  0  0  0  0  0
  -27.2298  -37.1456   25.8867 H   0  0  0  0  0  0
  -20.9336  -29.8768   21.6910 H   0  0  0  0  0  0
  -26.0187  -38.2864   24.1408 H   0  0  0  0  0  0
  -27.4289  -20.6342   19.0352 H   0  0  0  0  0  0
  -28.3065  -18.3736   18.7350 H   0  0  0  0  0  0
  -30.1062  -21.2795   22.3079 H   0  0  0  0  0  0
  -26.2403  -21.5543   21.6452 H   0  0  0  0  0  0
  -26.1295  -22.2582   20.0357 H   0  0  0  0  0  0
  -26.0377  -23.2791   21.4596 H   0  0  0  0  0  0
  -31.1363  -17.9446   18.0799 H   0  0  0  0  0  0
  -29.7530  -16.8690   17.9090 H   0  0  0  0  0  0
  -31.3580  -16.2139   18.1606 H   0  0  0  0  0  0
  -32.6401  -19.1241   23.6681 H   0  0  0  0  0  0
  -31.1109  -19.9581   23.9021 H   0  0  0  0  0  0
  -32.2882  -20.5526   22.7056 H   0  0  0  0  0  0
  -29.5792  -23.8376   20.0427 H   0  0  0  0  0  0
  -28.0681  -23.7960   19.1806 H   0  0  0  0  0  0
  -28.6775  -25.3175   21.7814 H   0  0  0  0  0  0
  -27.0742  -25.1775   21.1897 H   0  0  0  0  0  0
  -28.3641  -22.7730   22.0383 H   0  0  0  0  0  0
  -31.4757  -17.1813   20.3996 H   0  0  0  0  0  0
  -28.9626  -15.6979   20.6641 H   0  0  0  0  0  0
  1 25  1  0  0  0
  1 30  2  0  0  0
  1 84  1  0  0  0
  2  3  1  0  0  0
  2 25  1  0  0  0
  2 86  1  0  0  0
  2 87  1  0  0  0
  3  4  1  0  0  0
  3 88  1  0  0  0
  3 89  1  0  0  0
  4  5  1  0  0  0
  4 90  1  0  0  0
  4 91  1  0  0  0
  5  6  1  0  0  0
  5 26  1  0  0  0
  5 92  1  0  0  0
  6 25  1  0  0  0
  6 93  1  0  0  0
  6 94  1  0  0  0
  7  8  2  0  0  0
  7 26  1  0  0  0
  7 29  1  0  0  0
  8  9  1  0  0  0
  8 22  1  0  0  0
  9 10  1  0  0  0
  9 27  2  0  0  0
 10 11  2  0  0  0
 10 15  1  0  0  0
 11 12  1  0  0  0
 11 95  1  0  0  0
 12 13  2  0  0  0
 12 96  1  0  0  0
 13 14  1  0  0  0
 13 31  1  0  0  0
 14 15  2  0  0  0
 14 97  1  0  0  0
 15 98  1  0  0  0
 16 17  2  0  0  0
 16 21  1  0  0  0
 16 31  1  0  0  0
 17 18  1  0  0  0
 17 99  1  0  0  0
 18 19  2  0  0  0
 18100  1  0  0  0
 19 20  1  0  0  0
 19 24  1  0  0  0
 20 21  2  0  0  0
 20101  1  0  0  0
 21 23  1  0  0  0
 22 28  1  0  0  0
 22 32  2  0  0  0
 26 27  1  0  0  0
 28102  1  0  0  0
 28103  1  0  0  0
 29104  1  0  0  0
 29105  1  0  0  0
 33 34  1  0  0  0
 33 66  1  0  0  0
 33 70  2  0  0  0
 34 36  1  0  0  0
 34 59  1  0  0  0
 34106  1  0  0  0
 35 44  2  0  0  0
 35 45  1  0  0  0
 35 68  1  0  0  0
 36 56  1  0  0  0
 36107  1  0  0  0
 37 39  1  0  0  0
 37 47  1  0  0  0
 37 66  1  0  0  0
 37108  1  0  0  0
 38 43  2  0  0  0
 38 46  1  0  0  0
 38 47  1  0  0  0
 39 64  1  0  0  0
 39 67  2  0  0  0
 40 52  1  0  0  0
 40 53  2  0  0  0
 40 58  1  0  0  0
 41109  1  0  0  0
 41110  1  0  0  0
 41111  1  0  0  0
 41 48  1  0  0  0
 42 43  1  0  0  0
 42 66  1  0  0  0
 42112  1  0  0  0
 42113  1  0  0  0
 43 44  1  0  0  0
 44114  1  0  0  0
 45 46  2  0  0  0
 45115  1  0  0  0
 46116  1  0  0  0
 47117  1  0  0  0
 47118  1  0  0  0
 48 56  1  0  0  0
 48 65  1  0  0  0
 48119  1  0  0  0
 49 50  1  0  0  0
 49 53  1  0  0  0
 49 64  1  0  0  0
 49120  1  0  0  0
 50 51  1  0  0  0
 50121  1  0  0  0
 50122  1  0  0  0
 51 52  1  0  0  0
 51123  1  0  0  0
 51124  1  0  0  0
 52125  1  0  0  0
 52126  1  0  0  0
 53 54  1  0  0  0
 54 55  2  0  0  0
 54127  1  0  0  0
 55 57  1  0  0  0
 55128  1  0  0  0
 56 69  2  0  0  0
 57 58  2  0  0  0
 57129  1  0  0  0
 58130  1  0  0  0
 59 60  1  0  0  0
 59 61  1  0  0  0
 59 62  1  0  0  0
 60131  1  0  0  0
 60132  1  0  0  0
 60133  1  0  0  0
 61134  1  0  0  0
 61135  1  0  0  0
 61136  1  0  0  0
 62137  1  0  0  0
 62138  1  0  0  0
 62139  1  0  0  0
 63 65  1  0  0  0
 63140  1  0  0  0
 63141  1  0  0  0
 63142  1  0  0  0
 64143  1  0  0  0
 65144  1  0  0  0
 68 81  1  0  0  0
 71 72  2  0  0  0
 71 74  1  0  0  0
 71145  1  0  0  0
 72 75  1  0  0  0
 72146  1  0  0  0
 73 74  2  0  0  0
 73 76  1  0  0  0
 73147  1  0  0  0
 74 82  1  0  0  0
 75 76  2  0  0  0
 75 83  1  0  0  0
 76 85  1  0  0  0
 77148  1  0  0  0
 77149  1  0  0  0
 77150  1  0  0  0
 77 82  1  0  0  0
 78151  1  0  0  0
 78152  1  0  0  0
 78153  1  0  0  0
 78 83  1  0  0  0
 79 85  1  0  0  0
 79154  1  0  0  0
 79155  1  0  0  0
 79156  1  0  0  0
 80 81  1  0  0  0
 80 82  1  0  0  0
 80157  1  0  0  0
 80158  1  0  0  0
 81159  1  0  0  0
 81160  1  0  0  0
 82161  1  0  0  0
 83 84  1  0  0  0
 83162  1  0  0  0
 84163  1  0  0  0
M  ISO  4   1 100  68 101  81 101  84 100
M  END
> <chiral flag>
0

> <version>
0

> <s_m_source_file>
/data/baiqing/PycharmProjects/Reinvent-master-3.2/result/LINK_invent/BTK/process_docking_weight1_custom_sum_contain_oxygen_bond_distance_aromatic_linkinvent_7_9_3/rearranged_h_0158.sdf

> <i_m_source_file_index>
1

> <r_mmod_Potential_Energy-OPLS-2005>
55.645751953125

> <r_mmod_Stretch_Energy-OPLS-2005>
72.0072555541992

> <r_mmod_Bend_Energy-OPLS-2005>
134.008880615234

> <r_mmod_Torsional_Energy-OPLS-2005>
243.912841796875

> <r_mmod_Improper_Torsional_Energy-OPLS-2005>
10.0508651733398

> <r_mmod_Van_der_Waal_Energy-OPLS-2005>
155.219146728516

> <r_mmod_Electrostatic_Energy-OPLS-2005>
-400.953186035156

> <r_mmod_Solvation_Energy-OPLS-2005>
-203.691818237305

> <b_mmod_Minimization_Converged-OPLS-2005>
0

> <r_mmod_RMS_Derivative-OPLS-2005>
1.01153349876404

$$$$
1
                    3D
 Structure written by MMmdl.
161170  0  0  1  0            999 V2000
  -30.6533  -14.6538   20.4777 C   0  0  0  0  0  0
  -30.4199  -12.4015   19.4570 C   0  0  0  0  0  0
  -29.4991  -12.4947   18.2227 C   0  0  0  0  0  0
  -28.0239  -12.3359   18.6382 C   0  0  0  0  0  0
  -27.6422  -13.2270   19.8511 C   0  0  2  0  0  0
  -28.6869  -13.1330   20.9837 C   0  0  0  0  0  0
  -25.2513  -13.8198   20.5691 C   0  0  0  0  0  0
  -24.1801  -13.0446   20.9208 C   0  0  0  0  0  0
  -24.6385  -11.6921   20.8751 C   0  0  0  0  0  0
  -23.9064  -10.4297   21.0410 C   0  0  0  0  0  0
  -24.3617   -9.4210   21.9185 C   0  0  0  0  0  0
  -23.6293   -8.2244   22.0754 C   0  0  0  0  0  0
  -22.4275   -8.0281   21.3544 C   0  0  0  0  0  0
  -21.9910   -9.0255   20.4646 C   0  0  0  0  0  0
  -22.7238  -10.2136   20.3057 C   0  0  0  0  0  0
  -21.6854   -6.0734   22.5278 C   0  0  0  0  0  0
  -21.4016   -6.5639   23.8212 C   0  0  0  0  0  0
  -21.3659   -5.6791   24.9174 C   0  0  0  0  0  0
  -21.6044   -4.3054   24.7224 C   0  0  0  0  0  0
  -21.8820   -3.8146   23.4347 C   0  0  0  0  0  0
  -21.9194   -4.6962   22.3402 C   0  0  0  0  0  0
  -22.7823  -13.5229   21.1867 C   0  0  0  0  0  0
  -22.1662   -4.2147   21.0980 F   0  0  0  0  0  0
  -21.5628   -3.4538   25.7738 F   0  0  0  0  0  0
  -29.9930  -13.4560   20.4000 N   0  0  0  0  0  0
  -26.2934  -12.9397   20.3286 N   0  0  0  0  0  0
  -25.9312  -11.6543   20.5756 N   0  0  0  0  0  0
  -22.0470  -12.8216   22.0422 N   0  0  0  0  0  0
  -25.4208  -15.1920   20.4094 N   0  0  0  0  0  0
  -31.8431  -14.7278   20.1612 O   0  0  0  0  0  0
  -21.6642   -6.8877   21.4240 O   0  0  0  0  0  0
  -22.3508  -14.5532   20.6711 O   0  0  0  0  0  0
  -24.6251  -31.8576   23.1987 C   0  0  0  0  0  0
  -25.9098  -32.4764   23.8321 C   0  0  1  0  0  0
  -27.2283  -27.3167   20.1161 C   0  0  0  0  0  0
  -25.5915  -33.8565   24.2259 N   0  0  0  0  0  0
  -23.4176  -30.4781   21.5417 C   0  0  2  0  0  0
  -24.8612  -28.9224   20.1125 C   0  0  0  0  0  0
  -22.7460  -29.4611   22.4941 C   0  0  0  0  0  0
  -18.0282  -28.1384   22.8488 C   0  0  0  0  0  0
  -24.1488  -36.7285   23.2641 C   0  0  0  0  0  0
  -25.9552  -30.7895   21.3640 C   0  0  0  0  0  0
  -26.0275  -29.4145   20.7085 C   0  0  0  0  0  0
  -27.2102  -28.6234   20.6944 C   0  0  0  0  0  0
  -26.0324  -26.8562   19.5271 C   0  0  0  0  0  0
  -24.8650  -27.6492   19.5153 C   0  0  0  0  0  0
  -23.6298  -29.8043   20.1588 C   0  0  0  0  0  0
  -25.4114  -36.3076   24.0330 C   0  0  1  0  0  0
  -20.5879  -28.3679   23.1295 C   0  0  2  0  0  0
  -20.6770  -26.9404   22.5416 C   0  0  0  0  0  0
  -19.5749  -26.6385   21.5212 C   0  0  0  0  0  0
  -18.1928  -26.7928   22.1623 C   0  0  0  0  0  0
  -19.1534  -28.8848   23.2887 C   0  0  0  0  0  0
  -18.9459  -30.1452   23.8900 C   0  0  0  0  0  0
  -17.6460  -30.6587   24.0563 C   0  0  0  0  0  0
  -25.9049  -34.9447   23.5097 C   0  0  0  0  0  0
  -16.5350  -29.9088   23.6330 C   0  0  0  0  0  0
  -16.7271  -28.6504   23.0351 C   0  0  0  0  0  0
  -26.4488  -31.6581   25.0695 C   0  0  0  0  0  0
  -25.3730  -31.3715   26.1431 C   0  0  0  0  0  0
  -27.0328  -30.3011   24.6134 C   0  0  0  0  0  0
  -27.6047  -32.4315   25.7470 C   0  0  0  0  0  0
  -27.5577  -37.1799   24.8467 C   0  0  0  0  0  0
  -21.4174  -29.3031   22.3688 N   0  0  0  0  0  0
  -26.4289  -37.3774   23.9409 N   0  0  0  0  0  0
  -24.6851  -31.0590   22.0924 N   0  0  0  0  0  0
  -23.4189  -28.8164   23.3028 O   0  0  0  0  0  0
  -28.4032  -26.5584   20.1613 O   0  0  0  0  0  0
  -26.5625  -34.8920   22.4668 O   0  0  0  0  0  0
  -23.5420  -32.1369   23.7330 O   0  0  0  0  0  0
  -30.0575  -20.9238   19.8035 C   0  0  0  0  0  0
  -30.5924  -19.6224   20.0207 C   0  0  0  0  0  0
  -28.4627  -18.8489   20.8028 C   0  0  0  0  0  0
  -28.7038  -21.2418   20.0713 C   0  0  0  0  0  0
  -29.8178  -18.5393   20.5170 C   0  0  0  0  0  0
  -27.9151  -20.1620   20.5929 C   0  0  0  0  0  0
  -28.1878  -23.8938   20.6780 C   0  0  0  0  0  0
  -28.3702  -24.6058   18.3847 C   0  0  0  0  0  0
  -28.1282  -22.6679   19.6851 C   0  0  1  0  0  0
  -28.5886  -25.1281   19.8067 C   0  0  1  0  0  0
  -25.5311  -20.0086   19.7481 C   0  0  0  0  0  0
  -26.4454  -20.3676   20.9258 C   0  0  0  0  0  0
  -30.5456  -17.1745   20.8375 C   0  0  0  0  0  0
  -29.9333  -15.8007   20.7222 N   0  0  0  0  0  0
  -28.7255  -23.2176   18.5027 O   0  0  0  0  0  0
  -31.4633  -12.5054   19.1547 H   0  0  0  0  0  0
  -30.3418  -11.4192   19.9254 H   0  0  0  0  0  0
  -29.7663  -11.7294   17.4926 H   0  0  0  0  0  0
  -29.6415  -13.4557   17.7257 H   0  0  0  0  0  0
  -27.8666  -11.2860   18.8883 H   0  0  0  0  0  0
  -27.3680  -12.5472   17.7930 H   0  0  0  0  0  0
  -27.6465  -14.2538   19.4852 H   0  0  0  0  0  0
  -28.7030  -12.1320   21.4167 H   0  0  0  0  0  0
  -28.4382  -13.8148   21.7984 H   0  0  0  0  0  0
  -25.2761   -9.5688   22.4760 H   0  0  0  0  0  0
  -24.0003   -7.4636   22.7473 H   0  0  0  0  0  0
  -21.0842   -8.8773   19.8952 H   0  0  0  0  0  0
  -22.3694  -10.9674   19.6166 H   0  0  0  0  0  0
  -21.2008   -7.6147   23.9714 H   0  0  0  0  0  0
  -21.1480   -6.0522   25.9076 H   0  0  0  0  0  0
  -22.0599   -2.7608   23.2847 H   0  0  0  0  0  0
  -22.4091  -11.9878   22.4808 H   0  0  0  0  0  0
  -21.1086  -13.1237   22.2625 H   0  0  0  0  0  0
  -24.6505  -15.8432   20.5140 H   0  0  0  0  0  0
  -26.2619  -15.6292   20.0562 H   0  0  0  0  0  0
  -26.7160  -32.5427   23.1062 H   0  0  0  0  0  0
  -25.0063  -33.9702   25.0404 H   0  0  0  0  0  0
  -22.7116  -31.2982   21.3959 H   0  0  0  0  0  0
  -23.3749  -35.9619   23.3307 H   0  0  0  0  0  0
  -24.3576  -36.8902   22.2054 H   0  0  0  0  0  0
  -23.7241  -37.6489   23.6659 H   0  0  0  0  0  0
  -26.0824  -31.5514   20.5939 H   0  0  0  0  0  0
  -26.8379  -30.8408   21.9903 H   0  0  0  0  0  0
  -28.1114  -29.0026   21.1554 H   0  0  0  0  0  0
  -25.9687  -25.8727   19.0939 H   0  0  0  0  0  0
  -23.9640  -27.2604   19.0611 H   0  0  0  0  0  0
  -23.7483  -30.5761   19.3974 H   0  0  0  0  0  0
  -22.7493  -29.2323   19.8608 H   0  0  0  0  0  0
  -25.1299  -36.1924   25.0823 H   0  0  0  0  0  0
  -20.9973  -28.3251   24.1415 H   0  0  0  0  0  0
  -20.5664  -26.2287   23.3614 H   0  0  0  0  0  0
  -21.6641  -26.7435   22.1211 H   0  0  0  0  0  0
  -19.6909  -25.6298   21.1237 H   0  0  0  0  0  0
  -19.6688  -27.3200   20.6745 H   0  0  0  0  0  0
  -17.4198  -26.6674   21.4025 H   0  0  0  0  0  0
  -18.0327  -26.0073   22.9021 H   0  0  0  0  0  0
  -19.7936  -30.7266   24.2273 H   0  0  0  0  0  0
  -17.5016  -31.6267   24.5165 H   0  0  0  0  0  0
  -15.5350  -30.2993   23.7649 H   0  0  0  0  0  0
  -15.8670  -28.0826   22.7066 H   0  0  0  0  0  0
  -24.5908  -30.7057   25.7767 H   0  0  0  0  0  0
  -24.8915  -32.2879   26.4855 H   0  0  0  0  0  0
  -25.8068  -30.8900   27.0204 H   0  0  0  0  0  0
  -26.2890  -29.6764   24.1173 H   0  0  0  0  0  0
  -27.4053  -29.7264   25.4623 H   0  0  0  0  0  0
  -27.8746  -30.4308   23.9330 H   0  0  0  0  0  0
  -27.2658  -33.3616   26.2044 H   0  0  0  0  0  0
  -28.3862  -32.6871   25.0301 H   0  0  0  0  0  0
  -28.0709  -31.8439   26.5389 H   0  0  0  0  0  0
  -28.2602  -38.0089   24.7509 H   0  0  0  0  0  0
  -28.1067  -36.2621   24.6303 H   0  0  0  0  0  0
  -27.2295  -37.1462   25.8870 H   0  0  0  0  0  0
  -20.9351  -29.8748   21.6895 H   0  0  0  0  0  0
  -26.0170  -38.2848   24.1409 H   0  0  0  0  0  0
  -30.7032  -21.6922   19.4013 H   0  0  0  0  0  0
  -31.6401  -19.4635   19.8045 H   0  0  0  0  0  0
  -27.8297  -18.0717   21.2092 H   0  0  0  0  0  0
  -28.9291  -23.7312   21.4609 H   0  0  0  0  0  0
  -27.2232  -24.0365   21.1651 H   0  0  0  0  0  0
  -29.0039  -25.1123   17.6562 H   0  0  0  0  0  0
  -27.3386  -24.6845   18.0488 H   0  0  0  0  0  0
  -27.0812  -22.5294   19.4153 H   0  0  0  0  0  0
  -29.6770  -25.1010   19.8827 H   0  0  0  0  0  0
  -24.4837  -20.1632   20.0082 H   0  0  0  0  0  0
  -25.6502  -18.9628   19.4628 H   0  0  0  0  0  0
  -25.7487  -20.6184   18.8710 H   0  0  0  0  0  0
  -26.2674  -21.3936   21.2484 H   0  0  0  0  0  0
  -26.1867  -19.7478   21.7856 H   0  0  0  0  0  0
  -30.9007  -17.2592   21.8654 H   0  0  0  0  0  0
  -31.4545  -17.1816   20.2337 H   0  0  0  0  0  0
  -28.9473  -15.7071   20.9093 H   0  0  0  0  0  0
  1 25  1  0  0  0
  1 30  2  0  0  0
  1 84  1  0  0  0
  2  3  1  0  0  0
  2 25  1  0  0  0
  2 86  1  0  0  0
  2 87  1  0  0  0
  3  4  1  0  0  0
  3 88  1  0  0  0
  3 89  1  0  0  0
  4  5  1  0  0  0
  4 90  1  0  0  0
  4 91  1  0  0  0
  5  6  1  0  0  0
  5 26  1  0  0  0
  5 92  1  0  0  0
  6 25  1  0  0  0
  6 93  1  0  0  0
  6 94  1  0  0  0
  7  8  2  0  0  0
  7 26  1  0  0  0
  7 29  1  0  0  0
  8  9  1  0  0  0
  8 22  1  0  0  0
  9 10  1  0  0  0
  9 27  2  0  0  0
 10 11  2  0  0  0
 10 15  1  0  0  0
 11 12  1  0  0  0
 11 95  1  0  0  0
 12 13  2  0  0  0
 12 96  1  0  0  0
 13 14  1  0  0  0
 13 31  1  0  0  0
 14 15  2  0  0  0
 14 97  1  0  0  0
 15 98  1  0  0  0
 16 17  2  0  0  0
 16 21  1  0  0  0
 16 31  1  0  0  0
 17 18  1  0  0  0
 17 99  1  0  0  0
 18 19  2  0  0  0
 18100  1  0  0  0
 19 20  1  0  0  0
 19 24  1  0  0  0
 20 21  2  0  0  0
 20101  1  0  0  0
 21 23  1  0  0  0
 22 28  1  0  0  0
 22 32  2  0  0  0
 26 27  1  0  0  0
 28102  1  0  0  0
 28103  1  0  0  0
 29104  1  0  0  0
 29105  1  0  0  0
 33 34  1  0  0  0
 33 66  1  0  0  0
 33 70  2  0  0  0
 34 36  1  0  0  0
 34 59  1  0  0  0
 34106  1  0  0  0
 35 44  2  0  0  0
 35 45  1  0  0  0
 35 68  1  0  0  0
 36 56  1  0  0  0
 36107  1  0  0  0
 37 39  1  0  0  0
 37 47  1  0  0  0
 37 66  1  0  0  0
 37108  1  0  0  0
 38 43  2  0  0  0
 38 46  1  0  0  0
 38 47  1  0  0  0
 39 64  1  0  0  0
 39 67  2  0  0  0
 40 52  1  0  0  0
 40 53  2  0  0  0
 40 58  1  0  0  0
 41109  1  0  0  0
 41110  1  0  0  0
 41111  1  0  0  0
 41 48  1  0  0  0
 42 43  1  0  0  0
 42 66  1  0  0  0
 42112  1  0  0  0
 42113  1  0  0  0
 43 44  1  0  0  0
 44114  1  0  0  0
 45 46  2  0  0  0
 45115  1  0  0  0
 46116  1  0  0  0
 47117  1  0  0  0
 47118  1  0  0  0
 48 56  1  0  0  0
 48 65  1  0  0  0
 48119  1  0  0  0
 49 50  1  0  0  0
 49 53  1  0  0  0
 49 64  1  0  0  0
 49120  1  0  0  0
 50 51  1  0  0  0
 50121  1  0  0  0
 50122  1  0  0  0
 51 52  1  0  0  0
 51123  1  0  0  0
 51124  1  0  0  0
 52125  1  0  0  0
 52126  1  0  0  0
 53 54  1  0  0  0
 54 55  2  0  0  0
 54127  1  0  0  0
 55 57  1  0  0  0
 55128  1  0  0  0
 56 69  2  0  0  0
 57 58  2  0  0  0
 57129  1  0  0  0
 58130  1  0  0  0
 59 60  1  0  0  0
 59 61  1  0  0  0
 59 62  1  0  0  0
 60131  1  0  0  0
 60132  1  0  0  0
 60133  1  0  0  0
 61134  1  0  0  0
 61135  1  0  0  0
 61136  1  0  0  0
 62137  1  0  0  0
 62138  1  0  0  0
 62139  1  0  0  0
 63 65  1  0  0  0
 63140  1  0  0  0
 63141  1  0  0  0
 63142  1  0  0  0
 64143  1  0  0  0
 65144  1  0  0  0
 68 80  1  0  0  0
 71 72  2  0  0  0
 71 74  1  0  0  0
 71145  1  0  0  0
 72 75  1  0  0  0
 72146  1  0  0  0
 73 75  2  0  0  0
 73 76  1  0  0  0
 73147  1  0  0  0
 74 76  2  0  0  0
 74 79  1  0  0  0
 75 83  1  0  0  0
 76 82  1  0  0  0
 77 79  1  0  0  0
 77 80  1  0  0  0
 77148  1  0  0  0
 77149  1  0  0  0
 78 80  1  0  0  0
 78 85  1  0  0  0
 78150  1  0  0  0
 78151  1  0  0  0
 79 85  1  0  0  0
 79152  1  0  0  0
 80153  1  0  0  0
 81 82  1  0  0  0
 81154  1  0  0  0
 81155  1  0  0  0
 81156  1  0  0  0
 82157  1  0  0  0
 82158  1  0  0  0
 83 84  1  0  0  0
 83159  1  0  0  0
 83160  1  0  0  0
 84161  1  0  0  0
M  ISO  4   1 100  68 101  80 101  84 100
M  END
> <chiral flag>
0

> <version>
0

> <s_m_source_file>
/data/baiqing/PycharmProjects/Reinvent-master-3.2/result/LINK_invent/BTK/process_docking_weight1_custom_sum_contain_oxygen_bond_distance_aromatic_linkinvent_7_9_3/rearranged_h_0158.sdf

> <i_m_source_file_index>
2

> <r_mmod_Potential_Energy-OPLS-2005>
108.19140625

> <r_mmod_Stretch_Energy-OPLS-2005>
80.6314544677734

> <r_mmod_Bend_Energy-OPLS-2005>
221.397094726562

> <r_mmod_Torsional_Energy-OPLS-2005>
234.582077026367

> <r_mmod_Improper_Torsional_Energy-OPLS-2005>
4.92749643325806

> <r_mmod_Van_der_Waal_Energy-OPLS-2005>
133.763046264648

> <r_mmod_Electrostatic_Energy-OPLS-2005>
-408.862030029297

> <r_mmod_Solvation_Energy-OPLS-2005>
-208.544021606445

> <b_mmod_Minimization_Converged-OPLS-2005>
0

> <r_mmod_RMS_Derivative-OPLS-2005>
0.357505261898041

$$$$
2
                    3D
 Structure written by MMmdl.
177187  0  0  1  0            999 V2000
  -30.7381  -14.3127   20.6815 C   0  0  0  0  0  0
  -30.4188  -12.2527   19.3775 C   0  0  0  0  0  0
  -29.4855  -12.5295   18.1841 C   0  0  0  0  0  0
  -28.0053  -12.3962   18.5946 C   0  0  0  0  0  0
  -27.6684  -13.1878   19.8839 C   0  0  2  0  0  0
  -28.7020  -12.8750   20.9871 C   0  0  0  0  0  0
  -25.2618  -13.8118   20.5642 C   0  0  0  0  0  0
  -24.1849  -13.0422   20.9138 C   0  0  0  0  0  0
  -24.6370  -11.6879   20.8708 C   0  0  0  0  0  0
  -23.9027  -10.4278   21.0397 C   0  0  0  0  0  0
  -24.3579   -9.4204   21.9178 C   0  0  0  0  0  0
  -23.6259   -8.2238   22.0754 C   0  0  0  0  0  0
  -22.4252   -8.0259   21.3542 C   0  0  0  0  0  0
  -21.9871   -9.0238   20.4653 C   0  0  0  0  0  0
  -22.7197  -10.2119   20.3053 C   0  0  0  0  0  0
  -21.6850   -6.0706   22.5266 C   0  0  0  0  0  0
  -21.4023   -6.5613   23.8199 C   0  0  0  0  0  0
  -21.3664   -5.6769   24.9163 C   0  0  0  0  0  0
  -21.6042   -4.3023   24.7223 C   0  0  0  0  0  0
  -21.8822   -3.8119   23.4345 C   0  0  0  0  0  0
  -21.9197   -4.6937   22.3399 C   0  0  0  0  0  0
  -22.7887  -13.5267   21.1802 C   0  0  0  0  0  0
  -22.1672   -4.2130   21.0980 F   0  0  0  0  0  0
  -21.5625   -3.4509   25.7737 F   0  0  0  0  0  0
  -30.0457  -13.1719   20.4552 N   0  0  0  0  0  0
  -26.3043  -12.9246   20.3367 N   0  0  0  0  0  0
  -25.9289  -11.6422   20.5716 N   0  0  0  0  0  0
  -22.0509  -12.8297   22.0367 N   0  0  0  0  0  0
  -25.4338  -15.1833   20.4062 N   0  0  0  0  0  0
  -31.8023  -14.6049   20.1205 O   0  0  0  0  0  0
  -21.6631   -6.8849   21.4227 O   0  0  0  0  0  0
  -22.3611  -14.5602   20.6666 O   0  0  0  0  0  0
  -24.6047  -31.8721   23.2138 C   0  0  0  0  0  0
  -25.8970  -32.4853   23.8425 C   0  0  1  0  0  0
  -27.2629  -27.5117   20.0629 C   0  0  0  0  0  0
  -25.5841  -33.8645   24.2344 N   0  0  0  0  0  0
  -23.3912  -30.4904   21.5522 C   0  0  2  0  0  0
  -24.8416  -28.9471   20.1342 C   0  0  0  0  0  0
  -22.7357  -29.4675   22.5041 C   0  0  0  0  0  0
  -18.0259  -28.1337   22.8501 C   0  0  0  0  0  0
  -24.1477  -36.7350   23.2643 C   0  0  0  0  0  0
  -25.9104  -30.8498   21.3618 C   0  0  0  0  0  0
  -25.9903  -29.4792   20.7304 C   0  0  0  0  0  0
  -27.1964  -28.7570   20.7168 C   0  0  0  0  0  0
  -26.0956  -26.9537   19.5017 C   0  0  0  0  0  0
  -24.8813  -27.6717   19.5354 C   0  0  0  0  0  0
  -23.5995  -29.8087   20.1719 C   0  0  0  0  0  0
  -25.4086  -36.3134   24.0349 C   0  0  1  0  0  0
  -20.5840  -28.3628   23.1343 C   0  0  2  0  0  0
  -20.6750  -26.9373   22.5418 C   0  0  0  0  0  0
  -19.5737  -26.6373   21.5205 C   0  0  0  0  0  0
  -18.1909  -26.7887   22.1621 C   0  0  0  0  0  0
  -19.1500  -28.8796   23.2920 C   0  0  0  0  0  0
  -18.9446  -30.1409   23.8925 C   0  0  0  0  0  0
  -17.6450  -30.6554   24.0557 C   0  0  0  0  0  0
  -25.9010  -34.9495   23.5152 C   0  0  0  0  0  0
  -16.5342  -29.9063   23.6301 C   0  0  0  0  0  0
  -16.7248  -28.6471   23.0345 C   0  0  0  0  0  0
  -26.4451  -31.6619   25.0720 C   0  0  0  0  0  0
  -25.3765  -31.3708   26.1514 C   0  0  0  0  0  0
  -27.0260  -30.3068   24.6053 C   0  0  0  0  0  0
  -27.6053  -32.4338   25.7436 C   0  0  0  0  0  0
  -27.5579  -37.1806   24.8444 C   0  0  0  0  0  0
  -21.4088  -29.3015   22.3768 N   0  0  0  0  0  0
  -26.4268  -37.3821   23.9423 N   0  0  0  0  0  0
  -24.6528  -31.0856   22.1016 N   0  0  0  0  0  0
  -23.4149  -28.8241   23.3082 O   0  0  0  0  0  0
  -28.4815  -26.9219   19.8487 O   0  0  0  0  0  0
  -26.5596  -34.8936   22.4729 O   0  0  0  0  0  0
  -23.5256  -32.1471   23.7556 O   0  0  0  0  0  0
  -29.8712  -23.3363   18.5379 C   0  0  0  0  0  0
  -30.0083  -24.6357   18.0315 C   0  0  0  0  0  0
  -32.2656  -24.7506   18.9435 C   0  0  0  0  0  0
  -30.9311  -22.7265   19.2478 C   0  0  0  0  0  0
  -32.1506  -23.4306   19.4247 C   0  0  0  0  0  0
  -31.1865  -25.3585   18.2788 C   0  0  0  0  0  0
  -30.5042  -17.1221   22.8577 C   0  0  0  0  0  0
  -30.3765  -21.3120   21.2903 C   0  0  0  0  0  0
  -29.7257  -20.4592   19.0852 C   0  0  0  0  0  0
  -30.7477  -15.6105   22.7587 C   0  0  0  0  0  0
  -29.5032  -16.3358   20.8758 C   0  0  0  0  0  0
  -30.5508  -19.8881   21.8345 C   0  0  0  0  0  0
  -29.8603  -19.0145   19.5651 C   0  0  0  0  0  0
  -30.7594  -21.3236   19.8087 C   0  0  1  0  0  0
  -30.3506  -17.4914   21.3877 C   0  0  1  0  0  0
  -33.3454  -22.8087   20.1367 C   0  0  0  0  0  0
  -29.2086  -27.6600   18.8441 C   0  0  0  0  0  0
  -30.7401  -27.5298   18.9291 C   0  0  0  0  0  0
  -30.1160  -15.1723   21.5049 N   0  0  0  0  0  0
  -29.8258  -18.8397   21.0539 N   0  3  1  0  0  0
  -31.2658  -26.6710   17.9224 O   0  0  0  0  0  0
  -31.4644  -12.3549   19.0783 H   0  0  0  0  0  0
  -30.3052  -11.2237   19.7201 H   0  0  0  0  0  0
  -29.7060  -11.8455   17.3638 H   0  0  0  0  0  0
  -29.6704  -13.5359   17.8026 H   0  0  0  0  0  0
  -27.7934  -11.3369   18.7421 H   0  0  0  0  0  0
  -27.3616  -12.7237   17.7789 H   0  0  0  0  0  0
  -27.7389  -14.2480   19.6406 H   0  0  0  0  0  0
  -28.6539  -11.8199   21.2608 H   0  0  0  0  0  0
  -28.4570  -13.4125   21.9037 H   0  0  0  0  0  0
  -25.2720   -9.5680   22.4754 H   0  0  0  0  0  0
  -23.9960   -7.4644   22.7491 H   0  0  0  0  0  0
  -21.0783   -8.8756   19.8986 H   0  0  0  0  0  0
  -22.3634  -10.9653   19.6161 H   0  0  0  0  0  0
  -21.2018   -7.6123   23.9693 H   0  0  0  0  0  0
  -21.1487   -6.0502   25.9065 H   0  0  0  0  0  0
  -22.0599   -2.7580   23.2857 H   0  0  0  0  0  0
  -22.4067  -11.9918   22.4738 H   0  0  0  0  0  0
  -21.1147  -13.1385   22.2601 H   0  0  0  0  0  0
  -24.6585  -15.8295   20.5038 H   0  0  0  0  0  0
  -26.2740  -15.6222   20.0560 H   0  0  0  0  0  0
  -26.7038  -32.5590   23.1193 H   0  0  0  0  0  0
  -24.9889  -33.9825   25.0421 H   0  0  0  0  0  0
  -22.6771  -31.3036   21.4083 H   0  0  0  0  0  0
  -23.3724  -35.9693   23.3285 H   0  0  0  0  0  0
  -24.3586  -36.8997   22.2060 H   0  0  0  0  0  0
  -23.7241  -37.6559   23.6671 H   0  0  0  0  0  0
  -26.0074  -31.6097   20.5845 H   0  0  0  0  0  0
  -26.8029  -30.9175   21.9718 H   0  0  0  0  0  0
  -28.0923  -29.1855   21.1447 H   0  0  0  0  0  0
  -26.1453  -26.0009   18.9929 H   0  0  0  0  0  0
  -23.9952  -27.2521   19.0803 H   0  0  0  0  0  0
  -23.7053  -30.5755   19.4042 H   0  0  0  0  0  0
  -22.7261  -29.2206   19.8834 H   0  0  0  0  0  0
  -25.1245  -36.2008   25.0841 H   0  0  0  0  0  0
  -20.9924  -28.3188   24.1469 H   0  0  0  0  0  0
  -20.5647  -26.2229   23.3593 H   0  0  0  0  0  0
  -21.6625  -26.7415   22.1227 H   0  0  0  0  0  0
  -19.6902  -25.6300   21.1205 H   0  0  0  0  0  0
  -19.6660  -27.3198   20.6748 H   0  0  0  0  0  0
  -17.4181  -26.6629   21.4032 H   0  0  0  0  0  0
  -18.0311  -26.0017   22.9004 H   0  0  0  0  0  0
  -19.7932  -30.7206   24.2304 H   0  0  0  0  0  0
  -17.5012  -31.6244   24.5134 H   0  0  0  0  0  0
  -15.5345  -30.2979   23.7589 H   0  0  0  0  0  0
  -15.8650  -28.0790   22.7054 H   0  0  0  0  0  0
  -24.5822  -30.7210   25.7841 H   0  0  0  0  0  0
  -24.9114  -32.2874   26.5148 H   0  0  0  0  0  0
  -25.8139  -30.8698   27.0160 H   0  0  0  0  0  0
  -26.2763  -29.6828   24.1178 H   0  0  0  0  0  0
  -27.4120  -29.7309   25.4475 H   0  0  0  0  0  0
  -27.8569  -30.4403   23.9120 H   0  0  0  0  0  0
  -27.2687  -33.3608   26.2094 H   0  0  0  0  0  0
  -28.3788  -32.6963   25.0204 H   0  0  0  0  0  0
  -28.0811  -31.8432   26.5277 H   0  0  0  0  0  0
  -28.2554  -38.0145   24.7544 H   0  0  0  0  0  0
  -28.1123  -36.2681   24.6178 H   0  0  0  0  0  0
  -27.2318  -37.1349   25.8852 H   0  0  0  0  0  0
  -20.9235  -29.8733   21.6996 H   0  0  0  0  0  0
  -26.0165  -38.2901   24.1465 H   0  0  0  0  0  0
  -28.9331  -22.8273   18.3750 H   0  0  0  0  0  0
  -29.1869  -25.0890   17.4949 H   0  0  0  0  0  0
  -33.1746  -25.3127   19.1079 H   0  0  0  0  0  0
  -31.3243  -17.6392   23.3556 H   0  0  0  0  0  0
  -29.5842  -17.3252   23.4075 H   0  0  0  0  0  0
  -31.0114  -21.9838   21.8665 H   0  0  0  0  0  0
  -29.3568  -21.6705   21.4354 H   0  0  0  0  0  0
  -28.7091  -20.8145   19.2589 H   0  0  0  0  0  0
  -29.8947  -20.4888   18.0074 H   0  0  0  0  0  0
  -30.3303  -15.0742   23.6120 H   0  0  0  0  0  0
  -31.8218  -15.4107   22.7414 H   0  0  0  0  0  0
  -29.4919  -16.2727   19.7842 H   0  0  0  0  0  0
  -28.4670  -16.4144   21.2111 H   0  0  0  0  0  0
  -30.2253  -19.8570   22.8758 H   0  0  0  0  0  0
  -31.6172  -19.6563   21.8404 H   0  0  0  0  0  0
  -30.8010  -18.6281   19.1700 H   0  0  0  0  0  0
  -29.0712  -18.4208   19.1029 H   0  0  0  0  0  0
  -31.7198  -20.8225   19.6879 H   0  0  0  0  0  0
  -31.3453  -17.4116   20.9413 H   0  0  0  0  0  0
  -34.1907  -23.4958   20.1816 H   0  0  0  0  0  0
  -33.6880  -21.9120   19.6191 H   0  0  0  0  0  0
  -33.0942  -22.5385   21.1610 H   0  0  0  0  0  0
  -28.8552  -27.3654   17.8547 H   0  0  0  0  0  0
  -29.0006  -28.7294   18.9021 H   0  0  0  0  0  0
  -31.0552  -27.2364   19.9323 H   0  0  0  0  0  0
  -31.1889  -28.5071   18.7502 H   0  0  0  0  0  0
  -28.8572  -18.8872   21.3365 H   0  0  0  0  0  0
  1 25  1  0  0  0
  1 30  2  0  0  0
  1 89  1  0  0  0
  2  3  1  0  0  0
  2 25  1  0  0  0
  2 92  1  0  0  0
  2 93  1  0  0  0
  3  4  1  0  0  0
  3 94  1  0  0  0
  3 95  1  0  0  0
  4  5  1  0  0  0
  4 96  1  0  0  0
  4 97  1  0  0  0
  5  6  1  0  0  0
  5 26  1  0  0  0
  5 98  1  0  0  0
  6 25  1  0  0  0
  6 99  1  0  0  0
  6100  1  0  0  0
  7  8  2  0  0  0
  7 26  1  0  0  0
  7 29  1  0  0  0
  8  9  1  0  0  0
  8 22  1  0  0  0
  9 10  1  0  0  0
  9 27  2  0  0  0
 10 11  2  0  0  0
 10 15  1  0  0  0
 11 12  1  0  0  0
 11101  1  0  0  0
 12 13  2  0  0  0
 12102  1  0  0  0
 13 14  1  0  0  0
 13 31  1  0  0  0
 14 15  2  0  0  0
 14103  1  0  0  0
 15104  1  0  0  0
 16 17  2  0  0  0
 16 21  1  0  0  0
 16 31  1  0  0  0
 17 18  1  0  0  0
 17105  1  0  0  0
 18 19  2  0  0  0
 18106  1  0  0  0
 19 20  1  0  0  0
 19 24  1  0  0  0
 20 21  2  0  0  0
 20107  1  0  0  0
 21 23  1  0  0  0
 22 28  1  0  0  0
 22 32  2  0  0  0
 26 27  1  0  0  0
 28108  1  0  0  0
 28109  1  0  0  0
 29110  1  0  0  0
 29111  1  0  0  0
 33 34  1  0  0  0
 33 66  1  0  0  0
 33 70  2  0  0  0
 34 36  1  0  0  0
 34 59  1  0  0  0
 34112  1  0  0  0
 35 44  2  0  0  0
 35 45  1  0  0  0
 35 68  1  0  0  0
 36 56  1  0  0  0
 36113  1  0  0  0
 37 39  1  0  0  0
 37 47  1  0  0  0
 37 66  1  0  0  0
 37114  1  0  0  0
 38 43  2  0  0  0
 38 46  1  0  0  0
 38 47  1  0  0  0
 39 64  1  0  0  0
 39 67  2  0  0  0
 40 52  1  0  0  0
 40 53  2  0  0  0
 40 58  1  0  0  0
 41115  1  0  0  0
 41116  1  0  0  0
 41117  1  0  0  0
 41 48  1  0  0  0
 42 43  1  0  0  0
 42 66  1  0  0  0
 42118  1  0  0  0
 42119  1  0  0  0
 43 44  1  0  0  0
 44120  1  0  0  0
 45 46  2  0  0  0
 45121  1  0  0  0
 46122  1  0  0  0
 47123  1  0  0  0
 47124  1  0  0  0
 48 56  1  0  0  0
 48 65  1  0  0  0
 48125  1  0  0  0
 49 50  1  0  0  0
 49 53  1  0  0  0
 49 64  1  0  0  0
 49126  1  0  0  0
 50 51  1  0  0  0
 50127  1  0  0  0
 50128  1  0  0  0
 51 52  1  0  0  0
 51129  1  0  0  0
 51130  1  0  0  0
 52131  1  0  0  0
 52132  1  0  0  0
 53 54  1  0  0  0
 54 55  2  0  0  0
 54133  1  0  0  0
 55 57  1  0  0  0
 55134  1  0  0  0
 56 69  2  0  0  0
 57 58  2  0  0  0
 57135  1  0  0  0
 58136  1  0  0  0
 59 60  1  0  0  0
 59 61  1  0  0  0
 59 62  1  0  0  0
 60137  1  0  0  0
 60138  1  0  0  0
 60139  1  0  0  0
 61140  1  0  0  0
 61141  1  0  0  0
 61142  1  0  0  0
 62143  1  0  0  0
 62144  1  0  0  0
 62145  1  0  0  0
 63 65  1  0  0  0
 63146  1  0  0  0
 63147  1  0  0  0
 63148  1  0  0  0
 64149  1  0  0  0
 65150  1  0  0  0
 68 87  1  0  0  0
 71 72  2  0  0  0
 71 74  1  0  0  0
 71151  1  0  0  0
 72 76  1  0  0  0
 72152  1  0  0  0
 73 75  1  0  0  0
 73 76  2  0  0  0
 73153  1  0  0  0
 74 75  2  0  0  0
 74 84  1  0  0  0
 75 86  1  0  0  0
 76 91  1  0  0  0
 77 80  1  0  0  0
 77154  1  0  0  0
 77155  1  0  0  0
 77 85  1  0  0  0
 78 82  1  0  0  0
 78 84  1  0  0  0
 78156  1  0  0  0
 78157  1  0  0  0
 79 83  1  0  0  0
 79 84  1  0  0  0
 79158  1  0  0  0
 79159  1  0  0  0
 80 89  1  0  0  0
 80160  1  0  0  0
 80161  1  0  0  0
 81 85  1  0  0  0
 81 89  1  0  0  0
 81162  1  0  0  0
 81163  1  0  0  0
 82164  1  0  0  0
 82165  1  0  0  0
 82 90  1  0  0  0
 83 90  1  0  0  0
 83166  1  0  0  0
 83167  1  0  0  0
 84168  1  0  0  0
 85 90  1  0  0  0
 85169  1  0  0  0
 86170  1  0  0  0
 86171  1  0  0  0
 86172  1  0  0  0
 87 88  1  0  0  0
 87173  1  0  0  0
 87174  1  0  0  0
 88 91  1  0  0  0
 88175  1  0  0  0
 88176  1  0  0  0
 90177  1  0  0  0
M  CHG  1  90   1
M  ISO  4   1 100  68 101  87 101  89 100
M  END
> <chiral flag>
0

> <version>
0

> <s_m_source_file>
/data/baiqing/PycharmProjects/Reinvent-master-3.2/result/LINK_invent/BTK/process_docking_weight1_custom_sum_contain_oxygen_bond_distance_aromatic_linkinvent_7_9_3/rearranged_h_0158.sdf

> <i_m_source_file_index>
3

> <r_mmod_Potential_Energy-OPLS-2005>
150.668746948242

> <r_mmod_Stretch_Energy-OPLS-2005>
34.3961486816406

> <r_mmod_Bend_Energy-OPLS-2005>
141.377365112305

> <r_mmod_Torsional_Energy-OPLS-2005>
419.394622802734

> <r_mmod_Improper_Torsional_Energy-OPLS-2005>
7.63867330551147

> <r_mmod_Van_der_Waal_Energy-OPLS-2005>
176.068862915039

> <r_mmod_Electrostatic_Energy-OPLS-2005>
-211.437698364258

> <r_mmod_Solvation_Energy-OPLS-2005>
-431.130432128906

> <b_mmod_Minimization_Converged-OPLS-2005>
0

> <r_mmod_RMS_Derivative-OPLS-2005>
2.70259284973145

$$$$
3
                    3D
 Structure written by MMmdl.
161170  0  0  1  0            999 V2000
  -30.5713  -14.9378   20.3487 C   0  0  0  0  0  0
  -30.4337  -12.5779   19.4650 C   0  0  0  0  0  0
  -29.5006  -12.4836   18.2371 C   0  0  0  0  0  0
  -28.0420  -12.2645   18.6794 C   0  0  0  0  0  0
  -27.6189  -13.2115   19.8318 C   0  0  2  0  0  0
  -28.6784  -13.3045   20.9476 C   0  0  0  0  0  0
  -25.2502  -13.8109   20.5787 C   0  0  0  0  0  0
  -24.1760  -13.0398   20.9255 C   0  0  0  0  0  0
  -24.6322  -11.6865   20.8804 C   0  0  0  0  0  0
  -23.8996  -10.4266   21.0445 C   0  0  0  0  0  0
  -24.3565   -9.4183   21.9206 C   0  0  0  0  0  0
  -23.6266   -8.2211   22.0757 C   0  0  0  0  0  0
  -22.4258   -8.0250   21.3538 C   0  0  0  0  0  0
  -21.9876   -9.0224   20.4651 C   0  0  0  0  0  0
  -22.7183  -10.2115   20.3077 C   0  0  0  0  0  0
  -21.6842   -6.0721   22.5280 C   0  0  0  0  0  0
  -21.4001   -6.5627   23.8209 C   0  0  0  0  0  0
  -21.3665   -5.6783   24.9174 C   0  0  0  0  0  0
  -21.6050   -4.3047   24.7231 C   0  0  0  0  0  0
  -21.8814   -3.8139   23.4352 C   0  0  0  0  0  0
  -21.9189   -4.6952   22.3406 C   0  0  0  0  0  0
  -22.7794  -13.5232   21.1886 C   0  0  0  0  0  0
  -22.1659   -4.2139   21.0981 F   0  0  0  0  0  0
  -21.5640   -3.4528   25.7743 F   0  0  0  0  0  0
  -29.9402  -13.6990   20.3060 N   0  0  0  0  0  0
  -26.2858  -12.9239   20.3350 N   0  0  0  0  0  0
  -25.9240  -11.6420   20.5825 N   0  0  0  0  0  0
  -22.0409  -12.8258   22.0439 N   0  0  0  0  0  0
  -25.4272  -15.1831   20.4215 N   0  0  0  0  0  0
  -31.8054  -14.9458   20.2745 O   0  0  0  0  0  0
  -21.6621   -6.8858   21.4240 O   0  0  0  0  0  0
  -22.3519  -14.5553   20.6733 O   0  0  0  0  0  0
  -24.6404  -31.8453   23.1903 C   0  0  0  0  0  0
  -25.9191  -32.4700   23.8279 C   0  0  1  0  0  0
  -27.2267  -27.1716   20.1317 C   0  0  0  0  0  0
  -25.5946  -33.8506   24.2192 N   0  0  0  0  0  0
  -23.4423  -30.4642   21.5349 C   0  0  2  0  0  0
  -24.8916  -28.8963   20.1071 C   0  0  0  0  0  0
  -22.7563  -29.4543   22.4882 C   0  0  0  0  0  0
  -18.0313  -28.1389   22.8473 C   0  0  0  0  0  0
  -24.1492  -36.7253   23.2641 C   0  0  0  0  0  0
  -25.9957  -30.7283   21.3849 C   0  0  0  0  0  0
  -26.0661  -29.3439   20.7230 C   0  0  0  0  0  0
  -27.2283  -28.4925   20.7276 C   0  0  0  0  0  0
  -26.0194  -26.8107   19.4913 C   0  0  0  0  0  0
  -24.8783  -27.6407   19.4809 C   0  0  0  0  0  0
  -23.6651  -29.7921   20.1539 C   0  0  0  0  0  0
  -25.4124  -36.3033   24.0316 C   0  0  1  0  0  0
  -20.5916  -28.3704   23.1254 C   0  0  2  0  0  0
  -20.6785  -26.9412   22.5415 C   0  0  0  0  0  0
  -19.5764  -26.6372   21.5215 C   0  0  0  0  0  0
  -18.1945  -26.7931   22.1622 C   0  0  0  0  0  0
  -19.1563  -28.8870   23.2851 C   0  0  0  0  0  0
  -18.9476  -30.1472   23.8868 C   0  0  0  0  0  0
  -17.6465  -30.6580   24.0556 C   0  0  0  0  0  0
  -25.9071  -34.9407   23.5062 C   0  0  0  0  0  0
  -16.5357  -29.9071   23.6339 C   0  0  0  0  0  0
  -16.7294  -28.6496   23.0350 C   0  0  0  0  0  0
  -26.4515  -31.6570   25.0721 C   0  0  0  0  0  0
  -25.3706  -31.3761   26.1422 C   0  0  0  0  0  0
  -27.0371  -30.2967   24.6297 C   0  0  0  0  0  0
  -27.6052  -32.4331   25.7497 C   0  0  0  0  0  0
  -27.5582  -37.1783   24.8459 C   0  0  0  0  0  0
  -21.4259  -29.3028   22.3631 N   0  0  0  0  0  0
  -26.4285  -37.3744   23.9409 N   0  0  0  0  0  0
  -24.7124  -31.0343   22.0915 N   0  0  0  0  0  0
  -23.4223  -28.8105   23.3024 O   0  0  0  0  0  0
  -28.2960  -26.2200   20.2536 O   0  0  0  0  0  0
  -26.5656  -34.8896   22.4641 O   0  0  0  0  0  0
  -23.5530  -32.1315   23.7147 O   0  0  0  0  0  0
  -27.9092  -20.9464   19.4409 C   0  0  0  0  0  0
  -27.7298  -22.3701   19.3220 C   0  0  0  0  0  0
  -29.7939  -21.2826   20.8127 C   0  0  0  0  0  0
  -28.9582  -20.3027   20.1694 C   0  0  0  0  0  0
  -28.5681  -23.3561   19.9255 C   0  0  0  0  0  0
  -29.6220  -22.7428   20.7009 C   0  0  0  0  0  0
  -28.6097  -17.9606   18.9324 C   0  0  0  0  0  0
  -30.1386  -17.5946   20.7089 C   0  0  0  0  0  0
  -28.9957  -18.6530   20.2422 C   0  0  1  0  0  0
  -29.2174  -16.5176   18.8904 C   0  0  1  0  0  0
  -30.2141  -16.4120   17.7143 C   0  0  0  0  0  0
  -31.3316  -23.1421   22.3430 C   0  0  0  0  0  0
  -28.4304  -24.9244   19.4410 C   0  0  0  0  0  0
  -29.8417  -16.1611   20.1972 N   0  0  0  0  0  0
  -30.4865  -23.6291   21.3072 O   0  0  0  0  0  0
  -31.4626  -12.7362   19.1391 H   0  0  0  0  0  0
  -30.4316  -11.6447   20.0297 H   0  0  0  0  0  0
  -29.8199  -11.6712   17.5831 H   0  0  0  0  0  0
  -29.5617  -13.3944   17.6436 H   0  0  0  0  0  0
  -27.9556  -11.2291   19.0099 H   0  0  0  0  0  0
  -27.3648  -12.3712   17.8299 H   0  0  0  0  0  0
  -27.5359  -14.1833   19.3711 H   0  0  0  0  0  0
  -28.7819  -12.3565   21.4762 H   0  0  0  0  0  0
  -28.3824  -14.0472   21.6912 H   0  0  0  0  0  0
  -25.2698   -9.5679   22.4787 H   0  0  0  0  0  0
  -23.9985   -7.4609   22.7473 H   0  0  0  0  0  0
  -21.0810   -8.8740   19.8964 H   0  0  0  0  0  0
  -22.3636  -10.9658   19.6200 H   0  0  0  0  0  0
  -21.1975   -7.6131   23.9711 H   0  0  0  0  0  0
  -21.1501   -6.0509   25.9081 H   0  0  0  0  0  0
  -22.0595   -2.7606   23.2836 H   0  0  0  0  0  0
  -22.3981  -11.9897   22.4819 H   0  0  0  0  0  0
  -21.1038  -13.1322   22.2631 H   0  0  0  0  0  0
  -24.6709  -15.8461   20.5506 H   0  0  0  0  0  0
  -26.2968  -15.6218   20.1468 H   0  0  0  0  0  0
  -26.7267  -32.5306   23.1015 H   0  0  0  0  0  0
  -25.0079  -33.9613   25.0328 H   0  0  0  0  0  0
  -22.7426  -31.2883   21.3822 H   0  0  0  0  0  0
  -23.3759  -35.9580   23.3280 H   0  0  0  0  0  0
  -24.3582  -36.8908   22.2061 H   0  0  0  0  0  0
  -23.7237  -37.6442   23.6688 H   0  0  0  0  0  0
  -26.1506  -31.4877   20.6169 H   0  0  0  0  0  0
  -26.8658  -30.7730   22.0285 H   0  0  0  0  0  0
  -28.1209  -28.8250   21.2391 H   0  0  0  0  0  0
  -25.9007  -25.8376   19.0417 H   0  0  0  0  0  0
  -23.9744  -27.2849   19.0054 H   0  0  0  0  0  0
  -23.7943  -30.5638   19.3940 H   0  0  0  0  0  0
  -22.7810  -29.2288   19.8500 H   0  0  0  0  0  0
  -25.1312  -36.1857   25.0809 H   0  0  0  0  0  0
  -21.0004  -28.3282   24.1378 H   0  0  0  0  0  0
  -20.5676  -26.2316   23.3627 H   0  0  0  0  0  0
  -21.6654  -26.7418   22.1217 H   0  0  0  0  0  0
  -19.6919  -25.6281   21.1258 H   0  0  0  0  0  0
  -19.6702  -27.3176   20.6734 H   0  0  0  0  0  0
  -17.4224  -26.6691   21.4017 H   0  0  0  0  0  0
  -18.0325  -26.0072   22.9013 H   0  0  0  0  0  0
  -19.7945  -30.7301   24.2212 H   0  0  0  0  0  0
  -17.5015  -31.6251   24.5172 H   0  0  0  0  0  0
  -15.5359  -30.2950   23.7677 H   0  0  0  0  0  0
  -15.8701  -28.0804   22.7063 H   0  0  0  0  0  0
  -24.5880  -30.7112   25.7753 H   0  0  0  0  0  0
  -24.8895  -32.2944   26.4806 H   0  0  0  0  0  0
  -25.7994  -30.8966   27.0233 H   0  0  0  0  0  0
  -26.2985  -29.6697   24.1296 H   0  0  0  0  0  0
  -27.3971  -29.7263   25.4872 H   0  0  0  0  0  0
  -27.8898  -30.4197   23.9614 H   0  0  0  0  0  0
  -27.2653  -33.3641   26.2045 H   0  0  0  0  0  0
  -28.3880  -32.6884   25.0342 H   0  0  0  0  0  0
  -28.0707  -31.8482   26.5442 H   0  0  0  0  0  0
  -28.2587  -38.0091   24.7520 H   0  0  0  0  0  0
  -28.1087  -36.2625   24.6261 H   0  0  0  0  0  0
  -27.2303  -37.1405   25.8861 H   0  0  0  0  0  0
  -20.9477  -29.8733   21.6805 H   0  0  0  0  0  0
  -26.0149  -38.2815   24.1413 H   0  0  0  0  0  0
  -27.1929  -20.3233   18.9248 H   0  0  0  0  0  0
  -26.9231  -22.7148   18.6899 H   0  0  0  0  0  0
  -30.6065  -20.8843   21.4023 H   0  0  0  0  0  0
  -28.9750  -18.5481   18.0877 H   0  0  0  0  0  0
  -27.5241  -17.9285   18.8261 H   0  0  0  0  0  0
  -30.2485  -17.5937   21.7938 H   0  0  0  0  0  0
  -31.1021  -17.8970   20.2988 H   0  0  0  0  0  0
  -28.1765  -18.4434   20.9315 H   0  0  0  0  0  0
  -28.4017  -15.8456   18.6658 H   0  0  0  0  0  0
  -31.0712  -17.0706   17.8631 H   0  0  0  0  0  0
  -29.7433  -16.6974   16.7728 H   0  0  0  0  0  0
  -30.5987  -15.4029   17.5765 H   0  0  0  0  0  0
  -31.8107  -23.9838   22.8422 H   0  0  0  0  0  0
  -32.1235  -22.5029   21.9523 H   0  0  0  0  0  0
  -30.7659  -22.5948   23.0987 H   0  0  0  0  0  0
  -27.7149  -24.9331   18.6229 H   0  0  0  0  0  0
  -29.3718  -25.0833   18.9153 H   0  0  0  0  0  0
  1 25  1  0  0  0
  1 30  2  0  0  0
  1 84  1  0  0  0
  2  3  1  0  0  0
  2 25  1  0  0  0
  2 86  1  0  0  0
  2 87  1  0  0  0
  3  4  1  0  0  0
  3 88  1  0  0  0
  3 89  1  0  0  0
  4  5  1  0  0  0
  4 90  1  0  0  0
  4 91  1  0  0  0
  5  6  1  0  0  0
  5 26  1  0  0  0
  5 92  1  0  0  0
  6 25  1  0  0  0
  6 93  1  0  0  0
  6 94  1  0  0  0
  7  8  2  0  0  0
  7 26  1  0  0  0
  7 29  1  0  0  0
  8  9  1  0  0  0
  8 22  1  0  0  0
  9 10  1  0  0  0
  9 27  2  0  0  0
 10 11  2  0  0  0
 10 15  1  0  0  0
 11 12  1  0  0  0
 11 95  1  0  0  0
 12 13  2  0  0  0
 12 96  1  0  0  0
 13 14  1  0  0  0
 13 31  1  0  0  0
 14 15  2  0  0  0
 14 97  1  0  0  0
 15 98  1  0  0  0
 16 17  2  0  0  0
 16 21  1  0  0  0
 16 31  1  0  0  0
 17 18  1  0  0  0
 17 99  1  0  0  0
 18 19  2  0  0  0
 18100  1  0  0  0
 19 20  1  0  0  0
 19 24  1  0  0  0
 20 21  2  0  0  0
 20101  1  0  0  0
 21 23  1  0  0  0
 22 28  1  0  0  0
 22 32  2  0  0  0
 26 27  1  0  0  0
 28102  1  0  0  0
 28103  1  0  0  0
 29104  1  0  0  0
 29105  1  0  0  0
 33 34  1  0  0  0
 33 66  1  0  0  0
 33 70  2  0  0  0
 34 36  1  0  0  0
 34 59  1  0  0  0
 34106  1  0  0  0
 35 44  2  0  0  0
 35 45  1  0  0  0
 35 68  1  0  0  0
 36 56  1  0  0  0
 36107  1  0  0  0
 37 39  1  0  0  0
 37 47  1  0  0  0
 37 66  1  0  0  0
 37108  1  0  0  0
 38 43  2  0  0  0
 38 46  1  0  0  0
 38 47  1  0  0  0
 39 64  1  0  0  0
 39 67  2  0  0  0
 40 52  1  0  0  0
 40 53  2  0  0  0
 40 58  1  0  0  0
 41109  1  0  0  0
 41110  1  0  0  0
 41111  1  0  0  0
 41 48  1  0  0  0
 42 43  1  0  0  0
 42 66  1  0  0  0
 42112  1  0  0  0
 42113  1  0  0  0
 43 44  1  0  0  0
 44114  1  0  0  0
 45 46  2  0  0  0
 45115  1  0  0  0
 46116  1  0  0  0
 47117  1  0  0  0
 47118  1  0  0  0
 48 56  1  0  0  0
 48 65  1  0  0  0
 48119  1  0  0  0
 49 50  1  0  0  0
 49 53  1  0  0  0
 49 64  1  0  0  0
 49120  1  0  0  0
 50 51  1  0  0  0
 50121  1  0  0  0
 50122  1  0  0  0
 51 52  1  0  0  0
 51123  1  0  0  0
 51124  1  0  0  0
 52125  1  0  0  0
 52126  1  0  0  0
 53 54  1  0  0  0
 54 55  2  0  0  0
 54127  1  0  0  0
 55 57  1  0  0  0
 55128  1  0  0  0
 56 69  2  0  0  0
 57 58  2  0  0  0
 57129  1  0  0  0
 58130  1  0  0  0
 59 60  1  0  0  0
 59 61  1  0  0  0
 59 62  1  0  0  0
 60131  1  0  0  0
 60132  1  0  0  0
 60133  1  0  0  0
 61134  1  0  0  0
 61135  1  0  0  0
 61136  1  0  0  0
 62137  1  0  0  0
 62138  1  0  0  0
 62139  1  0  0  0
 63 65  1  0  0  0
 63140  1  0  0  0
 63141  1  0  0  0
 63142  1  0  0  0
 64143  1  0  0  0
 65144  1  0  0  0
 68 83  1  0  0  0
 71 72  2  0  0  0
 71 74  1  0  0  0
 71145  1  0  0  0
 72 75  1  0  0  0
 72146  1  0  0  0
 73 74  2  0  0  0
 73 76  1  0  0  0
 73147  1  0  0  0
 74 79  1  0  0  0
 75 76  2  0  0  0
 75 83  1  0  0  0
 76 85  1  0  0  0
 77 79  1  0  0  0
 77 80  1  0  0  0
 77148  1  0  0  0
 77149  1  0  0  0
 78 79  1  0  0  0
 78 84  1  0  0  0
 78150  1  0  0  0
 78151  1  0  0  0
 79152  1  0  0  0
 80 81  1  0  0  0
 80 84  1  0  0  0
 80153  1  0  0  0
 81154  1  0  0  0
 81155  1  0  0  0
 81156  1  0  0  0
 82 85  1  0  0  0
 82157  1  0  0  0
 82158  1  0  0  0
 82159  1  0  0  0
 83160  1  0  0  0
 83161  1  0  0  0
M  ISO  4   1 100  68 101  83 101  84 100
M  END
> <chiral flag>
0

> <version>
0

> <s_m_source_file>
/data/baiqing/PycharmProjects/Reinvent-master-3.2/result/LINK_invent/BTK/process_docking_weight1_custom_sum_contain_oxygen_bond_distance_aromatic_linkinvent_7_9_3/rearranged_h_0158.sdf

> <i_m_source_file_index>
4

> <r_mmod_Potential_Energy-OPLS-2005>
759.236206054688

> <r_mmod_Stretch_Energy-OPLS-2005>
202.509582519531

> <r_mmod_Bend_Energy-OPLS-2005>
313.191467285156

> <r_mmod_Torsional_Energy-OPLS-2005>
371.937164306641

> <r_mmod_Improper_Torsional_Energy-OPLS-2005>
12.3077335357666

> <r_mmod_Van_der_Waal_Energy-OPLS-2005>
136.847305297852

> <r_mmod_Electrostatic_Energy-OPLS-2005>
-258.036499023438

> <r_mmod_Solvation_Energy-OPLS-2005>
-205.292694091797

> <b_mmod_Minimization_Converged-OPLS-2005>
0

> <r_mmod_RMS_Derivative-OPLS-2005>
2.01069974899292

$$$$
4
                    3D
 Structure written by MMmdl.
165174  0  0  1  0            999 V2000
  -30.6600  -14.6676   20.4908 C   0  0  0  0  0  0
  -30.4212  -12.4117   19.4594 C   0  0  0  0  0  0
  -29.4994  -12.5029   18.2251 C   0  0  0  0  0  0
  -28.0227  -12.3469   18.6374 C   0  0  0  0  0  0
  -27.6454  -13.2252   19.8615 C   0  0  2  0  0  0
  -28.6930  -13.1024   20.9888 C   0  0  0  0  0  0
  -25.2504  -13.8194   20.5673 C   0  0  0  0  0  0
  -24.1794  -13.0437   20.9197 C   0  0  0  0  0  0
  -24.6391  -11.6921   20.8758 C   0  0  0  0  0  0
  -23.9070  -10.4298   21.0415 C   0  0  0  0  0  0
  -24.3625   -9.4211   21.9185 C   0  0  0  0  0  0
  -23.6297   -8.2246   22.0752 C   0  0  0  0  0  0
  -22.4275   -8.0289   21.3548 C   0  0  0  0  0  0
  -21.9919   -9.0261   20.4645 C   0  0  0  0  0  0
  -22.7249  -10.2136   20.3056 C   0  0  0  0  0  0
  -21.6854   -6.0741   22.5280 C   0  0  0  0  0  0
  -21.4017   -6.5644   23.8213 C   0  0  0  0  0  0
  -21.3657   -5.6797   24.9174 C   0  0  0  0  0  0
  -21.6042   -4.3059   24.7227 C   0  0  0  0  0  0
  -21.8818   -3.8151   23.4349 C   0  0  0  0  0  0
  -21.9192   -4.6970   22.3407 C   0  0  0  0  0  0
  -22.7816  -13.5214   21.1862 C   0  0  0  0  0  0
  -22.1655   -4.2152   21.0985 F   0  0  0  0  0  0
  -21.5630   -3.4543   25.7741 F   0  0  0  0  0  0
  -29.9923  -13.4653   20.4079 N   0  0  0  0  0  0
  -26.2946  -12.9395   20.3337 N   0  0  0  0  0  0
  -25.9323  -11.6542   20.5791 N   0  0  0  0  0  0
  -22.0476  -12.8193   22.0423 N   0  0  0  0  0  0
  -25.4182  -15.1909   20.4032 N   0  0  0  0  0  0
  -31.8399  -14.7257   20.1286 O   0  0  0  0  0  0
  -21.6639   -6.8887   21.4245 O   0  0  0  0  0  0
  -22.3494  -14.5522   20.6724 O   0  0  0  0  0  0
  -24.6262  -31.8598   23.2026 C   0  0  0  0  0  0
  -25.9111  -32.4779   23.8358 C   0  0  1  0  0  0
  -27.2207  -27.3260   20.1224 C   0  0  0  0  0  0
  -25.5925  -33.8578   24.2284 N   0  0  0  0  0  0
  -23.4202  -30.4825   21.5448 C   0  0  2  0  0  0
  -24.8689  -28.9386   20.1094 C   0  0  0  0  0  0
  -22.7478  -29.4619   22.4938 C   0  0  0  0  0  0
  -18.0286  -28.1383   22.8489 C   0  0  0  0  0  0
  -24.1486  -36.7292   23.2638 C   0  0  0  0  0  0
  -25.9602  -30.7944   21.3711 C   0  0  0  0  0  0
  -26.0374  -29.4216   20.7148 C   0  0  0  0  0  0
  -27.2217  -28.6260   20.7120 C   0  0  0  0  0  0
  -26.0375  -26.8939   19.4900 C   0  0  0  0  0  0
  -24.8700  -27.6798   19.4871 C   0  0  0  0  0  0
  -23.6346  -29.8165   20.1601 C   0  0  0  0  0  0
  -25.4111  -36.3083   24.0329 C   0  0  1  0  0  0
  -20.5887  -28.3686   23.1286 C   0  0  2  0  0  0
  -20.6775  -26.9409   22.5409 C   0  0  0  0  0  0
  -19.5749  -26.6383   21.5213 C   0  0  0  0  0  0
  -18.1930  -26.7929   22.1623 C   0  0  0  0  0  0
  -19.1539  -28.8852   23.2883 C   0  0  0  0  0  0
  -18.9462  -30.1455   23.8898 C   0  0  0  0  0  0
  -17.6463  -30.6586   24.0566 C   0  0  0  0  0  0
  -25.9051  -34.9451   23.5107 C   0  0  0  0  0  0
  -16.5353  -29.9083   23.6333 C   0  0  0  0  0  0
  -16.7275  -28.6499   23.0357 C   0  0  0  0  0  0
  -26.4501  -31.6581   25.0720 C   0  0  0  0  0  0
  -25.3735  -31.3707   26.1442 C   0  0  0  0  0  0
  -27.0339  -30.3010   24.6152 C   0  0  0  0  0  0
  -27.6061  -32.4312   25.7494 C   0  0  0  0  0  0
  -27.5577  -37.1802   24.8465 C   0  0  0  0  0  0
  -21.4190  -29.3039   22.3681 N   0  0  0  0  0  0
  -26.4291  -37.3777   23.9408 N   0  0  0  0  0  0
  -24.6878  -31.0615   22.0971 N   0  0  0  0  0  0
  -23.4199  -28.8162   23.3020 O   0  0  0  0  0  0
  -28.2959  -26.4317   20.1597 O   0  0  0  0  0  0
  -26.5618  -34.8921   22.4672 O   0  0  0  0  0  0
  -23.5427  -32.1393   23.7358 O   0  0  0  0  0  0
  -28.2035  -21.2954   20.5889 C   0  0  0  0  0  0
  -27.7156  -22.6365   20.6893 C   0  0  0  0  0  0
  -29.9589  -23.4877   20.3770 C   0  0  0  0  0  0
  -28.5806  -23.7794   20.6110 C   0  0  0  0  0  0
  -30.4325  -22.1322   20.2365 C   0  0  0  0  0  0
  -29.5711  -20.9994   20.3900 C   0  0  0  0  0  0
  -29.0346  -17.8068   21.7413 C   0  0  0  0  0  0
  -28.9983  -16.2573   21.6226 C   0  0  0  0  0  0
  -30.3698  -17.1303   19.9138 C   0  0  0  0  0  0
  -29.4523  -18.3254   20.3655 C   0  0  2  0  0  0
  -26.2251  -22.8064   20.9414 C   0  0  0  0  0  0
  -30.9602  -24.6401   20.3184 C   0  0  0  0  0  0
  -31.9124  -21.8832   19.9415 C   0  0  0  0  0  0
  -28.0532  -25.2324   20.9918 C   0  0  0  0  0  0
  -29.9392  -15.8529   20.5674 N   0  0  0  0  0  0
  -30.1165  -19.6668   20.3613 N   0  0  0  0  0  0
  -31.4634  -12.5157   19.1536 H   0  0  0  0  0  0
  -30.3484  -11.4258   19.9223 H   0  0  0  0  0  0
  -29.7660  -11.7369   17.4958 H   0  0  0  0  0  0
  -29.6437  -13.4629   17.7271 H   0  0  0  0  0  0
  -27.8581  -11.2950   18.8748 H   0  0  0  0  0  0
  -27.3686  -12.5727   17.7945 H   0  0  0  0  0  0
  -27.6577  -14.2576   19.5121 H   0  0  0  0  0  0
  -28.7209  -12.0825   21.3757 H   0  0  0  0  0  0
  -28.4349  -13.7240   21.8431 H   0  0  0  0  0  0
  -25.2776   -9.5679   22.4757 H   0  0  0  0  0  0
  -24.0006   -7.4637   22.7469 H   0  0  0  0  0  0
  -21.0853   -8.8787   19.8950 H   0  0  0  0  0  0
  -22.3718  -10.9678   19.6165 H   0  0  0  0  0  0
  -21.2011   -7.6151   23.9717 H   0  0  0  0  0  0
  -21.1476   -6.0528   25.9076 H   0  0  0  0  0  0
  -22.0598   -2.7611   23.2852 H   0  0  0  0  0  0
  -22.4102  -11.9841   22.4782 H   0  0  0  0  0  0
  -21.1102  -13.1215   22.2661 H   0  0  0  0  0  0
  -24.6517  -15.8466   20.5090 H   0  0  0  0  0  0
  -26.2694  -15.6281   20.0737 H   0  0  0  0  0  0
  -26.7176  -32.5458   23.1107 H   0  0  0  0  0  0
  -25.0077  -33.9725   25.0430 H   0  0  0  0  0  0
  -22.7138  -31.3028   21.4018 H   0  0  0  0  0  0
  -23.3751  -35.9623   23.3303 H   0  0  0  0  0  0
  -24.3580  -36.8912   22.2054 H   0  0  0  0  0  0
  -23.7238  -37.6494   23.6656 H   0  0  0  0  0  0
  -26.0864  -31.5572   20.6016 H   0  0  0  0  0  0
  -26.8423  -30.8477   21.9972 H   0  0  0  0  0  0
  -28.1181  -28.9872   21.1964 H   0  0  0  0  0  0
  -26.0105  -25.9211   19.0196 H   0  0  0  0  0  0
  -23.9742  -27.3046   19.0110 H   0  0  0  0  0  0
  -23.7498  -30.5928   19.4026 H   0  0  0  0  0  0
  -22.7556  -29.2425   19.8611 H   0  0  0  0  0  0
  -25.1290  -36.1940   25.0823 H   0  0  0  0  0  0
  -20.9981  -28.3261   24.1407 H   0  0  0  0  0  0
  -20.5684  -26.2293   23.3607 H   0  0  0  0  0  0
  -21.6646  -26.7444   22.1200 H   0  0  0  0  0  0
  -19.6913  -25.6295   21.1243 H   0  0  0  0  0  0
  -19.6690  -27.3198   20.6749 H   0  0  0  0  0  0
  -17.4201  -26.6685   21.4024 H   0  0  0  0  0  0
  -18.0328  -26.0069   22.9016 H   0  0  0  0  0  0
  -19.7936  -30.7275   24.2268 H   0  0  0  0  0  0
  -17.5014  -31.6270   24.5160 H   0  0  0  0  0  0
  -15.5353  -30.2986   23.7654 H   0  0  0  0  0  0
  -15.8675  -28.0819   22.7075 H   0  0  0  0  0  0
  -24.5915  -30.7053   25.7766 H   0  0  0  0  0  0
  -24.8919  -32.2867   26.4879 H   0  0  0  0  0  0
  -25.8064  -30.8877   27.0210 H   0  0  0  0  0  0
  -26.2904  -29.6764   24.1185 H   0  0  0  0  0  0
  -27.4059  -29.7263   25.4643 H   0  0  0  0  0  0
  -27.8764  -30.4308   23.9355 H   0  0  0  0  0  0
  -27.2678  -33.3618   26.2064 H   0  0  0  0  0  0
  -28.3881  -32.6858   25.0327 H   0  0  0  0  0  0
  -28.0713  -31.8435   26.5418 H   0  0  0  0  0  0
  -28.2590  -38.0104   24.7520 H   0  0  0  0  0  0
  -28.1079  -36.2635   24.6278 H   0  0  0  0  0  0
  -27.2296  -37.1446   25.8869 H   0  0  0  0  0  0
  -20.9364  -29.8758   21.6891 H   0  0  0  0  0  0
  -26.0172  -38.2851   24.1414 H   0  0  0  0  0  0
  -27.5089  -20.4745   20.6984 H   0  0  0  0  0  0
  -29.7806  -18.0884   22.4864 H   0  0  0  0  0  0
  -28.0787  -18.2189   22.0688 H   0  0  0  0  0  0
  -27.9972  -15.9384   21.3371 H   0  0  0  0  0  0
  -29.2390  -15.7870   22.5772 H   0  0  0  0  0  0
  -31.4026  -17.3241   20.2098 H   0  0  0  0  0  0
  -30.3664  -17.0219   18.8284 H   0  0  0  0  0  0
  -28.5748  -18.3587   19.7169 H   0  0  0  0  0  0
  -25.6879  -21.8626   20.8444 H   0  0  0  0  0  0
  -25.7869  -23.5025   20.2259 H   0  0  0  0  0  0
  -26.0474  -23.1806   21.9500 H   0  0  0  0  0  0
  -30.5955  -25.5568   20.7768 H   0  0  0  0  0  0
  -31.2146  -24.8673   19.2827 H   0  0  0  0  0  0
  -31.8776  -24.3926   20.8522 H   0  0  0  0  0  0
  -32.3656  -22.6908   19.3690 H   0  0  0  0  0  0
  -32.0629  -20.9897   19.3373 H   0  0  0  0  0  0
  -32.4699  -21.7656   20.8705 H   0  0  0  0  0  0
  -28.5174  -25.4588   21.9523 H   0  0  0  0  0  0
  -26.9977  -25.1811   21.2495 H   0  0  0  0  0  0
  -31.1240  -19.6270   20.2447 H   0  0  0  0  0  0
  1 25  1  0  0  0
  1 30  2  0  0  0
  1 85  1  0  0  0
  2  3  1  0  0  0
  2 25  1  0  0  0
  2 87  1  0  0  0
  2 88  1  0  0  0
  3  4  1  0  0  0
  3 89  1  0  0  0
  3 90  1  0  0  0
  4  5  1  0  0  0
  4 91  1  0  0  0
  4 92  1  0  0  0
  5  6  1  0  0  0
  5 26  1  0  0  0
  5 93  1  0  0  0
  6 25  1  0  0  0
  6 94  1  0  0  0
  6 95  1  0  0  0
  7  8  2  0  0  0
  7 26  1  0  0  0
  7 29  1  0  0  0
  8  9  1  0  0  0
  8 22  1  0  0  0
  9 10  1  0  0  0
  9 27  2  0  0  0
 10 11  2  0  0  0
 10 15  1  0  0  0
 11 12  1  0  0  0
 11 96  1  0  0  0
 12 13  2  0  0  0
 12 97  1  0  0  0
 13 14  1  0  0  0
 13 31  1  0  0  0
 14 15  2  0  0  0
 14 98  1  0  0  0
 15 99  1  0  0  0
 16 17  2  0  0  0
 16 21  1  0  0  0
 16 31  1  0  0  0
 17 18  1  0  0  0
 17100  1  0  0  0
 18 19  2  0  0  0
 18101  1  0  0  0
 19 20  1  0  0  0
 19 24  1  0  0  0
 20 21  2  0  0  0
 20102  1  0  0  0
 21 23  1  0  0  0
 22 28  1  0  0  0
 22 32  2  0  0  0
 26 27  1  0  0  0
 28103  1  0  0  0
 28104  1  0  0  0
 29105  1  0  0  0
 29106  1  0  0  0
 33 34  1  0  0  0
 33 66  1  0  0  0
 33 70  2  0  0  0
 34 36  1  0  0  0
 34 59  1  0  0  0
 34107  1  0  0  0
 35 44  2  0  0  0
 35 45  1  0  0  0
 35 68  1  0  0  0
 36 56  1  0  0  0
 36108  1  0  0  0
 37 39  1  0  0  0
 37 47  1  0  0  0
 37 66  1  0  0  0
 37109  1  0  0  0
 38 43  2  0  0  0
 38 46  1  0  0  0
 38 47  1  0  0  0
 39 64  1  0  0  0
 39 67  2  0  0  0
 40 52  1  0  0  0
 40 53  2  0  0  0
 40 58  1  0  0  0
 41110  1  0  0  0
 41111  1  0  0  0
 41112  1  0  0  0
 41 48  1  0  0  0
 42 43  1  0  0  0
 42 66  1  0  0  0
 42113  1  0  0  0
 42114  1  0  0  0
 43 44  1  0  0  0
 44115  1  0  0  0
 45 46  2  0  0  0
 45116  1  0  0  0
 46117  1  0  0  0
 47118  1  0  0  0
 47119  1  0  0  0
 48 56  1  0  0  0
 48 65  1  0  0  0
 48120  1  0  0  0
 49 50  1  0  0  0
 49 53  1  0  0  0
 49 64  1  0  0  0
 49121  1  0  0  0
 50 51  1  0  0  0
 50122  1  0  0  0
 50123  1  0  0  0
 51 52  1  0  0  0
 51124  1  0  0  0
 51125  1  0  0  0
 52126  1  0  0  0
 52127  1  0  0  0
 53 54  1  0  0  0
 54 55  2  0  0  0
 54128  1  0  0  0
 55 57  1  0  0  0
 55129  1  0  0  0
 56 69  2  0  0  0
 57 58  2  0  0  0
 57130  1  0  0  0
 58131  1  0  0  0
 59 60  1  0  0  0
 59 61  1  0  0  0
 59 62  1  0  0  0
 60132  1  0  0  0
 60133  1  0  0  0
 60134  1  0  0  0
 61135  1  0  0  0
 61136  1  0  0  0
 61137  1  0  0  0
 62138  1  0  0  0
 62139  1  0  0  0
 62140  1  0  0  0
 63 65  1  0  0  0
 63141  1  0  0  0
 63142  1  0  0  0
 63143  1  0  0  0
 64144  1  0  0  0
 65145  1  0  0  0
 68 84  1  0  0  0
 71 72  2  0  0  0
 71 76  1  0  0  0
 71146  1  0  0  0
 72 74  1  0  0  0
 72 81  1  0  0  0
 73 74  2  0  0  0
 73 75  1  0  0  0
 73 82  1  0  0  0
 74 84  1  0  0  0
 75 76  2  0  0  0
 75 83  1  0  0  0
 76 86  1  0  0  0
 77 78  1  0  0  0
 77 80  1  0  0  0
 77147  1  0  0  0
 77148  1  0  0  0
 78 85  1  0  0  0
 78149  1  0  0  0
 78150  1  0  0  0
 79 80  1  0  0  0
 79 85  1  0  0  0
 79151  1  0  0  0
 79152  1  0  0  0
 80 86  1  0  0  0
 80153  1  0  0  0
 81154  1  0  0  0
 81155  1  0  0  0
 81156  1  0  0  0
 82157  1  0  0  0
 82158  1  0  0  0
 82159  1  0  0  0
 83160  1  0  0  0
 83161  1  0  0  0
 83162  1  0  0  0
 84163  1  0  0  0
 84164  1  0  0  0
 86165  1  0  0  0
M  ISO  4   1 100  68 101  84 101  85 100
M  END
> <chiral flag>
0

> <version>
0

> <s_m_source_file>
/data/baiqing/PycharmProjects/Reinvent-master-3.2/result/LINK_invent/BTK/process_docking_weight1_custom_sum_contain_oxygen_bond_distance_aromatic_linkinvent_7_9_3/rearranged_h_0158.sdf

> <i_m_source_file_index>
5

> <r_mmod_Potential_Energy-OPLS-2005>
265.429046630859

> <r_mmod_Stretch_Energy-OPLS-2005>
87.0996322631836

> <r_mmod_Bend_Energy-OPLS-2005>
185.710586547852

> <r_mmod_Torsional_Energy-OPLS-2005>
336.824829101562

> <r_mmod_Improper_Torsional_Energy-OPLS-2005>
14.4926452636719

> <r_mmod_Van_der_Waal_Energy-OPLS-2005>
149.732192993164

> <r_mmod_Electrostatic_Energy-OPLS-2005>
-363.185760498047

> <r_mmod_Solvation_Energy-OPLS-2005>
-200.275360107422

> <b_mmod_Minimization_Converged-OPLS-2005>
0

> <r_mmod_RMS_Derivative-OPLS-2005>
0.914457082748413

$$$$
5
                    3D
 Structure written by MMmdl.
163172  0  0  1  0            999 V2000
  -30.5854  -14.8404   20.4881 C   0  0  0  0  0  0
  -30.3931  -12.5165   19.4865 C   0  0  0  0  0  0
  -29.5069  -12.5423   18.2255 C   0  0  0  0  0  0
  -28.0344  -12.3198   18.6186 C   0  0  0  0  0  0
  -27.6138  -13.2183   19.8129 C   0  0  2  0  0  0
  -28.6428  -13.1990   20.9631 C   0  0  0  0  0  0
  -25.2375  -13.8044   20.5575 C   0  0  0  0  0  0
  -24.1735  -13.0348   20.9185 C   0  0  0  0  0  0
  -24.6314  -11.6818   20.8710 C   0  0  0  0  0  0
  -23.9006  -10.4229   21.0428 C   0  0  0  0  0  0
  -24.3579   -9.4168   21.9210 C   0  0  0  0  0  0
  -23.6271   -8.2200   22.0763 C   0  0  0  0  0  0
  -22.4269   -8.0231   21.3546 C   0  0  0  0  0  0
  -21.9895   -9.0190   20.4646 C   0  0  0  0  0  0
  -22.7207  -10.2072   20.3061 C   0  0  0  0  0  0
  -21.6835   -6.0719   22.5287 C   0  0  0  0  0  0
  -21.4004   -6.5621   23.8217 C   0  0  0  0  0  0
  -21.3666   -5.6788   24.9185 C   0  0  0  0  0  0
  -21.6038   -4.3036   24.7242 C   0  0  0  0  0  0
  -21.8815   -3.8138   23.4363 C   0  0  0  0  0  0
  -21.9189   -4.6949   22.3414 C   0  0  0  0  0  0
  -22.7769  -13.5142   21.1898 C   0  0  0  0  0  0
  -22.1667   -4.2135   21.0996 F   0  0  0  0  0  0
  -21.5641   -3.4539   25.7762 F   0  0  0  0  0  0
  -29.9215  -13.6162   20.3854 N   0  0  0  0  0  0
  -26.2738  -12.9241   20.2969 N   0  0  0  0  0  0
  -25.9192  -11.6406   20.5536 N   0  0  0  0  0  0
  -22.0405  -12.8160   22.0430 N   0  0  0  0  0  0
  -25.4022  -15.1786   20.4056 N   0  0  0  0  0  0
  -31.7848  -14.8072   20.1927 O   0  0  0  0  0  0
  -21.6613   -6.8850   21.4252 O   0  0  0  0  0  0
  -22.3524  -14.5508   20.6774 O   0  0  0  0  0  0
  -24.6361  -31.8459   23.1934 C   0  0  0  0  0  0
  -25.9149  -32.4701   23.8280 C   0  0  1  0  0  0
  -27.1954  -27.1635   20.2021 C   0  0  0  0  0  0
  -25.5867  -33.8494   24.2162 N   0  0  0  0  0  0
  -23.4383  -30.4650   21.5370 C   0  0  2  0  0  0
  -24.8874  -28.8989   20.1119 C   0  0  0  0  0  0
  -22.7517  -29.4518   22.4875 C   0  0  0  0  0  0
  -18.0268  -28.1374   22.8446 C   0  0  0  0  0  0
  -24.1465  -36.7239   23.2672 C   0  0  0  0  0  0
  -25.9867  -30.7348   21.3858 C   0  0  0  0  0  0
  -26.0569  -29.3460   20.7417 C   0  0  0  0  0  0
  -27.2167  -28.4934   20.7650 C   0  0  0  0  0  0
  -26.0137  -26.8091   19.5165 C   0  0  0  0  0  0
  -24.8746  -27.6444   19.4791 C   0  0  0  0  0  0
  -23.6621  -29.7974   20.1525 C   0  0  0  0  0  0
  -25.4099  -36.3000   24.0328 C   0  0  1  0  0  0
  -20.5870  -28.3664   23.1223 C   0  0  2  0  0  0
  -20.6763  -26.9366   22.5397 C   0  0  0  0  0  0
  -19.5736  -26.6349   21.5187 C   0  0  0  0  0  0
  -18.1912  -26.7923   22.1593 C   0  0  0  0  0  0
  -19.1550  -28.8835   23.2833 C   0  0  0  0  0  0
  -18.9485  -30.1441   23.8820 C   0  0  0  0  0  0
  -17.6508  -30.6586   24.0522 C   0  0  0  0  0  0
  -25.9052  -34.9395   23.5058 C   0  0  0  0  0  0
  -16.5373  -29.9106   23.6354 C   0  0  0  0  0  0
  -16.7270  -28.6539   23.0336 C   0  0  0  0  0  0
  -26.4504  -31.6599   25.0718 C   0  0  0  0  0  0
  -25.3727  -31.3758   26.1429 C   0  0  0  0  0  0
  -27.0373  -30.3013   24.6230 C   0  0  0  0  0  0
  -27.5996  -32.4454   25.7462 C   0  0  0  0  0  0
  -27.5545  -37.1763   24.8475 C   0  0  0  0  0  0
  -21.4212  -29.2982   22.3612 N   0  0  0  0  0  0
  -26.4248  -37.3730   23.9438 N   0  0  0  0  0  0
  -24.7051  -31.0400   22.0931 N   0  0  0  0  0  0
  -23.4207  -28.8062   23.2986 O   0  0  0  0  0  0
  -28.2575  -26.2089   20.2842 O   0  0  0  0  0  0
  -26.5676  -34.8883   22.4664 O   0  0  0  0  0  0
  -23.5496  -32.1269   23.7215 O   0  0  0  0  0  0
  -28.5663  -22.6661   22.0504 C   0  0  0  0  0  0
  -28.5537  -24.2438   22.0090 C   0  0  0  0  0  0
  -30.3215  -18.7650   20.3971 C   0  0  0  0  0  0
  -28.0678  -18.0626   20.7496 C   0  0  0  0  0  0
  -28.4787  -23.4581   19.7528 C   0  0  0  0  0  0
  -30.8101  -17.3523   20.9772 C   0  0  0  0  0  0
  -28.5771  -16.5529   21.0678 C   0  0  0  0  0  0
  -28.9255  -22.1545   20.6389 C   0  0  2  0  0  0
  -28.9687  -19.3645   20.9348 C   0  0  0  0  0  0
  -28.0031  -24.7241   20.6377 C   0  0  2  0  0  0
  -26.9891  -20.7524   19.9486 C   0  0  0  0  0  0
  -29.9768  -16.1202   20.7343 N   0  0  0  0  0  0
  -28.4485  -20.7060   20.2534 N   0  3  1  0  0  0
  -31.4449  -12.5981   19.2155 H   0  0  0  0  0  0
  -30.2989  -11.5430   19.9725 H   0  0  0  0  0  0
  -29.8347  -11.7911   17.5045 H   0  0  0  0  0  0
  -29.6136  -13.5059   17.7234 H   0  0  0  0  0  0
  -27.9050  -11.2678   18.8774 H   0  0  0  0  0  0
  -27.3888  -12.4979   17.7554 H   0  0  0  0  0  0
  -27.5860  -14.2174   19.3862 H   0  0  0  0  0  0
  -28.7111  -12.1944   21.3930 H   0  0  0  0  0  0
  -28.3388  -13.8592   21.7734 H   0  0  0  0  0  0
  -25.2725   -9.5647   22.4788 H   0  0  0  0  0  0
  -23.9972   -7.4596   22.7488 H   0  0  0  0  0  0
  -21.0824   -8.8707   19.8948 H   0  0  0  0  0  0
  -22.3681  -10.9610   19.6163 H   0  0  0  0  0  0
  -21.1980   -7.6136   23.9727 H   0  0  0  0  0  0
  -21.1500   -6.0511   25.9087 H   0  0  0  0  0  0
  -22.0591   -2.7598   23.2872 H   0  0  0  0  0  0
  -22.4017  -11.9805   22.4786 H   0  0  0  0  0  0
  -21.1016  -13.1203   22.2597 H   0  0  0  0  0  0
  -24.6343  -15.8233   20.5463 H   0  0  0  0  0  0
  -26.2293  -15.6249   20.0381 H   0  0  0  0  0  0
  -26.7193  -32.5306   23.0998 H   0  0  0  0  0  0
  -24.9803  -33.9583   25.0153 H   0  0  0  0  0  0
  -22.7364  -31.2872   21.3902 H   0  0  0  0  0  0
  -23.3713  -35.9600   23.3342 H   0  0  0  0  0  0
  -24.3483  -36.8870   22.2077 H   0  0  0  0  0  0
  -23.7285  -37.6452   23.6736 H   0  0  0  0  0  0
  -26.1202  -31.4891   20.6100 H   0  0  0  0  0  0
  -26.8661  -30.7982   22.0177 H   0  0  0  0  0  0
  -28.1072  -28.8217   21.2829 H   0  0  0  0  0  0
  -25.9539  -25.8480   19.0224 H   0  0  0  0  0  0
  -23.9843  -27.3020   18.9688 H   0  0  0  0  0  0
  -23.7847  -30.5745   19.3977 H   0  0  0  0  0  0
  -22.7814  -29.2301   19.8471 H   0  0  0  0  0  0
  -25.1293  -36.1790   25.0828 H   0  0  0  0  0  0
  -20.9926  -28.3286   24.1334 H   0  0  0  0  0  0
  -20.5604  -26.2260   23.3629 H   0  0  0  0  0  0
  -21.6643  -26.7327   22.1188 H   0  0  0  0  0  0
  -19.6875  -25.6243   21.1209 H   0  0  0  0  0  0
  -19.6724  -27.3146   20.6712 H   0  0  0  0  0  0
  -17.4184  -26.6610   21.4008 H   0  0  0  0  0  0
  -18.0323  -26.0099   22.9002 H   0  0  0  0  0  0
  -19.8000  -30.7244   24.2138 H   0  0  0  0  0  0
  -17.5104  -31.6261   24.5122 H   0  0  0  0  0  0
  -15.5378  -30.2988   23.7769 H   0  0  0  0  0  0
  -15.8649  -28.0886   22.7050 H   0  0  0  0  0  0
  -24.5916  -30.7056   25.7816 H   0  0  0  0  0  0
  -24.8800  -32.2904   26.4742 H   0  0  0  0  0  0
  -25.8039  -30.9064   27.0288 H   0  0  0  0  0  0
  -26.2977  -29.6748   24.1197 H   0  0  0  0  0  0
  -27.3998  -29.7297   25.4783 H   0  0  0  0  0  0
  -27.8906  -30.4273   23.9551 H   0  0  0  0  0  0
  -27.2536  -33.3825   26.1862 H   0  0  0  0  0  0
  -28.3873  -32.6893   25.0324 H   0  0  0  0  0  0
  -28.0586  -31.8688   26.5471 H   0  0  0  0  0  0
  -28.2556  -38.0063   24.7467 H   0  0  0  0  0  0
  -28.1042  -36.2569   24.6366 H   0  0  0  0  0  0
  -27.2217  -37.1457   25.8867 H   0  0  0  0  0  0
  -20.9438  -29.8713   21.6761 H   0  0  0  0  0  0
  -26.0084  -38.2765   24.1536 H   0  0  0  0  0  0
  -27.5936  -22.2780   22.3472 H   0  0  0  0  0  0
  -29.2769  -22.2991   22.7941 H   0  0  0  0  0  0
  -29.5717  -24.6154   22.1414 H   0  0  0  0  0  0
  -27.9635  -24.6455   22.8358 H   0  0  0  0  0  0
  -30.2508  -18.6621   19.3147 H   0  0  0  0  0  0
  -31.1108  -19.4902   20.5915 H   0  0  0  0  0  0
  -27.1678  -18.2073   21.3517 H   0  0  0  0  0  0
  -27.7237  -18.0772   19.7150 H   0  0  0  0  0  0
  -27.6921  -23.2208   19.0377 H   0  0  0  0  0  0
  -29.3430  -23.7523   19.1584 H   0  0  0  0  0  0
  -30.9373  -17.4315   22.0582 H   0  0  0  0  0  0
  -31.8205  -17.1871   20.5995 H   0  0  0  0  0  0
  -27.8928  -15.8927   20.5570 H   0  0  0  0  0  0
  -28.4187  -16.3552   22.1274 H   0  0  0  0  0  0
  -30.0139  -22.1163   20.5978 H   0  0  0  0  0  0
  -29.0730  -19.5693   22.0023 H   0  0  0  0  0  0
  -26.9244  -24.6055   20.7439 H   0  0  0  0  0  0
  -26.8728  -20.9800   18.8889 H   0  0  0  0  0  0
  -26.4834  -21.5514   20.4947 H   0  0  0  0  0  0
  -26.4102  -19.8486   20.1217 H   0  0  0  0  0  0
  -28.8159  -20.5923   19.3222 H   0  0  0  0  0  0
  1 25  1  0  0  0
  1 30  2  0  0  0
  1 82  1  0  0  0
  2  3  1  0  0  0
  2 25  1  0  0  0
  2 84  1  0  0  0
  2 85  1  0  0  0
  3  4  1  0  0  0
  3 86  1  0  0  0
  3 87  1  0  0  0
  4  5  1  0  0  0
  4 88  1  0  0  0
  4 89  1  0  0  0
  5  6  1  0  0  0
  5 26  1  0  0  0
  5 90  1  0  0  0
  6 25  1  0  0  0
  6 91  1  0  0  0
  6 92  1  0  0  0
  7  8  2  0  0  0
  7 26  1  0  0  0
  7 29  1  0  0  0
  8  9  1  0  0  0
  8 22  1  0  0  0
  9 10  1  0  0  0
  9 27  2  0  0  0
 10 11  2  0  0  0
 10 15  1  0  0  0
 11 12  1  0  0  0
 11 93  1  0  0  0
 12 13  2  0  0  0
 12 94  1  0  0  0
 13 14  1  0  0  0
 13 31  1  0  0  0
 14 15  2  0  0  0
 14 95  1  0  0  0
 15 96  1  0  0  0
 16 17  2  0  0  0
 16 21  1  0  0  0
 16 31  1  0  0  0
 17 18  1  0  0  0
 17 97  1  0  0  0
 18 19  2  0  0  0
 18 98  1  0  0  0
 19 20  1  0  0  0
 19 24  1  0  0  0
 20 21  2  0  0  0
 20 99  1  0  0  0
 21 23  1  0  0  0
 22 28  1  0  0  0
 22 32  2  0  0  0
 26 27  1  0  0  0
 28100  1  0  0  0
 28101  1  0  0  0
 29102  1  0  0  0
 29103  1  0  0  0
 33 34  1  0  0  0
 33 66  1  0  0  0
 33 70  2  0  0  0
 34 36  1  0  0  0
 34 59  1  0  0  0
 34104  1  0  0  0
 35 44  2  0  0  0
 35 45  1  0  0  0
 35 68  1  0  0  0
 36 56  1  0  0  0
 36105  1  0  0  0
 37 39  1  0  0  0
 37 47  1  0  0  0
 37 66  1  0  0  0
 37106  1  0  0  0
 38 43  2  0  0  0
 38 46  1  0  0  0
 38 47  1  0  0  0
 39 64  1  0  0  0
 39 67  2  0  0  0
 40 52  1  0  0  0
 40 53  2  0  0  0
 40 58  1  0  0  0
 41107  1  0  0  0
 41108  1  0  0  0
 41109  1  0  0  0
 41 48  1  0  0  0
 42 43  1  0  0  0
 42 66  1  0  0  0
 42110  1  0  0  0
 42111  1  0  0  0
 43 44  1  0  0  0
 44112  1  0  0  0
 45 46  2  0  0  0
 45113  1  0  0  0
 46114  1  0  0  0
 47115  1  0  0  0
 47116  1  0  0  0
 48 56  1  0  0  0
 48 65  1  0  0  0
 48117  1  0  0  0
 49 50  1  0  0  0
 49 53  1  0  0  0
 49 64  1  0  0  0
 49118  1  0  0  0
 50 51  1  0  0  0
 50119  1  0  0  0
 50120  1  0  0  0
 51 52  1  0  0  0
 51121  1  0  0  0
 51122  1  0  0  0
 52123  1  0  0  0
 52124  1  0  0  0
 53 54  1  0  0  0
 54 55  2  0  0  0
 54125  1  0  0  0
 55 57  1  0  0  0
 55126  1  0  0  0
 56 69  2  0  0  0
 57 58  2  0  0  0
 57127  1  0  0  0
 58128  1  0  0  0
 59 60  1  0  0  0
 59 61  1  0  0  0
 59 62  1  0  0  0
 60129  1  0  0  0
 60130  1  0  0  0
 60131  1  0  0  0
 61132  1  0  0  0
 61133  1  0  0  0
 61134  1  0  0  0
 62135  1  0  0  0
 62136  1  0  0  0
 62137  1  0  0  0
 63 65  1  0  0  0
 63138  1  0  0  0
 63139  1  0  0  0
 63140  1  0  0  0
 64141  1  0  0  0
 65142  1  0  0  0
 68 80  1  0  0  0
 71 72  1  0  0  0
 71143  1  0  0  0
 71144  1  0  0  0
 71 78  1  0  0  0
 72 80  1  0  0  0
 72145  1  0  0  0
 72146  1  0  0  0
 73 76  1  0  0  0
 73147  1  0  0  0
 73148  1  0  0  0
 73 79  1  0  0  0
 74 77  1  0  0  0
 74 79  1  0  0  0
 74149  1  0  0  0
 74150  1  0  0  0
 75 78  1  0  0  0
 75 80  1  0  0  0
 75151  1  0  0  0
 75152  1  0  0  0
 76 82  1  0  0  0
 76153  1  0  0  0
 76154  1  0  0  0
 77 82  1  0  0  0
 77155  1  0  0  0
 77156  1  0  0  0
 78 83  1  0  0  0
 78157  1  0  0  0
 79 83  1  0  0  0
 79158  1  0  0  0
 80159  1  0  0  0
 81160  1  0  0  0
 81161  1  0  0  0
 81162  1  0  0  0
 81 83  1  0  0  0
 83163  1  0  0  0
M  CHG  1  83   1
M  ISO  4   1 100  68 101  80 101  82 100
M  END
> <chiral flag>
0

> <version>
0

> <s_m_source_file>
/data/baiqing/PycharmProjects/Reinvent-master-3.2/result/LINK_invent/BTK/process_docking_weight1_custom_sum_contain_oxygen_bond_distance_aromatic_linkinvent_7_9_3/rearranged_h_0158.sdf

> <i_m_source_file_index>
6

> <r_mmod_Potential_Energy-OPLS-2005>
604.414978027344

> <r_mmod_Stretch_Energy-OPLS-2005>
198.684158325195

> <r_mmod_Bend_Energy-OPLS-2005>
319.882385253906

> <r_mmod_Torsional_Energy-OPLS-2005>
391.410125732422

> <r_mmod_Improper_Torsional_Energy-OPLS-2005>
3.90637350082397

> <r_mmod_Van_der_Waal_Energy-OPLS-2005>
130.579467773438

> <r_mmod_Electrostatic_Energy-OPLS-2005>
-142.560943603516

> <r_mmod_Solvation_Energy-OPLS-2005>
-441.624633789062

> <b_mmod_Minimization_Converged-OPLS-2005>
0

> <r_mmod_RMS_Derivative-OPLS-2005>
7.35306072235107

$$$$
6
                    3D
 Structure written by MMmdl.
171181  0  0  1  0            999 V2000
  -30.6812  -14.4367   20.5194 C   0  0  0  0  0  0
  -30.4153  -12.2667   19.4213 C   0  0  0  0  0  0
  -29.4911  -12.4680   18.2027 C   0  0  0  0  0  0
  -28.0047  -12.3516   18.6103 C   0  0  0  0  0  0
  -27.6487  -13.1830   19.8755 C   0  0  2  0  0  0
  -28.6944  -12.9785   20.9944 C   0  0  0  0  0  0
  -25.2521  -13.8053   20.5725 C   0  0  0  0  0  0
  -24.1762  -13.0339   20.9187 C   0  0  0  0  0  0
  -24.6323  -11.6819   20.8765 C   0  0  0  0  0  0
  -23.9018  -10.4223   21.0415 C   0  0  0  0  0  0
  -24.3591   -9.4153   21.9195 C   0  0  0  0  0  0
  -23.6262   -8.2206   22.0767 C   0  0  0  0  0  0
  -22.4252   -8.0251   21.3544 C   0  0  0  0  0  0
  -21.9885   -9.0213   20.4636 C   0  0  0  0  0  0
  -22.7208  -10.2082   20.3043 C   0  0  0  0  0  0
  -21.6829   -6.0737   22.5279 C   0  0  0  0  0  0
  -21.4009   -6.5655   23.8207 C   0  0  0  0  0  0
  -21.3655   -5.6812   24.9178 C   0  0  0  0  0  0
  -21.6038   -4.3072   24.7234 C   0  0  0  0  0  0
  -21.8819   -3.8157   23.4359 C   0  0  0  0  0  0
  -21.9175   -4.6971   22.3406 C   0  0  0  0  0  0
  -22.7795  -13.5158   21.1847 C   0  0  0  0  0  0
  -22.1630   -4.2159   21.0983 F   0  0  0  0  0  0
  -21.5644   -3.4552   25.7756 F   0  0  0  0  0  0
  -30.0243  -13.2563   20.4287 N   0  0  0  0  0  0
  -26.2934  -12.9174   20.3393 N   0  0  0  0  0  0
  -25.9236  -11.6366   20.5800 N   0  0  0  0  0  0
  -22.0441  -12.8143   22.0409 N   0  0  0  0  0  0
  -25.4229  -15.1757   20.4240 N   0  0  0  0  0  0
  -31.8612  -14.5937   20.1835 O   0  0  0  0  0  0
  -21.6602   -6.8873   21.4240 O   0  0  0  0  0  0
  -22.3494  -14.5469   20.6708 O   0  0  0  0  0  0
  -24.6148  -31.8673   23.2171 C   0  0  0  0  0  0
  -25.9020  -32.4834   23.8488 C   0  0  1  0  0  0
  -27.2390  -27.4634   20.0508 C   0  0  0  0  0  0
  -25.5874  -33.8641   24.2390 N   0  0  0  0  0  0
  -23.4035  -30.4937   21.5549 C   0  0  2  0  0  0
  -24.8445  -28.9643   20.1219 C   0  0  0  0  0  0
  -22.7414  -29.4648   22.5007 C   0  0  0  0  0  0
  -18.0294  -28.1328   22.8515 C   0  0  0  0  0  0
  -24.1463  -36.7350   23.2642 C   0  0  0  0  0  0
  -25.9341  -30.8336   21.3746 C   0  0  0  0  0  0
  -26.0066  -29.4725   20.7157 C   0  0  0  0  0  0
  -27.2029  -28.7213   20.6901 C   0  0  0  0  0  0
  -26.0454  -26.9547   19.4887 C   0  0  0  0  0  0
  -24.8546  -27.6974   19.5195 C   0  0  0  0  0  0
  -23.6103  -29.8313   20.1694 C   0  0  0  0  0  0
  -25.4100  -36.3150   24.0351 C   0  0  1  0  0  0
  -20.5883  -28.3633   23.1304 C   0  0  2  0  0  0
  -20.6763  -26.9370   22.5395 C   0  0  0  0  0  0
  -19.5738  -26.6368   21.5180 C   0  0  0  0  0  0
  -18.1914  -26.7896   22.1604 C   0  0  0  0  0  0
  -19.1545  -28.8808   23.2897 C   0  0  0  0  0  0
  -18.9460  -30.1409   23.8918 C   0  0  0  0  0  0
  -17.6464  -30.6555   24.0529 C   0  0  0  0  0  0
  -25.9037  -34.9490   23.5187 C   0  0  0  0  0  0
  -16.5369  -29.9032   23.6313 C   0  0  0  0  0  0
  -16.7279  -28.6415   23.0414 C   0  0  0  0  0  0
  -26.4434  -31.6634   25.0830 C   0  0  0  0  0  0
  -25.3707  -31.3651   26.1572 C   0  0  0  0  0  0
  -27.0301  -30.3113   24.6204 C   0  0  0  0  0  0
  -27.6026  -32.4329   25.7571 C   0  0  0  0  0  0
  -27.5578  -37.1834   24.8452 C   0  0  0  0  0  0
  -21.4151  -29.3025   22.3733 N   0  0  0  0  0  0
  -26.4295  -37.3841   23.9395 N   0  0  0  0  0  0
  -24.6689  -31.0805   22.1068 N   0  0  0  0  0  0
  -23.4164  -28.8185   23.3059 O   0  0  0  0  0  0
  -28.4275  -26.7692   20.0118 O   0  0  0  0  0  0
  -26.5607  -34.8923   22.4751 O   0  0  0  0  0  0
  -23.5327  -32.1376   23.7561 O   0  0  0  0  0  0
  -29.5574  -22.5443   20.0826 C   0  0  0  0  0  0
  -29.8642  -20.3386   18.3795 C   0  0  0  0  0  0
  -29.6065  -22.7501   18.6869 C   0  0  0  0  0  0
  -29.6764  -21.2582   20.6328 C   0  0  0  0  0  0
  -29.7584  -21.6325   17.8253 C   0  0  0  0  0  0
  -29.8239  -20.1491   19.7752 C   0  0  0  0  0  0
  -28.4120  -17.2389   19.5755 C   0  0  0  0  0  0
  -29.0653  -17.4799   21.9793 C   0  0  0  0  0  0
  -28.0758  -24.8219   18.4690 C   0  0  0  0  0  0
  -30.0962  -25.3753   18.8680 C   0  0  0  0  0  0
  -29.5193  -16.1844   19.4138 C   0  0  0  0  0  0
  -30.1819  -16.4364   21.7787 C   0  0  0  0  0  0
  -29.4270  -24.1737   18.1718 C   0  0  1  0  0  0
  -28.7779  -18.2356   20.6760 C   0  0  0  0  0  0
  -28.7770  -26.1546   18.7677 C   0  0  2  0  0  0
  -29.6394  -21.0928   22.1395 C   0  0  0  0  0  0
  -29.8175  -21.7866   16.3163 C   0  0  0  0  0  0
  -29.8737  -15.5089   20.6790 N   0  0  0  0  0  0
  -29.9804  -18.8944   20.2914 O   0  0  0  0  0  0
  -31.4633  -12.3608   19.1308 H   0  0  0  0  0  0
  -30.3042  -11.2612   19.8279 H   0  0  0  0  0  0
  -29.7262  -11.7331   17.4297 H   0  0  0  0  0  0
  -29.6782  -13.4420   17.7483 H   0  0  0  0  0  0
  -27.7935  -11.2966   18.7876 H   0  0  0  0  0  0
  -27.3681  -12.6458   17.7754 H   0  0  0  0  0  0
  -27.6635  -14.2248   19.5762 H   0  0  0  0  0  0
  -28.6617  -11.9550   21.3706 H   0  0  0  0  0  0
  -28.4784  -13.6193   21.8521 H   0  0  0  0  0  0
  -25.2724   -9.5650   22.4772 H   0  0  0  0  0  0
  -23.9960   -7.4615   22.7493 H   0  0  0  0  0  0
  -21.0825   -8.8731   19.8931 H   0  0  0  0  0  0
  -22.3669  -10.9644   19.6165 H   0  0  0  0  0  0
  -21.2012   -7.6163   23.9721 H   0  0  0  0  0  0
  -21.1478   -6.0547   25.9084 H   0  0  0  0  0  0
  -22.0614   -2.7618   23.2857 H   0  0  0  0  0  0
  -22.4062  -11.9799   22.4788 H   0  0  0  0  0  0
  -21.1052  -13.1164   22.2605 H   0  0  0  0  0  0
  -24.6805  -15.8457   20.5891 H   0  0  0  0  0  0
  -26.3023  -15.6085   20.1774 H   0  0  0  0  0  0
  -26.7111  -32.5516   23.1278 H   0  0  0  0  0  0
  -25.0007  -33.9807   25.0513 H   0  0  0  0  0  0
  -22.6949  -31.3123   21.4168 H   0  0  0  0  0  0
  -23.3724  -35.9674   23.3308 H   0  0  0  0  0  0
  -24.3560  -36.8978   22.2055 H   0  0  0  0  0  0
  -23.7202  -37.6556   23.6660 H   0  0  0  0  0  0
  -26.0636  -31.6055   20.6158 H   0  0  0  0  0  0
  -26.8180  -30.8718   21.9994 H   0  0  0  0  0  0
  -28.1045  -29.1096   21.1406 H   0  0  0  0  0  0
  -25.9882  -25.9827   19.0320 H   0  0  0  0  0  0
  -23.9569  -27.2841   19.0788 H   0  0  0  0  0  0
  -23.7295  -30.6054   19.4101 H   0  0  0  0  0  0
  -22.7321  -29.2574   19.8682 H   0  0  0  0  0  0
  -25.1256  -36.2084   25.0851 H   0  0  0  0  0  0
  -20.9986  -28.3159   24.1418 H   0  0  0  0  0  0
  -20.5638  -26.2226   23.3561 H   0  0  0  0  0  0
  -21.6639  -26.7358   22.1221 H   0  0  0  0  0  0
  -19.6891  -25.6284   21.1185 H   0  0  0  0  0  0
  -19.6667  -27.3190   20.6714 H   0  0  0  0  0  0
  -17.4193  -26.6705   21.3988 H   0  0  0  0  0  0
  -18.0285  -25.9993   22.8945 H   0  0  0  0  0  0
  -19.7926  -30.7218   24.2315 H   0  0  0  0  0  0
  -17.4999  -31.6256   24.5083 H   0  0  0  0  0  0
  -15.5365  -30.2953   23.7563 H   0  0  0  0  0  0
  -15.8676  -28.0670   22.7233 H   0  0  0  0  0  0
  -24.5923  -30.6965   25.7884 H   0  0  0  0  0  0
  -24.8846  -32.2745   26.5120 H   0  0  0  0  0  0
  -25.8121  -30.8771   27.0270 H   0  0  0  0  0  0
  -26.2889  -29.6895   24.1189 H   0  0  0  0  0  0
  -27.4005  -29.7365   25.4700 H   0  0  0  0  0  0
  -27.8731  -30.4512   23.9433 H   0  0  0  0  0  0
  -27.2706  -33.3610   26.2240 H   0  0  0  0  0  0
  -28.3800  -32.6918   25.0366 H   0  0  0  0  0  0
  -28.0729  -31.8382   26.5413 H   0  0  0  0  0  0
  -28.2590  -38.0128   24.7562 H   0  0  0  0  0  0
  -28.1102  -36.2691   24.6258 H   0  0  0  0  0  0
  -27.2291  -37.1484   25.8845 H   0  0  0  0  0  0
  -20.9328  -29.8766   21.6973 H   0  0  0  0  0  0
  -26.0192  -38.2912   24.1446 H   0  0  0  0  0  0
  -29.4131  -23.3830   20.7494 H   0  0  0  0  0  0
  -29.9777  -19.4779   17.7342 H   0  0  0  0  0  0
  -27.4618  -16.7679   19.8168 H   0  0  0  0  0  0
  -28.2511  -17.7563   18.6294 H   0  0  0  0  0  0
  -29.3404  -18.1824   22.7652 H   0  0  0  0  0  0
  -28.1589  -16.9847   22.3276 H   0  0  0  0  0  0
  -27.5978  -24.3981   19.3549 H   0  0  0  0  0  0
  -27.3902  -24.8396   17.6191 H   0  0  0  0  0  0
  -30.9207  -25.8052   18.2979 H   0  0  0  0  0  0
  -30.3914  -25.1889   19.9020 H   0  0  0  0  0  0
  -30.4099  -16.6471   18.9885 H   0  0  0  0  0  0
  -29.1942  -15.4595   18.6686 H   0  0  0  0  0  0
  -30.3272  -15.8892   22.7114 H   0  0  0  0  0  0
  -31.1291  -16.9385   21.5722 H   0  0  0  0  0  0
  -29.6429  -24.2445   17.1049 H   0  0  0  0  0  0
  -27.9564  -18.9415   20.8232 H   0  0  0  0  0  0
  -28.7807  -26.8427   17.9203 H   0  0  0  0  0  0
  -29.8660  -22.0337   22.6398 H   0  0  0  0  0  0
  -30.3744  -20.3596   22.4716 H   0  0  0  0  0  0
  -28.6496  -20.7708   22.4638 H   0  0  0  0  0  0
  -29.8412  -20.8173   15.8182 H   0  0  0  0  0  0
  -30.7186  -22.3293   16.0297 H   0  0  0  0  0  0
  -28.9472  -22.3249   15.9425 H   0  0  0  0  0  0
  1 25  1  0  0  0
  1 30  2  0  0  0
  1 88  1  0  0  0
  2  3  1  0  0  0
  2 25  1  0  0  0
  2 90  1  0  0  0
  2 91  1  0  0  0
  3  4  1  0  0  0
  3 92  1  0  0  0
  3 93  1  0  0  0
  4  5  1  0  0  0
  4 94  1  0  0  0
  4 95  1  0  0  0
  5  6  1  0  0  0
  5 26  1  0  0  0
  5 96  1  0  0  0
  6 25  1  0  0  0
  6 97  1  0  0  0
  6 98  1  0  0  0
  7  8  2  0  0  0
  7 26  1  0  0  0
  7 29  1  0  0  0
  8  9  1  0  0  0
  8 22  1  0  0  0
  9 10  1  0  0  0
  9 27  2  0  0  0
 10 11  2  0  0  0
 10 15  1  0  0  0
 11 12  1  0  0  0
 11 99  1  0  0  0
 12 13  2  0  0  0
 12100  1  0  0  0
 13 14  1  0  0  0
 13 31  1  0  0  0
 14 15  2  0  0  0
 14101  1  0  0  0
 15102  1  0  0  0
 16 17  2  0  0  0
 16 21  1  0  0  0
 16 31  1  0  0  0
 17 18  1  0  0  0
 17103  1  0  0  0
 18 19  2  0  0  0
 18104  1  0  0  0
 19 20  1  0  0  0
 19 24  1  0  0  0
 20 21  2  0  0  0
 20105  1  0  0  0
 21 23  1  0  0  0
 22 28  1  0  0  0
 22 32  2  0  0  0
 26 27  1  0  0  0
 28106  1  0  0  0
 28107  1  0  0  0
 29108  1  0  0  0
 29109  1  0  0  0
 33 34  1  0  0  0
 33 66  1  0  0  0
 33 70  2  0  0  0
 34 36  1  0  0  0
 34 59  1  0  0  0
 34110  1  0  0  0
 35 44  2  0  0  0
 35 45  1  0  0  0
 35 68  1  0  0  0
 36 56  1  0  0  0
 36111  1  0  0  0
 37 39  1  0  0  0
 37 47  1  0  0  0
 37 66  1  0  0  0
 37112  1  0  0  0
 38 43  2  0  0  0
 38 46  1  0  0  0
 38 47  1  0  0  0
 39 64  1  0  0  0
 39 67  2  0  0  0
 40 52  1  0  0  0
 40 53  2  0  0  0
 40 58  1  0  0  0
 41113  1  0  0  0
 41114  1  0  0  0
 41115  1  0  0  0
 41 48  1  0  0  0
 42 43  1  0  0  0
 42 66  1  0  0  0
 42116  1  0  0  0
 42117  1  0  0  0
 43 44  1  0  0  0
 44118  1  0  0  0
 45 46  2  0  0  0
 45119  1  0  0  0
 46120  1  0  0  0
 47121  1  0  0  0
 47122  1  0  0  0
 48 56  1  0  0  0
 48 65  1  0  0  0
 48123  1  0  0  0
 49 50  1  0  0  0
 49 53  1  0  0  0
 49 64  1  0  0  0
 49124  1  0  0  0
 50 51  1  0  0  0
 50125  1  0  0  0
 50126  1  0  0  0
 51 52  1  0  0  0
 51127  1  0  0  0
 51128  1  0  0  0
 52129  1  0  0  0
 52130  1  0  0  0
 53 54  1  0  0  0
 54 55  2  0  0  0
 54131  1  0  0  0
 55 57  1  0  0  0
 55132  1  0  0  0
 56 69  2  0  0  0
 57 58  2  0  0  0
 57133  1  0  0  0
 58134  1  0  0  0
 59 60  1  0  0  0
 59 61  1  0  0  0
 59 62  1  0  0  0
 60135  1  0  0  0
 60136  1  0  0  0
 60137  1  0  0  0
 61138  1  0  0  0
 61139  1  0  0  0
 61140  1  0  0  0
 62141  1  0  0  0
 62142  1  0  0  0
 62143  1  0  0  0
 63 65  1  0  0  0
 63144  1  0  0  0
 63145  1  0  0  0
 63146  1  0  0  0
 64147  1  0  0  0
 65148  1  0  0  0
 68 85  1  0  0  0
 71 73  2  0  0  0
 71 74  1  0  0  0
 71149  1  0  0  0
 72 75  2  0  0  0
 72 76  1  0  0  0
 72150  1  0  0  0
 73 75  1  0  0  0
 73 83  1  0  0  0
 74 76  2  0  0  0
 74 86  1  0  0  0
 75 87  1  0  0  0
 76 89  1  0  0  0
 77 81  1  0  0  0
 77 84  1  0  0  0
 77151  1  0  0  0
 77152  1  0  0  0
 78 82  1  0  0  0
 78 84  1  0  0  0
 78153  1  0  0  0
 78154  1  0  0  0
 79 83  1  0  0  0
 79 85  1  0  0  0
 79155  1  0  0  0
 79156  1  0  0  0
 80 83  1  0  0  0
 80 85  1  0  0  0
 80157  1  0  0  0
 80158  1  0  0  0
 81 88  1  0  0  0
 81159  1  0  0  0
 81160  1  0  0  0
 82 88  1  0  0  0
 82161  1  0  0  0
 82162  1  0  0  0
 83163  1  0  0  0
 84 89  1  0  0  0
 84164  1  0  0  0
 85165  1  0  0  0
 86166  1  0  0  0
 86167  1  0  0  0
 86168  1  0  0  0
 87169  1  0  0  0
 87170  1  0  0  0
 87171  1  0  0  0
M  ISO  4   1 100  68 101  85 101  88 100
M  END
> <chiral flag>
0

> <version>
0

> <s_m_source_file>
/data/baiqing/PycharmProjects/Reinvent-master-3.2/result/LINK_invent/BTK/process_docking_weight1_custom_sum_contain_oxygen_bond_distance_aromatic_linkinvent_7_9_3/rearranged_h_0158.sdf

> <i_m_source_file_index>
7

> <r_mmod_Potential_Energy-OPLS-2005>
205.010192871094

> <r_mmod_Stretch_Energy-OPLS-2005>
33.7285041809082

> <r_mmod_Bend_Energy-OPLS-2005>
109.447174072266

> <r_mmod_Torsional_Energy-OPLS-2005>
397.779998779297

> <r_mmod_Improper_Torsional_Energy-OPLS-2005>
12.2146301269531

> <r_mmod_Van_der_Waal_Energy-OPLS-2005>
160.037124633789

> <r_mmod_Electrostatic_Energy-OPLS-2005>
-326.06298828125

> <r_mmod_Solvation_Energy-OPLS-2005>
-197.08366394043

> <b_mmod_Minimization_Converged-OPLS-2005>
0

> <r_mmod_RMS_Derivative-OPLS-2005>
3.87161588668823

$$$$
7
                    3D
 Structure written by MMmdl.
171181  0  0  1  0            999 V2000
  -30.6880  -14.5188   20.5040 C   0  0  0  0  0  0
  -30.4210  -12.3179   19.4284 C   0  0  0  0  0  0
  -29.4933  -12.4886   18.2077 C   0  0  0  0  0  0
  -28.0117  -12.3613   18.6203 C   0  0  0  0  0  0
  -27.6562  -13.2088   19.8726 C   0  0  2  0  0  0
  -28.7065  -13.0288   20.9922 C   0  0  0  0  0  0
  -25.2589  -13.8171   20.5745 C   0  0  0  0  0  0
  -24.1842  -13.0450   20.9230 C   0  0  0  0  0  0
  -24.6396  -11.6916   20.8776 C   0  0  0  0  0  0
  -23.9063  -10.4298   21.0434 C   0  0  0  0  0  0
  -24.3617   -9.4202   21.9203 C   0  0  0  0  0  0
  -23.6307   -8.2229   22.0749 C   0  0  0  0  0  0
  -22.4281   -8.0284   21.3544 C   0  0  0  0  0  0
  -21.9922   -9.0256   20.4638 C   0  0  0  0  0  0
  -22.7246  -10.2144   20.3072 C   0  0  0  0  0  0
  -21.6853   -6.0757   22.5294 C   0  0  0  0  0  0
  -21.4001   -6.5657   23.8230 C   0  0  0  0  0  0
  -21.3664   -5.6810   24.9195 C   0  0  0  0  0  0
  -21.6054   -4.3076   24.7240 C   0  0  0  0  0  0
  -21.8815   -3.8166   23.4358 C   0  0  0  0  0  0
  -21.9184   -4.6980   22.3417 C   0  0  0  0  0  0
  -22.7849  -13.5218   21.1898 C   0  0  0  0  0  0
  -22.1649   -4.2173   21.0990 F   0  0  0  0  0  0
  -21.5638   -3.4545   25.7747 F   0  0  0  0  0  0
  -30.0248  -13.3308   20.4178 N   0  0  0  0  0  0
  -26.3015  -12.9340   20.3423 N   0  0  0  0  0  0
  -25.9324  -11.6497   20.5811 N   0  0  0  0  0  0
  -22.0487  -12.8203   22.0433 N   0  0  0  0  0  0
  -25.4312  -15.1891   20.4144 N   0  0  0  0  0  0
  -31.8709  -14.6290   20.1678 O   0  0  0  0  0  0
  -21.6637   -6.8890   21.4255 O   0  0  0  0  0  0
  -22.3538  -14.5529   20.6748 O   0  0  0  0  0  0
  -24.6169  -31.8685   23.2116 C   0  0  0  0  0  0
  -25.9055  -32.4815   23.8401 C   0  0  1  0  0  0
  -27.2176  -27.4151   20.1013 C   0  0  0  0  0  0
  -25.5911  -33.8617   24.2331 N   0  0  0  0  0  0
  -23.4024  -30.4969   21.5519 C   0  0  2  0  0  0
  -24.8438  -28.9626   20.1140 C   0  0  0  0  0  0
  -22.7410  -29.4675   22.4982 C   0  0  0  0  0  0
  -18.0275  -28.1364   22.8500 C   0  0  0  0  0  0
  -24.1486  -36.7312   23.2636 C   0  0  0  0  0  0
  -25.9339  -30.8314   21.3641 C   0  0  0  0  0  0
  -26.0075  -29.4658   20.7078 C   0  0  0  0  0  0
  -27.1995  -28.7022   20.6926 C   0  0  0  0  0  0
  -26.0313  -26.9353   19.4991 C   0  0  0  0  0  0
  -24.8511  -27.6985   19.5060 C   0  0  0  0  0  0
  -23.6089  -29.8334   20.1649 C   0  0  0  0  0  0
  -25.4107  -36.3108   24.0334 C   0  0  1  0  0  0
  -20.5869  -28.3656   23.1306 C   0  0  2  0  0  0
  -20.6757  -26.9391   22.5400 C   0  0  0  0  0  0
  -19.5734  -26.6379   21.5197 C   0  0  0  0  0  0
  -18.1922  -26.7916   22.1623 C   0  0  0  0  0  0
  -19.1528  -28.8822   23.2906 C   0  0  0  0  0  0
  -18.9454  -30.1430   23.8920 C   0  0  0  0  0  0
  -17.6456  -30.6577   24.0565 C   0  0  0  0  0  0
  -25.9035  -34.9469   23.5125 C   0  0  0  0  0  0
  -16.5347  -29.9082   23.6320 C   0  0  0  0  0  0
  -16.7266  -28.6491   23.0359 C   0  0  0  0  0  0
  -26.4477  -31.6604   25.0741 C   0  0  0  0  0  0
  -25.3733  -31.3717   26.1484 C   0  0  0  0  0  0
  -27.0311  -30.3048   24.6118 C   0  0  0  0  0  0
  -27.6052  -32.4318   25.7509 C   0  0  0  0  0  0
  -27.5577  -37.1813   24.8464 C   0  0  0  0  0  0
  -21.4137  -29.3049   22.3721 N   0  0  0  0  0  0
  -26.4291  -37.3793   23.9409 N   0  0  0  0  0  0
  -24.6691  -31.0794   22.1005 N   0  0  0  0  0  0
  -23.4185  -28.8199   23.3008 O   0  0  0  0  0  0
  -28.3780  -26.6626   20.1237 O   0  0  0  0  0  0
  -26.5592  -34.8923   22.4685 O   0  0  0  0  0  0
  -23.5355  -32.1425   23.7514 O   0  0  0  0  0  0
  -29.3902  -20.7839   21.5088 C   0  0  0  0  0  0
  -29.1423  -22.2554   19.1560 C   0  0  0  0  0  0
  -29.1931  -20.0769   20.2967 C   0  0  0  0  0  0
  -29.3767  -22.9566   20.3579 C   0  0  0  0  0  0
  -29.4554  -22.1969   21.5543 C   0  0  0  0  0  0
  -29.0091  -20.8410   19.1102 C   0  0  0  0  0  0
  -30.7264  -25.0088   19.4927 C   0  0  0  0  0  0
  -30.7401  -25.1353   20.9866 C   0  0  0  0  0  0
  -30.1172  -17.8643   19.2888 C   0  0  0  0  0  0
  -29.3404  -17.7953   21.6221 C   0  0  0  0  0  0
  -29.8209  -16.3598   19.1364 C   0  0  0  0  0  0
  -29.1863  -16.2467   21.5467 C   0  0  0  0  0  0
  -29.1224  -18.5228   20.2689 C   0  0  0  0  0  0
  -29.5547  -24.4734   20.2969 C   0  0  0  0  0  0
  -29.6179  -22.8605   22.9123 C   0  0  0  0  0  0
  -28.6026  -20.9085   16.7300 C   0  0  0  0  0  0
  -28.2267  -25.2254   20.1482 C   0  0  0  0  0  0
  -29.8847  -15.6151   20.4074 N   0  0  0  0  0  0
  -28.6905  -20.1731   17.9455 O   0  0  0  0  0  0
  -31.4653  -12.4124   19.1250 H   0  0  0  0  0  0
  -30.3228  -11.3178   19.8544 H   0  0  0  0  0  0
  -29.7290  -11.7423   17.4481 H   0  0  0  0  0  0
  -29.6669  -13.4606   17.7425 H   0  0  0  0  0  0
  -27.8124  -11.3064   18.8144 H   0  0  0  0  0  0
  -27.3658  -12.6416   17.7855 H   0  0  0  0  0  0
  -27.6789  -14.2506   19.5555 H   0  0  0  0  0  0
  -28.6946  -12.0065   21.3738 H   0  0  0  0  0  0
  -28.4830  -13.6650   21.8482 H   0  0  0  0  0  0
  -25.2756   -9.5699   22.4772 H   0  0  0  0  0  0
  -24.0050   -7.4615   22.7433 H   0  0  0  0  0  0
  -21.0874   -8.8765   19.8911 H   0  0  0  0  0  0
  -22.3713  -10.9689   19.6179 H   0  0  0  0  0  0
  -21.1967   -7.6158   23.9751 H   0  0  0  0  0  0
  -21.1498   -6.0530   25.9106 H   0  0  0  0  0  0
  -22.0581   -2.7622   23.2857 H   0  0  0  0  0  0
  -22.4100  -11.9871   22.4850 H   0  0  0  0  0  0
  -21.1081  -13.1188   22.2599 H   0  0  0  0  0  0
  -24.6654  -15.8448   20.5248 H   0  0  0  0  0  0
  -26.2865  -15.6282   20.0999 H   0  0  0  0  0  0
  -26.7130  -32.5523   23.1165 H   0  0  0  0  0  0
  -25.0086  -33.9781   25.0489 H   0  0  0  0  0  0
  -22.6914  -31.3152   21.4157 H   0  0  0  0  0  0
  -23.3740  -35.9650   23.3300 H   0  0  0  0  0  0
  -24.3575  -36.8925   22.2048 H   0  0  0  0  0  0
  -23.7235  -37.6517   23.6648 H   0  0  0  0  0  0
  -26.0484  -31.5984   20.5971 H   0  0  0  0  0  0
  -26.8204  -30.8809   21.9842 H   0  0  0  0  0  0
  -28.0977  -29.0882   21.1528 H   0  0  0  0  0  0
  -25.9863  -25.9743   19.0124 H   0  0  0  0  0  0
  -23.9554  -27.3077   19.0426 H   0  0  0  0  0  0
  -23.7199  -30.6096   19.4074 H   0  0  0  0  0  0
  -22.7305  -29.2588   19.8664 H   0  0  0  0  0  0
  -25.1281  -36.1969   25.0825 H   0  0  0  0  0  0
  -20.9974  -28.3210   24.1421 H   0  0  0  0  0  0
  -20.5639  -26.2272   23.3590 H   0  0  0  0  0  0
  -21.6630  -26.7419   22.1206 H   0  0  0  0  0  0
  -19.6894  -25.6291   21.1224 H   0  0  0  0  0  0
  -19.6668  -27.3191   20.6726 H   0  0  0  0  0  0
  -17.4186  -26.6665   21.4034 H   0  0  0  0  0  0
  -18.0336  -26.0045   22.9009 H   0  0  0  0  0  0
  -19.7930  -30.7235   24.2315 H   0  0  0  0  0  0
  -17.5013  -31.6264   24.5151 H   0  0  0  0  0  0
  -15.5351  -30.2993   23.7619 H   0  0  0  0  0  0
  -15.8666  -28.0802   22.7078 H   0  0  0  0  0  0
  -24.5887  -30.7093   25.7811 H   0  0  0  0  0  0
  -24.8957  -32.2888   26.4952 H   0  0  0  0  0  0
  -25.8080  -30.8860   27.0231 H   0  0  0  0  0  0
  -26.2872  -29.6820   24.1145 H   0  0  0  0  0  0
  -27.4053  -29.7277   25.4585 H   0  0  0  0  0  0
  -27.8716  -30.4373   23.9297 H   0  0  0  0  0  0
  -27.2668  -33.3598   26.2130 H   0  0  0  0  0  0
  -28.3851  -32.6906   25.0334 H   0  0  0  0  0  0
  -28.0732  -31.8412   26.5395 H   0  0  0  0  0  0
  -28.2597  -38.0110   24.7512 H   0  0  0  0  0  0
  -28.1073  -36.2640   24.6291 H   0  0  0  0  0  0
  -27.2299  -37.1464   25.8870 H   0  0  0  0  0  0
  -20.9277  -29.8814   21.6986 H   0  0  0  0  0  0
  -26.0176  -38.2871   24.1408 H   0  0  0  0  0  0
  -29.4813  -20.2437   22.4396 H   0  0  0  0  0  0
  -29.0564  -22.8475   18.2569 H   0  0  0  0  0  0
  -31.4044  -24.2845   19.0443 H   0  0  0  0  0  0
  -30.5813  -25.9249   18.9239 H   0  0  0  0  0  0
  -30.5886  -26.1266   21.4081 H   0  0  0  0  0  0
  -31.4586  -24.5148   21.5167 H   0  0  0  0  0  0
  -30.0657  -18.3086   18.2980 H   0  0  0  0  0  0
  -31.1413  -18.0210   19.6278 H   0  0  0  0  0  0
  -30.3347  -18.0347   22.0020 H   0  0  0  0  0  0
  -28.6329  -18.1664   22.3629 H   0  0  0  0  0  0
  -30.4938  -15.9308   18.3905 H   0  0  0  0  0  0
  -28.8189  -16.2321   18.7244 H   0  0  0  0  0  0
  -28.1290  -15.9963   21.4651 H   0  0  0  0  0  0
  -29.5277  -15.8097   22.4878 H   0  0  0  0  0  0
  -28.1079  -18.2952   19.9354 H   0  0  0  0  0  0
  -29.1252  -22.2761   23.6912 H   0  0  0  0  0  0
  -29.1791  -23.8575   22.9344 H   0  0  0  0  0  0
  -30.6734  -22.9412   23.1720 H   0  0  0  0  0  0
  -28.4002  -20.2213   15.9093 H   0  0  0  0  0  0
  -29.5380  -21.4211   16.4997 H   0  0  0  0  0  0
  -27.7909  -21.6378   16.7524 H   0  0  0  0  0  0
  -27.5667  -24.9368   20.9687 H   0  0  0  0  0  0
  -27.7738  -24.8780   19.2200 H   0  0  0  0  0  0
  1 25  1  0  0  0
  1 30  2  0  0  0
  1 88  1  0  0  0
  2  3  1  0  0  0
  2 25  1  0  0  0
  2 90  1  0  0  0
  2 91  1  0  0  0
  3  4  1  0  0  0
  3 92  1  0  0  0
  3 93  1  0  0  0
  4  5  1  0  0  0
  4 94  1  0  0  0
  4 95  1  0  0  0
  5  6  1  0  0  0
  5 26  1  0  0  0
  5 96  1  0  0  0
  6 25  1  0  0  0
  6 97  1  0  0  0
  6 98  1  0  0  0
  7  8  2  0  0  0
  7 26  1  0  0  0
  7 29  1  0  0  0
  8  9  1  0  0  0
  8 22  1  0  0  0
  9 10  1  0  0  0
  9 27  2  0  0  0
 10 11  2  0  0  0
 10 15  1  0  0  0
 11 12  1  0  0  0
 11 99  1  0  0  0
 12 13  2  0  0  0
 12100  1  0  0  0
 13 14  1  0  0  0
 13 31  1  0  0  0
 14 15  2  0  0  0
 14101  1  0  0  0
 15102  1  0  0  0
 16 17  2  0  0  0
 16 21  1  0  0  0
 16 31  1  0  0  0
 17 18  1  0  0  0
 17103  1  0  0  0
 18 19  2  0  0  0
 18104  1  0  0  0
 19 20  1  0  0  0
 19 24  1  0  0  0
 20 21  2  0  0  0
 20105  1  0  0  0
 21 23  1  0  0  0
 22 28  1  0  0  0
 22 32  2  0  0  0
 26 27  1  0  0  0
 28106  1  0  0  0
 28107  1  0  0  0
 29108  1  0  0  0
 29109  1  0  0  0
 33 34  1  0  0  0
 33 66  1  0  0  0
 33 70  2  0  0  0
 34 36  1  0  0  0
 34 59  1  0  0  0
 34110  1  0  0  0
 35 44  2  0  0  0
 35 45  1  0  0  0
 35 68  1  0  0  0
 36 56  1  0  0  0
 36111  1  0  0  0
 37 39  1  0  0  0
 37 47  1  0  0  0
 37 66  1  0  0  0
 37112  1  0  0  0
 38 43  2  0  0  0
 38 46  1  0  0  0
 38 47  1  0  0  0
 39 64  1  0  0  0
 39 67  2  0  0  0
 40 52  1  0  0  0
 40 53  2  0  0  0
 40 58  1  0  0  0
 41113  1  0  0  0
 41114  1  0  0  0
 41115  1  0  0  0
 41 48  1  0  0  0
 42 43  1  0  0  0
 42 66  1  0  0  0
 42116  1  0  0  0
 42117  1  0  0  0
 43 44  1  0  0  0
 44118  1  0  0  0
 45 46  2  0  0  0
 45119  1  0  0  0
 46120  1  0  0  0
 47121  1  0  0  0
 47122  1  0  0  0
 48 56  1  0  0  0
 48 65  1  0  0  0
 48123  1  0  0  0
 49 50  1  0  0  0
 49 53  1  0  0  0
 49 64  1  0  0  0
 49124  1  0  0  0
 50 51  1  0  0  0
 50125  1  0  0  0
 50126  1  0  0  0
 51 52  1  0  0  0
 51127  1  0  0  0
 51128  1  0  0  0
 52129  1  0  0  0
 52130  1  0  0  0
 53 54  1  0  0  0
 54 55  2  0  0  0
 54131  1  0  0  0
 55 57  1  0  0  0
 55132  1  0  0  0
 56 69  2  0  0  0
 57 58  2  0  0  0
 57133  1  0  0  0
 58134  1  0  0  0
 59 60  1  0  0  0
 59 61  1  0  0  0
 59 62  1  0  0  0
 60135  1  0  0  0
 60136  1  0  0  0
 60137  1  0  0  0
 61138  1  0  0  0
 61139  1  0  0  0
 61140  1  0  0  0
 62141  1  0  0  0
 62142  1  0  0  0
 62143  1  0  0  0
 63 65  1  0  0  0
 63144  1  0  0  0
 63145  1  0  0  0
 63146  1  0  0  0
 64147  1  0  0  0
 65148  1  0  0  0
 68 87  1  0  0  0
 71 73  2  0  0  0
 71 75  1  0  0  0
 71149  1  0  0  0
 72 74  1  0  0  0
 72 76  2  0  0  0
 72150  1  0  0  0
 73 76  1  0  0  0
 73 83  1  0  0  0
 74 75  2  0  0  0
 74 84  1  0  0  0
 75 85  1  0  0  0
 76 89  1  0  0  0
 77 78  1  0  0  0
 77 84  1  0  0  0
 77151  1  0  0  0
 77152  1  0  0  0
 78 84  1  0  0  0
 78153  1  0  0  0
 78154  1  0  0  0
 79 81  1  0  0  0
 79 83  1  0  0  0
 79155  1  0  0  0
 79156  1  0  0  0
 80 82  1  0  0  0
 80 83  1  0  0  0
 80157  1  0  0  0
 80158  1  0  0  0
 81 88  1  0  0  0
 81159  1  0  0  0
 81160  1  0  0  0
 82 88  1  0  0  0
 82161  1  0  0  0
 82162  1  0  0  0
 83163  1  0  0  0
 84 87  1  0  0  0
 85164  1  0  0  0
 85165  1  0  0  0
 85166  1  0  0  0
 86 89  1  0  0  0
 86167  1  0  0  0
 86168  1  0  0  0
 86169  1  0  0  0
 87170  1  0  0  0
 87171  1  0  0  0
M  ISO  4   1 100  68 101  87 101  88 100
M  END
> <chiral flag>
0

> <version>
0

> <s_m_source_file>
/data/baiqing/PycharmProjects/Reinvent-master-3.2/result/LINK_invent/BTK/process_docking_weight1_custom_sum_contain_oxygen_bond_distance_aromatic_linkinvent_7_9_3/rearranged_h_0158.sdf

> <i_m_source_file_index>
8

> <r_mmod_Potential_Energy-OPLS-2005>
245.394470214844

> <r_mmod_Stretch_Energy-OPLS-2005>
47.977653503418

> <r_mmod_Bend_Energy-OPLS-2005>
112.794212341309

> <r_mmod_Torsional_Energy-OPLS-2005>
370.059020996094

> <r_mmod_Improper_Torsional_Energy-OPLS-2005>
19.2285537719727

> <r_mmod_Van_der_Waal_Energy-OPLS-2005>
161.963653564453

> <r_mmod_Electrostatic_Energy-OPLS-2005>
-293.869171142578

> <r_mmod_Solvation_Energy-OPLS-2005>
-193.904296875

> <b_mmod_Minimization_Converged-OPLS-2005>
0

> <r_mmod_RMS_Derivative-OPLS-2005>
2.37893533706665

$$$$
8
                    3D
 Structure written by MMmdl.
181190  0  0  1  0            999 V2000
  -30.7302  -14.4082   20.5867 C   0  0  0  0  0  0
  -30.4136  -12.2753   19.3979 C   0  0  0  0  0  0
  -29.4900  -12.5165   18.1896 C   0  0  0  0  0  0
  -28.0052  -12.3970   18.5967 C   0  0  0  0  0  0
  -27.6663  -13.2053   19.8775 C   0  0  2  0  0  0
  -28.7105  -12.9493   20.9863 C   0  0  0  0  0  0
  -25.2616  -13.8140   20.5691 C   0  0  0  0  0  0
  -24.1854  -13.0410   20.9153 C   0  0  0  0  0  0
  -24.6403  -11.6892   20.8691 C   0  0  0  0  0  0
  -23.9074  -10.4283   21.0359 C   0  0  0  0  0  0
  -24.3621   -9.4211   21.9129 C   0  0  0  0  0  0
  -23.6309   -8.2250   22.0719 C   0  0  0  0  0  0
  -22.4289   -8.0254   21.3527 C   0  0  0  0  0  0
  -21.9927   -9.0219   20.4628 C   0  0  0  0  0  0
  -22.7240  -10.2109   20.3016 C   0  0  0  0  0  0
  -21.6872   -6.0717   22.5262 C   0  0  0  0  0  0
  -21.4029   -6.5628   23.8186 C   0  0  0  0  0  0
  -21.3664   -5.6783   24.9154 C   0  0  0  0  0  0
  -21.6045   -4.3040   24.7220 C   0  0  0  0  0  0
  -21.8828   -3.8135   23.4338 C   0  0  0  0  0  0
  -21.9214   -4.6944   22.3392 C   0  0  0  0  0  0
  -22.7884  -13.5188   21.1830 C   0  0  0  0  0  0
  -22.1662   -4.2126   21.0978 F   0  0  0  0  0  0
  -21.5642   -3.4538   25.7743 F   0  0  0  0  0  0
  -30.0477  -13.2448   20.4378 N   0  0  0  0  0  0
  -26.3071  -12.9308   20.3411 N   0  0  0  0  0  0
  -25.9341  -11.6478   20.5771 N   0  0  0  0  0  0
  -22.0545  -12.8176   22.0403 N   0  0  0  0  0  0
  -25.4328  -15.1859   20.4105 N   0  0  0  0  0  0
  -31.8392  -14.6185   20.0933 O   0  0  0  0  0  0
  -21.6661   -6.8855   21.4233 O   0  0  0  0  0  0
  -22.3557  -14.5491   20.6659 O   0  0  0  0  0  0
  -24.6084  -31.8700   23.2120 C   0  0  0  0  0  0
  -25.8984  -32.4845   23.8416 C   0  0  1  0  0  0
  -27.2440  -27.4691   20.0799 C   0  0  0  0  0  0
  -25.5865  -33.8648   24.2355 N   0  0  0  0  0  0
  -23.3975  -30.4952   21.5462 C   0  0  2  0  0  0
  -24.8497  -28.9616   20.1151 C   0  0  0  0  0  0
  -22.7351  -29.4704   22.4928 C   0  0  0  0  0  0
  -18.0262  -28.1378   22.8478 C   0  0  0  0  0  0
  -24.1477  -36.7332   23.2639 C   0  0  0  0  0  0
  -25.9218  -30.8419   21.3655 C   0  0  0  0  0  0
  -26.0053  -29.4734   20.7212 C   0  0  0  0  0  0
  -27.2000  -28.7232   20.7239 C   0  0  0  0  0  0
  -26.0688  -26.9554   19.4910 C   0  0  0  0  0  0
  -24.8757  -27.6956   19.5025 C   0  0  0  0  0  0
  -23.6095  -29.8232   20.1619 C   0  0  0  0  0  0
  -25.4090  -36.3130   24.0347 C   0  0  1  0  0  0
  -20.5850  -28.3687   23.1288 C   0  0  2  0  0  0
  -20.6744  -26.9425   22.5391 C   0  0  0  0  0  0
  -19.5733  -26.6390   21.5183 C   0  0  0  0  0  0
  -18.1917  -26.7925   22.1606 C   0  0  0  0  0  0
  -19.1514  -28.8837   23.2895 C   0  0  0  0  0  0
  -18.9459  -30.1437   23.8921 C   0  0  0  0  0  0
  -17.6476  -30.6592   24.0585 C   0  0  0  0  0  0
  -25.9003  -34.9495   23.5141 C   0  0  0  0  0  0
  -16.5355  -29.9117   23.6332 C   0  0  0  0  0  0
  -16.7255  -28.6522   23.0341 C   0  0  0  0  0  0
  -26.4452  -31.6605   25.0724 C   0  0  0  0  0  0
  -25.3732  -31.3693   26.1481 C   0  0  0  0  0  0
  -27.0308  -30.3060   24.6085 C   0  0  0  0  0  0
  -27.6062  -32.4291   25.7470 C   0  0  0  0  0  0
  -27.5579  -37.1822   24.8464 C   0  0  0  0  0  0
  -21.4091  -29.3070   22.3661 N   0  0  0  0  0  0
  -26.4298  -37.3807   23.9406 N   0  0  0  0  0  0
  -24.6592  -31.0819   22.1012 N   0  0  0  0  0  0
  -23.4143  -28.8228   23.2945 O   0  0  0  0  0  0
  -28.4110  -26.7471   20.0488 O   0  0  0  0  0  0
  -26.5577  -34.8941   22.4706 O   0  0  0  0  0  0
  -23.5297  -32.1452   23.7527 O   0  0  0  0  0  0
  -29.7657  -20.5181   18.2327 C   0  0  0  0  0  0
  -31.9510  -19.4901   18.1518 C   0  0  0  0  0  0
  -30.0908  -21.3458   17.1354 C   0  0  0  0  0  0
  -31.3909  -21.2695   16.5545 C   0  0  0  0  0  0
  -30.6777  -19.5731   18.7489 C   0  0  0  0  0  0
  -32.3353  -20.3599   17.1029 C   0  0  0  0  0  0
  -28.9385  -17.5555   21.3514 C   0  0  0  0  0  0
  -29.0621  -18.8317   20.5173 C   0  0  0  0  0  0
  -30.8973  -17.4080   19.9582 C   0  0  0  0  0  0
  -30.2832  -16.8159   21.2385 C   0  0  2  0  0  0
  -32.2956  -21.4507   14.1385 C   0  0  0  0  0  0
  -32.8349  -23.2453   15.8635 C   0  0  0  0  0  0
  -34.6684  -19.9195   17.4658 C   0  0  0  0  0  0
  -28.9948  -22.2896   16.6291 C   0  0  0  0  0  0
  -29.2229  -23.7773   16.9751 C   0  0  0  0  0  0
  -29.9318  -25.3292   18.7927 C   0  0  0  0  0  0
  -28.9266  -26.4939   18.7421 C   0  0  0  0  0  0
  -31.8125  -22.1941   15.3965 C   0  0  0  0  0  0
  -30.3507  -18.7504   19.8474 N   0  0  0  0  0  0
  -30.0312  -15.3743   21.1992 N   0  0  0  0  0  0
  -29.3421  -24.0153   18.4324 N   0  3  0  0  0  0
  -33.6217  -20.3623   16.6092 O   0  0  0  0  0  0
  -31.4566  -12.3721   19.0960 H   0  0  0  0  0  0
  -30.3069  -11.2539   19.7678 H   0  0  0  0  0  0
  -29.7177  -11.8043   17.3980 H   0  0  0  0  0  0
  -29.6816  -13.5071   17.7713 H   0  0  0  0  0  0
  -27.7862  -11.3417   18.7584 H   0  0  0  0  0  0
  -27.3664  -12.7202   17.7728 H   0  0  0  0  0  0
  -27.7179  -14.2597   19.6086 H   0  0  0  0  0  0
  -28.6743  -11.9073   21.3049 H   0  0  0  0  0  0
  -28.4789  -13.5266   21.8810 H   0  0  0  0  0  0
  -25.2744   -9.5712   22.4735 H   0  0  0  0  0  0
  -24.0023   -7.4660   22.7430 H   0  0  0  0  0  0
  -21.0844   -8.8687   19.8967 H   0  0  0  0  0  0
  -22.3611  -10.9623   19.6142 H   0  0  0  0  0  0
  -21.1989   -7.6130   23.9677 H   0  0  0  0  0  0
  -21.1495   -6.0515   25.9055 H   0  0  0  0  0  0
  -22.0621   -2.7606   23.2840 H   0  0  0  0  0  0
  -22.4163  -11.9841   22.4793 H   0  0  0  0  0  0
  -21.1139  -13.1149   22.2606 H   0  0  0  0  0  0
  -24.6675  -15.8442   20.5118 H   0  0  0  0  0  0
  -26.2870  -15.6286   20.0990 H   0  0  0  0  0  0
  -26.7042  -32.5586   23.1184 H   0  0  0  0  0  0
  -25.0045  -33.9811   25.0520 H   0  0  0  0  0  0
  -22.6906  -31.3120   21.3995 H   0  0  0  0  0  0
  -23.3753  -35.9653   23.3298 H   0  0  0  0  0  0
  -24.3595  -36.8946   22.2058 H   0  0  0  0  0  0
  -23.7200  -37.6531   23.6644 H   0  0  0  0  0  0
  -26.0168  -31.6039   20.5925 H   0  0  0  0  0  0
  -26.8144  -30.9110   21.9745 H   0  0  0  0  0  0
  -28.0884  -29.1158   21.2026 H   0  0  0  0  0  0
  -26.0750  -25.9813   19.0245 H   0  0  0  0  0  0
  -23.9888  -27.2927   19.0330 H   0  0  0  0  0  0
  -23.7142  -30.5944   19.3948 H   0  0  0  0  0  0
  -22.7373  -29.2328   19.8692 H   0  0  0  0  0  0
  -25.1261  -36.2024   25.0846 H   0  0  0  0  0  0
  -20.9981  -28.3264   24.1402 H   0  0  0  0  0  0
  -20.5601  -26.2326   23.3580 H   0  0  0  0  0  0
  -21.6622  -26.7433   22.1223 H   0  0  0  0  0  0
  -19.6912  -25.6300   21.1214 H   0  0  0  0  0  0
  -19.6679  -27.3188   20.6700 H   0  0  0  0  0  0
  -17.4185  -26.6669   21.4019 H   0  0  0  0  0  0
  -18.0360  -26.0049   22.8984 H   0  0  0  0  0  0
  -19.7947  -30.7223   24.2316 H   0  0  0  0  0  0
  -17.5046  -31.6281   24.5159 H   0  0  0  0  0  0
  -15.5362  -30.3043   23.7611 H   0  0  0  0  0  0
  -15.8651  -28.0837   22.7069 H   0  0  0  0  0  0
  -24.5915  -30.7032   25.7807 H   0  0  0  0  0  0
  -24.8928  -32.2854   26.4925 H   0  0  0  0  0  0
  -25.8104  -30.8866   27.0225 H   0  0  0  0  0  0
  -26.2876  -29.6781   24.1174 H   0  0  0  0  0  0
  -27.4131  -29.7321   25.4525 H   0  0  0  0  0  0
  -27.8657  -30.4383   23.9210 H   0  0  0  0  0  0
  -27.2735  -33.3592   26.2069 H   0  0  0  0  0  0
  -28.3881  -32.6814   25.0300 H   0  0  0  0  0  0
  -28.0712  -31.8382   26.5362 H   0  0  0  0  0  0
  -28.2600  -38.0118   24.7538 H   0  0  0  0  0  0
  -28.1081  -36.2664   24.6264 H   0  0  0  0  0  0
  -27.2318  -37.1438   25.8874 H   0  0  0  0  0  0
  -20.9185  -29.8896   21.6997 H   0  0  0  0  0  0
  -26.0201  -38.2890   24.1435 H   0  0  0  0  0  0
  -28.7847  -20.6194   18.6707 H   0  0  0  0  0  0
  -32.6603  -18.7720   18.5275 H   0  0  0  0  0  0
  -28.1312  -16.9617   20.9187 H   0  0  0  0  0  0
  -28.6610  -17.7641   22.3856 H   0  0  0  0  0  0
  -29.0248  -19.7170   21.1536 H   0  0  0  0  0  0
  -28.2367  -18.8792   19.8075 H   0  0  0  0  0  0
  -30.6027  -16.8381   19.0752 H   0  0  0  0  0  0
  -31.9874  -17.4091   20.0194 H   0  0  0  0  0  0
  -30.9185  -17.0667   22.0905 H   0  0  0  0  0  0
  -31.5300  -20.7702   13.7682 H   0  0  0  0  0  0
  -33.2054  -20.8748   14.2968 H   0  0  0  0  0  0
  -32.5139  -22.1624   13.3425 H   0  0  0  0  0  0
  -32.4804  -23.7852   16.7432 H   0  0  0  0  0  0
  -33.0298  -23.9798   15.0830 H   0  0  0  0  0  0
  -33.7919  -22.7948   16.1253 H   0  0  0  0  0  0
  -35.6032  -20.4044   17.1822 H   0  0  0  0  0  0
  -34.8048  -18.8421   17.3764 H   0  0  0  0  0  0
  -34.4930  -20.1756   18.5132 H   0  0  0  0  0  0
  -28.0279  -21.9773   17.0295 H   0  0  0  0  0  0
  -28.8897  -22.1667   15.5499 H   0  0  0  0  0  0
  -28.4119  -24.3816   16.5713 H   0  0  0  0  0  0
  -30.1245  -24.1391   16.4886 H   0  0  0  0  0  0
  -30.3758  -25.2676   19.7882 H   0  0  0  0  0  0
  -30.7636  -25.5473   18.1218 H   0  0  0  0  0  0
  -28.1527  -26.3147   17.9957 H   0  0  0  0  0  0
  -29.4439  -27.3978   18.4213 H   0  0  0  0  0  0
  -30.9489  -22.7458   15.0369 H   0  0  0  0  0  0
  -29.1546  -15.0713   21.5890 H   0  0  0  0  0  0
  -29.9562  -23.3024   18.7952 H   0  0  0  0  0  0
  -28.4458  -23.8954   18.8821 H   0  0  0  0  0  0
  1 25  1  0  0  0
  1 30  2  0  0  0
  1 90  1  0  0  0
  2  3  1  0  0  0
  2 25  1  0  0  0
  2 93  1  0  0  0
  2 94  1  0  0  0
  3  4  1  0  0  0
  3 95  1  0  0  0
  3 96  1  0  0  0
  4  5  1  0  0  0
  4 97  1  0  0  0
  4 98  1  0  0  0
  5  6  1  0  0  0
  5 26  1  0  0  0
  5 99  1  0  0  0
  6 25  1  0  0  0
  6100  1  0  0  0
  6101  1  0  0  0
  7  8  2  0  0  0
  7 26  1  0  0  0
  7 29  1  0  0  0
  8  9  1  0  0  0
  8 22  1  0  0  0
  9 10  1  0  0  0
  9 27  2  0  0  0
 10 11  2  0  0  0
 10 15  1  0  0  0
 11 12  1  0  0  0
 11102  1  0  0  0
 12 13  2  0  0  0
 12103  1  0  0  0
 13 14  1  0  0  0
 13 31  1  0  0  0
 14 15  2  0  0  0
 14104  1  0  0  0
 15105  1  0  0  0
 16 17  2  0  0  0
 16 21  1  0  0  0
 16 31  1  0  0  0
 17 18  1  0  0  0
 17106  1  0  0  0
 18 19  2  0  0  0
 18107  1  0  0  0
 19 20  1  0  0  0
 19 24  1  0  0  0
 20 21  2  0  0  0
 20108  1  0  0  0
 21 23  1  0  0  0
 22 28  1  0  0  0
 22 32  2  0  0  0
 26 27  1  0  0  0
 28109  1  0  0  0
 28110  1  0  0  0
 29111  1  0  0  0
 29112  1  0  0  0
 33 34  1  0  0  0
 33 66  1  0  0  0
 33 70  2  0  0  0
 34 36  1  0  0  0
 34 59  1  0  0  0
 34113  1  0  0  0
 35 44  2  0  0  0
 35 45  1  0  0  0
 35 68  1  0  0  0
 36 56  1  0  0  0
 36114  1  0  0  0
 37 39  1  0  0  0
 37 47  1  0  0  0
 37 66  1  0  0  0
 37115  1  0  0  0
 38 43  2  0  0  0
 38 46  1  0  0  0
 38 47  1  0  0  0
 39 64  1  0  0  0
 39 67  2  0  0  0
 40 52  1  0  0  0
 40 53  2  0  0  0
 40 58  1  0  0  0
 41116  1  0  0  0
 41117  1  0  0  0
 41118  1  0  0  0
 41 48  1  0  0  0
 42 43  1  0  0  0
 42 66  1  0  0  0
 42119  1  0  0  0
 42120  1  0  0  0
 43 44  1  0  0  0
 44121  1  0  0  0
 45 46  2  0  0  0
 45122  1  0  0  0
 46123  1  0  0  0
 47124  1  0  0  0
 47125  1  0  0  0
 48 56  1  0  0  0
 48 65  1  0  0  0
 48126  1  0  0  0
 49 50  1  0  0  0
 49 53  1  0  0  0
 49 64  1  0  0  0
 49127  1  0  0  0
 50 51  1  0  0  0
 50128  1  0  0  0
 50129  1  0  0  0
 51 52  1  0  0  0
 51130  1  0  0  0
 51131  1  0  0  0
 52132  1  0  0  0
 52133  1  0  0  0
 53 54  1  0  0  0
 54 55  2  0  0  0
 54134  1  0  0  0
 55 57  1  0  0  0
 55135  1  0  0  0
 56 69  2  0  0  0
 57 58  2  0  0  0
 57136  1  0  0  0
 58137  1  0  0  0
 59 60  1  0  0  0
 59 61  1  0  0  0
 59 62  1  0  0  0
 60138  1  0  0  0
 60139  1  0  0  0
 60140  1  0  0  0
 61141  1  0  0  0
 61142  1  0  0  0
 61143  1  0  0  0
 62144  1  0  0  0
 62145  1  0  0  0
 62146  1  0  0  0
 63 65  1  0  0  0
 63147  1  0  0  0
 63148  1  0  0  0
 63149  1  0  0  0
 64150  1  0  0  0
 65151  1  0  0  0
 68 87  1  0  0  0
 71 73  2  0  0  0
 71 75  1  0  0  0
 71152  1  0  0  0
 72 75  2  0  0  0
 72 76  1  0  0  0
 72153  1  0  0  0
 73 74  1  0  0  0
 73 84  1  0  0  0
 74 76  2  0  0  0
 74 88  1  0  0  0
 75 89  1  0  0  0
 76 92  1  0  0  0
 77 78  1  0  0  0
 77 80  1  0  0  0
 77154  1  0  0  0
 77155  1  0  0  0
 78 89  1  0  0  0
 78156  1  0  0  0
 78157  1  0  0  0
 79 80  1  0  0  0
 79 89  1  0  0  0
 79158  1  0  0  0
 79159  1  0  0  0
 80 90  1  0  0  0
 80160  1  0  0  0
 81161  1  0  0  0
 81162  1  0  0  0
 81163  1  0  0  0
 81 88  1  0  0  0
 82 88  1  0  0  0
 82164  1  0  0  0
 82165  1  0  0  0
 82166  1  0  0  0
 83 92  1  0  0  0
 83167  1  0  0  0
 83168  1  0  0  0
 83169  1  0  0  0
 84 85  1  0  0  0
 84170  1  0  0  0
 84171  1  0  0  0
 85 91  1  0  0  0
 85172  1  0  0  0
 85173  1  0  0  0
 86 87  1  0  0  0
 86 91  1  0  0  0
 86174  1  0  0  0
 86175  1  0  0  0
 87176  1  0  0  0
 87177  1  0  0  0
 88178  1  0  0  0
 90179  1  0  0  0
 91180  1  0  0  0
 91181  1  0  0  0
M  CHG  1  91   1
M  ISO  4   1 100  68 101  87 101  90 100
M  END
> <chiral flag>
0

> <version>
0

> <s_m_source_file>
/data/baiqing/PycharmProjects/Reinvent-master-3.2/result/LINK_invent/BTK/process_docking_weight1_custom_sum_contain_oxygen_bond_distance_aromatic_linkinvent_7_9_3/rearranged_h_0158.sdf

> <i_m_source_file_index>
9

> <r_mmod_Potential_Energy-OPLS-2005>
-122.419044494629

> <r_mmod_Stretch_Energy-OPLS-2005>
36.8167533874512

> <r_mmod_Bend_Energy-OPLS-2005>
139.436141967773

> <r_mmod_Torsional_Energy-OPLS-2005>
302.953308105469

> <r_mmod_Improper_Torsional_Energy-OPLS-2005>
5.74874353408813

> <r_mmod_Van_der_Waal_Energy-OPLS-2005>
170.22021484375

> <r_mmod_Electrostatic_Energy-OPLS-2005>
-323.060241699219

> <r_mmod_Solvation_Energy-OPLS-2005>
-462.688629150391

> <b_mmod_Minimization_Converged-OPLS-2005>
0

> <r_mmod_RMS_Derivative-OPLS-2005>
4.7922477722168

$$$$
9
                    3D
 Structure written by MMmdl.
186196  0  0  1  0            999 V2000
  -30.7237  -14.5544   20.1460 C   0  0  0  0  0  0
  -30.4005  -12.3079   19.3029 C   0  0  0  0  0  0
  -29.4178  -12.3766   18.1236 C   0  0  0  0  0  0
  -27.9716  -12.2283   18.6372 C   0  0  0  0  0  0
  -27.6457  -13.1369   19.8531 C   0  0  2  0  0  0
  -28.7589  -13.1264   20.9185 C   0  0  0  0  0  0
  -25.2688  -13.8006   20.5884 C   0  0  0  0  0  0
  -24.1824  -13.0377   20.9244 C   0  0  0  0  0  0
  -24.6287  -11.6839   20.8841 C   0  0  0  0  0  0
  -23.8943  -10.4272   21.0489 C   0  0  0  0  0  0
  -24.3552   -9.4211   21.9257 C   0  0  0  0  0  0
  -23.6266   -8.2230   22.0753 C   0  0  0  0  0  0
  -22.4251   -8.0299   21.3527 C   0  0  0  0  0  0
  -21.9856   -9.0255   20.4632 C   0  0  0  0  0  0
  -22.7132  -10.2161   20.3106 C   0  0  0  0  0  0
  -21.6855   -6.0756   22.5256 C   0  0  0  0  0  0
  -21.3996   -6.5655   23.8176 C   0  0  0  0  0  0
  -21.3621   -5.6796   24.9125 C   0  0  0  0  0  0
  -21.6046   -4.3064   24.7164 C   0  0  0  0  0  0
  -21.8850   -3.8173   23.4280 C   0  0  0  0  0  0
  -21.9219   -4.6999   22.3355 C   0  0  0  0  0  0
  -22.7896  -13.5327   21.1823 C   0  0  0  0  0  0
  -22.1690   -4.2192   21.0931 F   0  0  0  0  0  0
  -21.5620   -3.4544   25.7679 F   0  0  0  0  0  0
  -30.0108  -13.3972   20.1922 N   0  0  0  0  0  0
  -26.3027  -12.9007   20.3642 N   0  0  0  0  0  0
  -25.9203  -11.6248   20.6001 N   0  0  0  0  0  0
  -22.0526  -12.8313   22.0371 N   0  0  0  0  0  0
  -25.4500  -15.1675   20.4315 N   0  0  0  0  0  0
  -31.7855  -14.6209   20.7469 O   0  0  0  0  0  0
  -21.6628   -6.8904   21.4224 O   0  0  0  0  0  0
  -22.3673  -14.5679   20.6712 O   0  0  0  0  0  0
  -24.6199  -31.8760   23.2116 C   0  0  0  0  0  0
  -25.9079  -32.4895   23.8434 C   0  0  1  0  0  0
  -27.2696  -27.4819   20.0439 C   0  0  0  0  0  0
  -25.5902  -33.8686   24.2387 N   0  0  0  0  0  0
  -23.4096  -30.4907   21.5623 C   0  0  2  0  0  0
  -24.8573  -28.9505   20.1375 C   0  0  0  0  0  0
  -22.7420  -29.4746   22.5154 C   0  0  0  0  0  0
  -18.0319  -28.1430   22.8508 C   0  0  0  0  0  0
  -24.1430  -36.7364   23.2639 C   0  0  0  0  0  0
  -25.9391  -30.8334   21.3766 C   0  0  0  0  0  0
  -26.0145  -29.4669   20.7315 C   0  0  0  0  0  0
  -27.2236  -28.7325   20.7045 C   0  0  0  0  0  0
  -26.0926  -26.9792   19.4523 C   0  0  0  0  0  0
  -24.8873  -27.6965   19.5049 C   0  0  0  0  0  0
  -23.6114  -29.8011   20.1890 C   0  0  0  0  0  0
  -25.4053  -36.3203   24.0380 C   0  0  1  0  0  0
  -20.5894  -28.3722   23.1349 C   0  0  2  0  0  0
  -20.6836  -26.9487   22.5410 C   0  0  0  0  0  0
  -19.5800  -26.6453   21.5231 C   0  0  0  0  0  0
  -18.1973  -26.7996   22.1619 C   0  0  0  0  0  0
  -19.1554  -28.8890   23.2927 C   0  0  0  0  0  0
  -18.9466  -30.1498   23.8953 C   0  0  0  0  0  0
  -17.6460  -30.6624   24.0593 C   0  0  0  0  0  0
  -25.9017  -34.9559   23.5182 C   0  0  0  0  0  0
  -16.5358  -29.9124   23.6350 C   0  0  0  0  0  0
  -16.7299  -28.6535   23.0377 C   0  0  0  0  0  0
  -26.4484  -31.6677   25.0768 C   0  0  0  0  0  0
  -25.3656  -31.3865   26.1449 C   0  0  0  0  0  0
  -27.0362  -30.3099   24.6271 C   0  0  0  0  0  0
  -27.6155  -32.4397   25.7386 C   0  0  0  0  0  0
  -27.5571  -37.1849   24.8457 C   0  0  0  0  0  0
  -21.4183  -29.3045   22.3755 N   0  0  0  0  0  0
  -26.4257  -37.3880   23.9446 N   0  0  0  0  0  0
  -24.6749  -31.0830   22.1064 N   0  0  0  0  0  0
  -23.4164  -28.8377   23.3294 O   0  0  0  0  0  0
  -28.4012  -26.7230   19.8418 O   0  0  0  0  0  0
  -26.5598  -34.9003   22.4735 O   0  0  0  0  0  0
  -23.5379  -32.1511   23.7481 O   0  0  0  0  0  0
  -28.8464  -18.1990   20.4138 C   0  0  0  0  0  0
  -31.5283  -18.8773   20.9006 C   0  0  0  0  0  0
  -29.8849  -17.5519   19.7169 C   0  0  0  0  0  0
  -31.2312  -17.8889   19.9440 C   0  0  0  0  0  0
  -29.1412  -19.1383   21.4194 C   0  0  0  0  0  0
  -30.4952  -19.4877   21.6704 C   0  0  0  0  0  0
  -32.3497  -17.1498   19.1737 C   0  0  0  0  0  0
  -26.5820  -23.1441   22.0727 C   0  0  0  0  0  0
  -28.3716  -22.4479   20.4276 C   0  0  0  0  0  0
  -27.4942  -24.2943   22.5473 C   0  0  0  0  0  0
  -29.2611  -23.6042   20.9481 C   0  0  0  0  0  0
  -29.6358  -16.4332   18.7371 C   0  0  2  0  0  0
  -27.3419  -21.9459   21.4659 C   0  0  1  0  0  0
  -31.8829  -15.8658   18.3991 C   0  0  2  0  0  0
  -28.1761  -16.1861   18.3377 C   0  0  0  0  0  0
  -33.0180  -14.8444   18.1350 C   0  0  0  0  0  0
  -32.1122  -20.5665   23.0650 C   0  0  0  0  0  0
  -27.9748  -19.6289   22.2824 C   0  0  0  0  0  0
  -29.2368  -25.9294   21.9127 C   0  0  0  0  0  0
  -29.5370  -26.8102   20.6958 C   0  0  0  0  0  0
  -30.6119  -15.3130   18.9863 N   0  0  0  0  0  0
  -28.4524  -24.7303   21.4989 N   0  3  2  0  0  0
  -27.9211  -21.0852   22.5311 N   0  3  0  0  0  0
  -30.7508  -20.4035   22.6694 O   0  0  0  0  0  0
  -31.4271  -12.4175   18.9453 H   0  0  0  0  0  0
  -30.3550  -11.3415   19.8097 H   0  0  0  0  0  0
  -29.6358  -11.5900   17.3989 H   0  0  0  0  0  0
  -29.5147  -13.3193   17.5837 H   0  0  0  0  0  0
  -27.8318  -11.1861   18.9280 H   0  0  0  0  0  0
  -27.2621  -12.4077   17.8288 H   0  0  0  0  0  0
  -27.6259  -14.1192   19.4502 H   0  0  0  0  0  0
  -28.8031  -12.1602   21.4206 H   0  0  0  0  0  0
  -28.5759  -13.8800   21.6870 H   0  0  0  0  0  0
  -25.2701   -9.5689   22.4840 H   0  0  0  0  0  0
  -24.0004   -7.4613   22.7445 H   0  0  0  0  0  0
  -21.0805   -8.8730   19.8941 H   0  0  0  0  0  0
  -22.3592  -10.9708   19.6236 H   0  0  0  0  0  0
  -21.1983   -7.6166   23.9649 H   0  0  0  0  0  0
  -21.1394   -6.0539   25.9016 H   0  0  0  0  0  0
  -22.0680   -2.7658   23.2724 H   0  0  0  0  0  0
  -22.4105  -11.9856   22.4536 H   0  0  0  0  0  0
  -21.1183  -13.1361   22.2669 H   0  0  0  0  0  0
  -24.6934  -15.8335   20.5253 H   0  0  0  0  0  0
  -26.3313  -15.5925   20.1801 H   0  0  0  0  0  0
  -26.7150  -32.5649   23.1216 H   0  0  0  0  0  0
  -24.9996  -33.9797   25.0510 H   0  0  0  0  0  0
  -22.7035  -31.3117   21.4181 H   0  0  0  0  0  0
  -23.3719  -35.9671   23.3308 H   0  0  0  0  0  0
  -24.3490  -36.8966   22.2044 H   0  0  0  0  0  0
  -23.7122  -37.6570   23.6586 H   0  0  0  0  0  0
  -26.0629  -31.5882   20.5997 H   0  0  0  0  0  0
  -26.8198  -30.8860   22.0051 H   0  0  0  0  0  0
  -28.1103  -29.1724   21.1380 H   0  0  0  0  0  0
  -26.1169  -26.0405   18.9172 H   0  0  0  0  0  0
  -24.0031  -27.2934   19.0343 H   0  0  0  0  0  0
  -23.6849  -30.5529   19.4026 H   0  0  0  0  0  0
  -22.7473  -29.1854   19.9381 H   0  0  0  0  0  0
  -25.1213  -36.2120   25.0885 H   0  0  0  0  0  0
  -20.9989  -28.3286   24.1474 H   0  0  0  0  0  0
  -20.5869  -26.2337   23.3586 H   0  0  0  0  0  0
  -21.6696  -26.7640   22.1123 H   0  0  0  0  0  0
  -19.6991  -25.6369   21.1265 H   0  0  0  0  0  0
  -19.6750  -27.3267   20.6760 H   0  0  0  0  0  0
  -17.4277  -26.6813   21.3995 H   0  0  0  0  0  0
  -18.0350  -26.0139   22.8994 H   0  0  0  0  0  0
  -19.7902  -30.7330   24.2381 H   0  0  0  0  0  0
  -17.4972  -31.6314   24.5173 H   0  0  0  0  0  0
  -15.5341  -30.3020   23.7660 H   0  0  0  0  0  0
  -15.8703  -28.0840   22.7116 H   0  0  0  0  0  0
  -24.5820  -30.7276   25.7673 H   0  0  0  0  0  0
  -24.8822  -32.3051   26.4805 H   0  0  0  0  0  0
  -25.7836  -30.8972   27.0245 H   0  0  0  0  0  0
  -26.3009  -29.6839   24.1186 H   0  0  0  0  0  0
  -27.3991  -29.7413   25.4858 H   0  0  0  0  0  0
  -27.8885  -30.4444   23.9615 H   0  0  0  0  0  0
  -27.2877  -33.3687   26.2056 H   0  0  0  0  0  0
  -28.3692  -32.7039   24.9961 H   0  0  0  0  0  0
  -28.1125  -31.8492   26.5096 H   0  0  0  0  0  0
  -28.2636  -38.0109   24.7519 H   0  0  0  0  0  0
  -28.1037  -36.2671   24.6239 H   0  0  0  0  0  0
  -27.2332  -37.1469   25.8874 H   0  0  0  0  0  0
  -20.9486  -29.8456   21.6633 H   0  0  0  0  0  0
  -26.0215  -38.3005   24.1402 H   0  0  0  0  0  0
  -27.8167  -17.9336   20.2302 H   0  0  0  0  0  0
  -32.5719  -19.1249   21.0477 H   0  0  0  0  0  0
  -33.1345  -16.8798   19.8834 H   0  0  0  0  0  0
  -32.8145  -17.8392   18.4662 H   0  0  0  0  0  0
  -25.8893  -23.5334   21.3257 H   0  0  0  0  0  0
  -25.9496  -22.8220   22.9029 H   0  0  0  0  0  0
  -28.9788  -21.6209   20.0539 H   0  0  0  0  0  0
  -27.8211  -22.8061   19.5570 H   0  0  0  0  0  0
  -28.0409  -24.0095   23.4479 H   0  0  0  0  0  0
  -26.8617  -25.1398   22.8255 H   0  0  0  0  0  0
  -29.8834  -23.9655   20.1282 H   0  0  0  0  0  0
  -29.9485  -23.2320   21.7066 H   0  0  0  0  0  0
  -29.9059  -16.9389   17.8084 H   0  0  0  0  0  0
  -26.5987  -21.3559   20.9282 H   0  0  0  0  0  0
  -31.6762  -16.1783   17.3749 H   0  0  0  0  0  0
  -27.5112  -16.0880   19.1834 H   0  0  0  0  0  0
  -28.0679  -15.3503   17.6460 H   0  0  0  0  0  0
  -27.7894  -17.0599   17.8092 H   0  0  0  0  0  0
  -33.8234  -15.3244   17.5774 H   0  0  0  0  0  0
  -32.6628  -14.0090   17.5311 H   0  0  0  0  0  0
  -33.4721  -14.4313   19.0358 H   0  0  0  0  0  0
  -32.1655  -21.1428   23.9853 H   0  0  0  0  0  0
  -32.6877  -21.0986   22.3065 H   0  0  0  0  0  0
  -32.5924  -19.6072   23.2637 H   0  0  0  0  0  0
  -28.0522  -19.1257   23.2478 H   0  0  0  0  0  0
  -27.0230  -19.2956   21.8618 H   0  0  0  0  0  0
  -28.6472  -26.5445   22.5961 H   0  0  0  0  0  0
  -30.1452  -25.6541   22.4511 H   0  0  0  0  0  0
  -30.3929  -26.4008   20.1521 H   0  0  0  0  0  0
  -29.8115  -27.8299   20.9629 H   0  0  0  0  0  0
  -27.9053  -25.0938   20.7262 H   0  0  0  0  0  0
  -27.2991  -21.1665   23.3201 H   0  0  0  0  0  0
  -28.8285  -21.3920   22.8410 H   0  0  0  0  0  0
  1 25  1  0  0  0
  1 30  2  0  0  0
  1 91  1  0  0  0
  2  3  1  0  0  0
  2 25  1  0  0  0
  2 95  1  0  0  0
  2 96  1  0  0  0
  3  4  1  0  0  0
  3 97  1  0  0  0
  3 98  1  0  0  0
  4  5  1  0  0  0
  4 99  1  0  0  0
  4100  1  0  0  0
  5  6  1  0  0  0
  5 26  1  0  0  0
  5101  1  0  0  0
  6 25  1  0  0  0
  6102  1  0  0  0
  6103  1  0  0  0
  7  8  2  0  0  0
  7 26  1  0  0  0
  7 29  1  0  0  0
  8  9  1  0  0  0
  8 22  1  0  0  0
  9 10  1  0  0  0
  9 27  2  0  0  0
 10 11  2  0  0  0
 10 15  1  0  0  0
 11 12  1  0  0  0
 11104  1  0  0  0
 12 13  2  0  0  0
 12105  1  0  0  0
 13 14  1  0  0  0
 13 31  1  0  0  0
 14 15  2  0  0  0
 14106  1  0  0  0
 15107  1  0  0  0
 16 17  2  0  0  0
 16 21  1  0  0  0
 16 31  1  0  0  0
 17 18  1  0  0  0
 17108  1  0  0  0
 18 19  2  0  0  0
 18109  1  0  0  0
 19 20  1  0  0  0
 19 24  1  0  0  0
 20 21  2  0  0  0
 20110  1  0  0  0
 21 23  1  0  0  0
 22 28  1  0  0  0
 22 32  2  0  0  0
 26 27  1  0  0  0
 28111  1  0  0  0
 28112  1  0  0  0
 29113  1  0  0  0
 29114  1  0  0  0
 33 34  1  0  0  0
 33 66  1  0  0  0
 33 70  2  0  0  0
 34 36  1  0  0  0
 34 59  1  0  0  0
 34115  1  0  0  0
 35 44  2  0  0  0
 35 45  1  0  0  0
 35 68  1  0  0  0
 36 56  1  0  0  0
 36116  1  0  0  0
 37 39  1  0  0  0
 37 47  1  0  0  0
 37 66  1  0  0  0
 37117  1  0  0  0
 38 43  2  0  0  0
 38 46  1  0  0  0
 38 47  1  0  0  0
 39 64  1  0  0  0
 39 67  2  0  0  0
 40 52  1  0  0  0
 40 53  2  0  0  0
 40 58  1  0  0  0
 41118  1  0  0  0
 41119  1  0  0  0
 41120  1  0  0  0
 41 48  1  0  0  0
 42 43  1  0  0  0
 42 66  1  0  0  0
 42121  1  0  0  0
 42122  1  0  0  0
 43 44  1  0  0  0
 44123  1  0  0  0
 45 46  2  0  0  0
 45124  1  0  0  0
 46125  1  0  0  0
 47126  1  0  0  0
 47127  1  0  0  0
 48 56  1  0  0  0
 48 65  1  0  0  0
 48128  1  0  0  0
 49 50  1  0  0  0
 49 53  1  0  0  0
 49 64  1  0  0  0
 49129  1  0  0  0
 50 51  1  0  0  0
 50130  1  0  0  0
 50131  1  0  0  0
 51 52  1  0  0  0
 51132  1  0  0  0
 51133  1  0  0  0
 52134  1  0  0  0
 52135  1  0  0  0
 53 54  1  0  0  0
 54 55  2  0  0  0
 54136  1  0  0  0
 55 57  1  0  0  0
 55137  1  0  0  0
 56 69  2  0  0  0
 57 58  2  0  0  0
 57138  1  0  0  0
 58139  1  0  0  0
 59 60  1  0  0  0
 59 61  1  0  0  0
 59 62  1  0  0  0
 60140  1  0  0  0
 60141  1  0  0  0
 60142  1  0  0  0
 61143  1  0  0  0
 61144  1  0  0  0
 61145  1  0  0  0
 62146  1  0  0  0
 62147  1  0  0  0
 62148  1  0  0  0
 63 65  1  0  0  0
 63149  1  0  0  0
 63150  1  0  0  0
 63151  1  0  0  0
 64152  1  0  0  0
 65153  1  0  0  0
 68 90  1  0  0  0
 71 73  2  0  0  0
 71 75  1  0  0  0
 71154  1  0  0  0
 72 74  2  0  0  0
 72 76  1  0  0  0
 72155  1  0  0  0
 73 74  1  0  0  0
 73 82  1  0  0  0
 74 77  1  0  0  0
 75 76  2  0  0  0
 75 88  1  0  0  0
 76 94  1  0  0  0
 77 84  1  0  0  0
 77156  1  0  0  0
 77157  1  0  0  0
 78 80  1  0  0  0
 78 83  1  0  0  0
 78158  1  0  0  0
 78159  1  0  0  0
 79 81  1  0  0  0
 79 83  1  0  0  0
 79160  1  0  0  0
 79161  1  0  0  0
 80 92  1  0  0  0
 80162  1  0  0  0
 80163  1  0  0  0
 81 92  1  0  0  0
 81164  1  0  0  0
 81165  1  0  0  0
 82 85  1  0  0  0
 82 91  1  0  0  0
 82166  1  0  0  0
 83 93  1  0  0  0
 83167  1  0  0  0
 84 86  1  0  0  0
 84 91  1  0  0  0
 84168  1  0  0  0
 85169  1  0  0  0
 85170  1  0  0  0
 85171  1  0  0  0
 86172  1  0  0  0
 86173  1  0  0  0
 86174  1  0  0  0
 87 94  1  0  0  0
 87175  1  0  0  0
 87176  1  0  0  0
 87177  1  0  0  0
 88 93  1  0  0  0
 88178  1  0  0  0
 88179  1  0  0  0
 89 90  1  0  0  0
 89180  1  0  0  0
 89181  1  0  0  0
 89 92  1  0  0  0
 90182  1  0  0  0
 90183  1  0  0  0
 92184  1  0  0  0
 93185  1  0  0  0
 93186  1  0  0  0
M  CHG  2  92   1  93   1
M  ISO  4   1 100  68 101  90 101  91 100
M  END
> <chiral flag>
0

> <version>
0

> <s_m_source_file>
/data/baiqing/PycharmProjects/Reinvent-master-3.2/result/LINK_invent/BTK/process_docking_weight1_custom_sum_contain_oxygen_bond_distance_aromatic_linkinvent_7_9_3/rearranged_h_0158.sdf

> <i_m_source_file_index>
10

> <r_mmod_Potential_Energy-OPLS-2005>
182.881958007812

> <r_mmod_Stretch_Energy-OPLS-2005>
55.7069625854492

> <r_mmod_Bend_Energy-OPLS-2005>
201.315063476562

> <r_mmod_Torsional_Energy-OPLS-2005>
385.081756591797

> <r_mmod_Improper_Torsional_Energy-OPLS-2005>
29.1892585754395

> <r_mmod_Van_der_Waal_Energy-OPLS-2005>
193.469024658203

> <r_mmod_Electrostatic_Energy-OPLS-2005>
95.6646118164062

> <r_mmod_Solvation_Energy-OPLS-2005>
-891.511474609375

> <b_mmod_Minimization_Converged-OPLS-2005>
0

> <r_mmod_RMS_Derivative-OPLS-2005>
5.84041118621826

$$$$
10
                    3D
 Structure written by MMmdl.
170179  0  0  1  0            999 V2000
  -30.6330  -14.6384   20.5129 C   0  0  0  0  0  0
  -30.4281  -12.3928   19.4658 C   0  0  0  0  0  0
  -29.5043  -12.5125   18.2331 C   0  0  0  0  0  0
  -28.0280  -12.3483   18.6442 C   0  0  0  0  0  0
  -27.6508  -13.2195   19.8717 C   0  0  2  0  0  0
  -28.6933  -13.0827   21.0051 C   0  0  0  0  0  0
  -25.2496  -13.8153   20.5638 C   0  0  0  0  0  0
  -24.1791  -13.0419   20.9206 C   0  0  0  0  0  0
  -24.6383  -11.6899   20.8776 C   0  0  0  0  0  0
  -23.9049  -10.4285   21.0431 C   0  0  0  0  0  0
  -24.3603   -9.4197   21.9204 C   0  0  0  0  0  0
  -23.6291   -8.2223   22.0755 C   0  0  0  0  0  0
  -22.4275   -8.0269   21.3541 C   0  0  0  0  0  0
  -21.9911   -9.0234   20.4635 C   0  0  0  0  0  0
  -22.7232  -10.2122   20.3065 C   0  0  0  0  0  0
  -21.6843   -6.0736   22.5278 C   0  0  0  0  0  0
  -21.4004   -6.5630   23.8217 C   0  0  0  0  0  0
  -21.3664   -5.6783   24.9173 C   0  0  0  0  0  0
  -21.6052   -4.3045   24.7217 C   0  0  0  0  0  0
  -21.8818   -3.8142   23.4336 C   0  0  0  0  0  0
  -21.9186   -4.6967   22.3401 C   0  0  0  0  0  0
  -22.7819  -13.5213   21.1857 C   0  0  0  0  0  0
  -22.1655   -4.2152   21.0979 F   0  0  0  0  0  0
  -21.5645   -3.4527   25.7725 F   0  0  0  0  0  0
  -30.0100  -13.4195   20.4441 N   0  0  0  0  0  0
  -26.2963  -12.9363   20.3360 N   0  0  0  0  0  0
  -25.9317  -11.6515   20.5824 N   0  0  0  0  0  0
  -22.0457  -12.8227   22.0426 N   0  0  0  0  0  0
  -25.4093  -15.1847   20.3874 N   0  0  0  0  0  0
  -31.7794  -14.7967   20.0886 O   0  0  0  0  0  0
  -21.6636   -6.8871   21.4238 O   0  0  0  0  0  0
  -22.3512  -14.5524   20.6699 O   0  0  0  0  0  0
  -24.6240  -31.8607   23.2038 C   0  0  0  0  0  0
  -25.9084  -32.4789   23.8375 C   0  0  1  0  0  0
  -27.2191  -27.3206   20.1204 C   0  0  0  0  0  0
  -25.5914  -33.8588   24.2308 N   0  0  0  0  0  0
  -23.4188  -30.4820   21.5481 C   0  0  2  0  0  0
  -24.8646  -28.9398   20.1091 C   0  0  0  0  0  0
  -22.7478  -29.4615   22.4985 C   0  0  0  0  0  0
  -18.0282  -28.1362   22.8522 C   0  0  0  0  0  0
  -24.1488  -36.7284   23.2648 C   0  0  0  0  0  0
  -25.9591  -30.7899   21.3762 C   0  0  0  0  0  0
  -26.0321  -29.4183   20.7169 C   0  0  0  0  0  0
  -27.2120  -28.6186   20.7157 C   0  0  0  0  0  0
  -26.0360  -26.9034   19.4685 C   0  0  0  0  0  0
  -24.8685  -27.6880   19.4743 C   0  0  0  0  0  0
  -23.6306  -29.8145   20.1631 C   0  0  0  0  0  0
  -25.4114  -36.3099   24.0350 C   0  0  1  0  0  0
  -20.5887  -28.3657   23.1309 C   0  0  2  0  0  0
  -20.6763  -26.9380   22.5421 C   0  0  0  0  0  0
  -19.5731  -26.6360   21.5232 C   0  0  0  0  0  0
  -18.1911  -26.7922   22.1633 C   0  0  0  0  0  0
  -19.1541  -28.8830   23.2911 C   0  0  0  0  0  0
  -18.9462  -30.1446   23.8902 C   0  0  0  0  0  0
  -17.6460  -30.6581   24.0552 C   0  0  0  0  0  0
  -25.9042  -34.9465   23.5133 C   0  0  0  0  0  0
  -16.5349  -29.9066   23.6342 C   0  0  0  0  0  0
  -16.7267  -28.6473   23.0385 C   0  0  0  0  0  0
  -26.4455  -31.6581   25.0735 C   0  0  0  0  0  0
  -25.3686  -31.3699   26.1460 C   0  0  0  0  0  0
  -27.0281  -30.3018   24.6137 C   0  0  0  0  0  0
  -27.6025  -32.4306   25.7486 C   0  0  0  0  0  0
  -27.5588  -37.1808   24.8474 C   0  0  0  0  0  0
  -21.4198  -29.3029   22.3724 N   0  0  0  0  0  0
  -26.4297  -37.3793   23.9418 N   0  0  0  0  0  0
  -24.6863  -31.0611   22.0994 N   0  0  0  0  0  0
  -23.4212  -28.8168   23.3064 O   0  0  0  0  0  0
  -28.3297  -26.4661   20.1984 O   0  0  0  0  0  0
  -26.5609  -34.8925   22.4697 O   0  0  0  0  0  0
  -23.5406  -32.1404   23.7373 O   0  0  0  0  0  0
  -29.0082  -22.5993   20.7960 C   0  0  0  0  0  0
  -30.0657  -23.5824   23.1760 C   0  0  0  0  0  0
  -29.5915  -21.6509   21.7158 C   0  0  0  0  0  0
  -28.9270  -24.0246   21.0601 C   0  0  0  0  0  0
  -30.0964  -22.1957   22.9347 C   0  0  0  0  0  0
  -29.4827  -24.4919   22.2780 C   0  0  0  0  0  0
  -31.0373  -19.4249   21.4075 C   0  0  0  0  0  0
  -30.9900  -17.8851   21.6361 C   0  0  0  0  0  0
  -29.6321  -20.0746   21.5341 C   0  0  2  0  0  0
  -30.0666  -17.1830   20.6148 C   0  0  2  0  0  0
  -28.7129  -18.0038   20.5276 C   0  0  0  0  0  0
  -30.6488  -21.3416   24.0735 C   0  0  0  0  0  0
  -29.4347  -25.9521   22.7021 C   0  0  0  0  0  0
  -27.7603  -17.6487   21.6912 C   0  0  0  0  0  0
  -28.0080  -17.6718   19.2041 C   0  0  0  0  0  0
  -28.1151  -24.9973   20.1282 C   0  0  0  0  0  0
  -29.8643  -15.7094   20.8798 N   0  0  0  0  0  0
  -28.8705  -19.4632   20.4754 O   0  0  0  0  0  0
  -31.4724  -12.5046   19.1696 H   0  0  0  0  0  0
  -30.3506  -11.3979   19.9068 H   0  0  0  0  0  0
  -29.7699  -11.7611   17.4878 H   0  0  0  0  0  0
  -29.6474  -13.4829   17.7563 H   0  0  0  0  0  0
  -27.8716  -11.2956   18.8807 H   0  0  0  0  0  0
  -27.3695  -12.5730   17.8046 H   0  0  0  0  0  0
  -27.6681  -14.2546   19.5331 H   0  0  0  0  0  0
  -28.7022  -12.0640   21.3963 H   0  0  0  0  0  0
  -28.4401  -13.7261   21.8494 H   0  0  0  0  0  0
  -25.2740   -9.5686   22.4789 H   0  0  0  0  0  0
  -24.0003   -7.4613   22.7472 H   0  0  0  0  0  0
  -21.0847   -8.8740   19.8935 H   0  0  0  0  0  0
  -22.3682  -10.9660   19.6177 H   0  0  0  0  0  0
  -21.1984   -7.6137   23.9724 H   0  0  0  0  0  0
  -21.1499   -6.0506   25.9081 H   0  0  0  0  0  0
  -22.0596   -2.7605   23.2824 H   0  0  0  0  0  0
  -22.4073  -11.9892   22.4830 H   0  0  0  0  0  0
  -21.1080  -13.1268   22.2624 H   0  0  0  0  0  0
  -24.6175  -15.8152   20.4483 H   0  0  0  0  0  0
  -26.2258  -15.6134   19.9745 H   0  0  0  0  0  0
  -26.7155  -32.5442   23.1128 H   0  0  0  0  0  0
  -25.0085  -33.9742   25.0471 H   0  0  0  0  0  0
  -22.7136  -31.3033   21.4072 H   0  0  0  0  0  0
  -23.3769  -35.9595   23.3302 H   0  0  0  0  0  0
  -24.3604  -36.8893   22.2066 H   0  0  0  0  0  0
  -23.7197  -37.6474   23.6651 H   0  0  0  0  0  0
  -26.0920  -31.5535   20.6090 H   0  0  0  0  0  0
  -26.8397  -30.8364   22.0054 H   0  0  0  0  0  0
  -28.1039  -28.9757   21.2120 H   0  0  0  0  0  0
  -25.9879  -25.9540   18.9559 H   0  0  0  0  0  0
  -23.9763  -27.3189   18.9874 H   0  0  0  0  0  0
  -23.7407  -30.5882   19.4027 H   0  0  0  0  0  0
  -22.7527  -29.2365   19.8675 H   0  0  0  0  0  0
  -25.1293  -36.1972   25.0843 H   0  0  0  0  0  0
  -20.9981  -28.3181   24.1427 H   0  0  0  0  0  0
  -20.5665  -26.2253   23.3615 H   0  0  0  0  0  0
  -21.6623  -26.7403   22.1201 H   0  0  0  0  0  0
  -19.6867  -25.6268   21.1260 H   0  0  0  0  0  0
  -19.6664  -27.3173   20.6768 H   0  0  0  0  0  0
  -17.4201  -26.6737   21.4006 H   0  0  0  0  0  0
  -18.0250  -26.0033   22.8985 H   0  0  0  0  0  0
  -19.7933  -30.7273   24.2254 H   0  0  0  0  0  0
  -17.5006  -31.6274   24.5126 H   0  0  0  0  0  0
  -15.5347  -30.2961   23.7662 H   0  0  0  0  0  0
  -15.8672  -28.0778   22.7116 H   0  0  0  0  0  0
  -24.5904  -30.6997   25.7787 H   0  0  0  0  0  0
  -24.8819  -32.2847   26.4855 H   0  0  0  0  0  0
  -25.8030  -30.8916   27.0251 H   0  0  0  0  0  0
  -26.2830  -29.6807   24.1153 H   0  0  0  0  0  0
  -27.3997  -29.7232   25.4603 H   0  0  0  0  0  0
  -27.8696  -30.4343   23.9334 H   0  0  0  0  0  0
  -27.2653  -33.3623   26.2038 H   0  0  0  0  0  0
  -28.3822  -32.6833   25.0288 H   0  0  0  0  0  0
  -28.0682  -31.8435   26.5412 H   0  0  0  0  0  0
  -28.2611  -38.0103   24.7533 H   0  0  0  0  0  0
  -28.1088  -36.2644   24.6289 H   0  0  0  0  0  0
  -27.2325  -37.1421   25.8882 H   0  0  0  0  0  0
  -20.9371  -29.8777   21.6965 H   0  0  0  0  0  0
  -26.0193  -38.2878   24.1400 H   0  0  0  0  0  0
  -28.5664  -22.2135   19.8876 H   0  0  0  0  0  0
  -30.4626  -23.9559   24.1108 H   0  0  0  0  0  0
  -31.4551  -19.6513   20.4254 H   0  0  0  0  0  0
  -31.7343  -19.8502   22.1237 H   0  0  0  0  0  0
  -30.6469  -17.6868   22.6518 H   0  0  0  0  0  0
  -31.9953  -17.4689   21.5689 H   0  0  0  0  0  0
  -29.1732  -19.7175   22.4513 H   0  0  0  0  0  0
  -30.5610  -17.2680   19.6446 H   0  0  0  0  0  0
  -30.5945  -21.8827   25.0192 H   0  0  0  0  0  0
  -31.6972  -21.0947   23.9135 H   0  0  0  0  0  0
  -30.0863  -20.4244   24.2330 H   0  0  0  0  0  0
  -29.8477  -26.0933   23.7010 H   0  0  0  0  0  0
  -28.4069  -26.3190   22.7277 H   0  0  0  0  0  0
  -30.0207  -26.5693   22.0203 H   0  0  0  0  0  0
  -27.4302  -16.6125   21.6401 H   0  0  0  0  0  0
  -26.8648  -18.2712   21.6678 H   0  0  0  0  0  0
  -28.2242  -17.7735   22.6688 H   0  0  0  0  0  0
  -27.8547  -16.6001   19.0859 H   0  0  0  0  0  0
  -28.5941  -18.0127   18.3504 H   0  0  0  0  0  0
  -27.0320  -18.1540   19.1410 H   0  0  0  0  0  0
  -27.0832  -24.7571   20.3863 H   0  0  0  0  0  0
  -28.2574  -24.6806   19.0947 H   0  0  0  0  0  0
  -28.9527  -15.4645   21.2357 H   0  0  0  0  0  0
  1 25  1  0  0  0
  1 30  2  0  0  0
  1 87  1  0  0  0
  2  3  1  0  0  0
  2 25  1  0  0  0
  2 89  1  0  0  0
  2 90  1  0  0  0
  3  4  1  0  0  0
  3 91  1  0  0  0
  3 92  1  0  0  0
  4  5  1  0  0  0
  4 93  1  0  0  0
  4 94  1  0  0  0
  5  6  1  0  0  0
  5 26  1  0  0  0
  5 95  1  0  0  0
  6 25  1  0  0  0
  6 96  1  0  0  0
  6 97  1  0  0  0
  7  8  2  0  0  0
  7 26  1  0  0  0
  7 29  1  0  0  0
  8  9  1  0  0  0
  8 22  1  0  0  0
  9 10  1  0  0  0
  9 27  2  0  0  0
 10 11  2  0  0  0
 10 15  1  0  0  0
 11 12  1  0  0  0
 11 98  1  0  0  0
 12 13  2  0  0  0
 12 99  1  0  0  0
 13 14  1  0  0  0
 13 31  1  0  0  0
 14 15  2  0  0  0
 14100  1  0  0  0
 15101  1  0  0  0
 16 17  2  0  0  0
 16 21  1  0  0  0
 16 31  1  0  0  0
 17 18  1  0  0  0
 17102  1  0  0  0
 18 19  2  0  0  0
 18103  1  0  0  0
 19 20  1  0  0  0
 19 24  1  0  0  0
 20 21  2  0  0  0
 20104  1  0  0  0
 21 23  1  0  0  0
 22 28  1  0  0  0
 22 32  2  0  0  0
 26 27  1  0  0  0
 28105  1  0  0  0
 28106  1  0  0  0
 29107  1  0  0  0
 29108  1  0  0  0
 33 34  1  0  0  0
 33 66  1  0  0  0
 33 70  2  0  0  0
 34 36  1  0  0  0
 34 59  1  0  0  0
 34109  1  0  0  0
 35 44  2  0  0  0
 35 45  1  0  0  0
 35 68  1  0  0  0
 36 56  1  0  0  0
 36110  1  0  0  0
 37 39  1  0  0  0
 37 47  1  0  0  0
 37 66  1  0  0  0
 37111  1  0  0  0
 38 43  2  0  0  0
 38 46  1  0  0  0
 38 47  1  0  0  0
 39 64  1  0  0  0
 39 67  2  0  0  0
 40 52  1  0  0  0
 40 53  2  0  0  0
 40 58  1  0  0  0
 41112  1  0  0  0
 41113  1  0  0  0
 41114  1  0  0  0
 41 48  1  0  0  0
 42 43  1  0  0  0
 42 66  1  0  0  0
 42115  1  0  0  0
 42116  1  0  0  0
 43 44  1  0  0  0
 44117  1  0  0  0
 45 46  2  0  0  0
 45118  1  0  0  0
 46119  1  0  0  0
 47120  1  0  0  0
 47121  1  0  0  0
 48 56  1  0  0  0
 48 65  1  0  0  0
 48122  1  0  0  0
 49 50  1  0  0  0
 49 53  1  0  0  0
 49 64  1  0  0  0
 49123  1  0  0  0
 50 51  1  0  0  0
 50124  1  0  0  0
 50125  1  0  0  0
 51 52  1  0  0  0
 51126  1  0  0  0
 51127  1  0  0  0
 52128  1  0  0  0
 52129  1  0  0  0
 53 54  1  0  0  0
 54 55  2  0  0  0
 54130  1  0  0  0
 55 57  1  0  0  0
 55131  1  0  0  0
 56 69  2  0  0  0
 57 58  2  0  0  0
 57132  1  0  0  0
 58133  1  0  0  0
 59 60  1  0  0  0
 59 61  1  0  0  0
 59 62  1  0  0  0
 60134  1  0  0  0
 60135  1  0  0  0
 60136  1  0  0  0
 61137  1  0  0  0
 61138  1  0  0  0
 61139  1  0  0  0
 62140  1  0  0  0
 62141  1  0  0  0
 62142  1  0  0  0
 63 65  1  0  0  0
 63143  1  0  0  0
 63144  1  0  0  0
 63145  1  0  0  0
 64146  1  0  0  0
 65147  1  0  0  0
 68 86  1  0  0  0
 71 73  2  0  0  0
 71 74  1  0  0  0
 71148  1  0  0  0
 72 75  2  0  0  0
 72 76  1  0  0  0
 72149  1  0  0  0
 73 75  1  0  0  0
 73 79  1  0  0  0
 74 76  2  0  0  0
 74 86  1  0  0  0
 75 82  1  0  0  0
 76 83  1  0  0  0
 77 78  1  0  0  0
 77 79  1  0  0  0
 77150  1  0  0  0
 77151  1  0  0  0
 78 80  1  0  0  0
 78152  1  0  0  0
 78153  1  0  0  0
 79 88  1  0  0  0
 79154  1  0  0  0
 80 81  1  0  0  0
 80 87  1  0  0  0
 80155  1  0  0  0
 81 84  1  0  0  0
 81 85  1  0  0  0
 81 88  1  0  0  0
 82156  1  0  0  0
 82157  1  0  0  0
 82158  1  0  0  0
 83159  1  0  0  0
 83160  1  0  0  0
 83161  1  0  0  0
 84162  1  0  0  0
 84163  1  0  0  0
 84164  1  0  0  0
 85165  1  0  0  0
 85166  1  0  0  0
 85167  1  0  0  0
 86168  1  0  0  0
 86169  1  0  0  0
 87170  1  0  0  0
M  ISO  4   1 100  68 101  86 101  87 100
M  END
> <chiral flag>
0

> <version>
0

> <s_m_source_file>
/data/baiqing/PycharmProjects/Reinvent-master-3.2/result/LINK_invent/BTK/process_docking_weight1_custom_sum_contain_oxygen_bond_distance_aromatic_linkinvent_7_9_3/rearranged_h_0158.sdf

> <i_m_source_file_index>
11

> <r_mmod_Potential_Energy-OPLS-2005>
19.7095394134521

> <r_mmod_Stretch_Energy-OPLS-2005>
89.0493850708008

> <r_mmod_Bend_Energy-OPLS-2005>
147.643936157227

> <r_mmod_Torsional_Energy-OPLS-2005>
250.532516479492

> <r_mmod_Improper_Torsional_Energy-OPLS-2005>
6.29242753982544

> <r_mmod_Van_der_Waal_Energy-OPLS-2005>
152.922943115234

> <r_mmod_Electrostatic_Energy-OPLS-2005>
-479.037445068359

> <r_mmod_Solvation_Energy-OPLS-2005>
-197.14518737793

> <b_mmod_Minimization_Converged-OPLS-2005>
0

> <r_mmod_RMS_Derivative-OPLS-2005>
1.9753338098526

$$$$
11
                    3D
 Structure written by MMmdl.
172181  0  0  1  0            999 V2000
  -30.7285  -14.7365   20.4664 C   0  0  0  0  0  0
  -30.4015  -12.4717   19.4667 C   0  0  0  0  0  0
  -29.4909  -12.5003   18.2267 C   0  0  0  0  0  0
  -28.0248  -12.3125   18.6537 C   0  0  0  0  0  0
  -27.6277  -13.2321   19.8375 C   0  0  2  0  0  0
  -28.6829  -13.2360   20.9684 C   0  0  0  0  0  0
  -25.2444  -13.8170   20.5727 C   0  0  0  0  0  0
  -24.1754  -13.0415   20.9228 C   0  0  0  0  0  0
  -24.6343  -11.6893   20.8769 C   0  0  0  0  0  0
  -23.9026  -10.4280   21.0430 C   0  0  0  0  0  0
  -24.3581   -9.4190   21.9198 C   0  0  0  0  0  0
  -23.6265   -8.2216   22.0744 C   0  0  0  0  0  0
  -22.4243   -8.0265   21.3542 C   0  0  0  0  0  0
  -21.9886   -9.0240   20.4644 C   0  0  0  0  0  0
  -22.7208  -10.2121   20.3065 C   0  0  0  0  0  0
  -21.6830   -6.0733   22.5280 C   0  0  0  0  0  0
  -21.4022   -6.5641   23.8220 C   0  0  0  0  0  0
  -21.3652   -5.6784   24.9171 C   0  0  0  0  0  0
  -21.6038   -4.3053   24.7215 C   0  0  0  0  0  0
  -21.8813   -3.8147   23.4340 C   0  0  0  0  0  0
  -21.9181   -4.6967   22.3400 C   0  0  0  0  0  0
  -22.7767  -13.5191   21.1861 C   0  0  0  0  0  0
  -22.1637   -4.2158   21.0972 F   0  0  0  0  0  0
  -21.5627   -3.4536   25.7735 F   0  0  0  0  0  0
  -29.9680  -13.5856   20.3524 N   0  0  0  0  0  0
  -26.2865  -12.9376   20.3285 N   0  0  0  0  0  0
  -25.9272  -11.6522   20.5769 N   0  0  0  0  0  0
  -22.0427  -12.8210   22.0435 N   0  0  0  0  0  0
  -25.4086  -15.1889   20.4133 N   0  0  0  0  0  0
  -31.9323  -14.6220   20.2252 O   0  0  0  0  0  0
  -21.6601   -6.8864   21.4239 O   0  0  0  0  0  0
  -22.3447  -14.5468   20.6652 O   0  0  0  0  0  0
  -24.6299  -31.8596   23.2039 C   0  0  0  0  0  0
  -25.9149  -32.4767   23.8360 C   0  0  1  0  0  0
  -27.1957  -27.2836   20.1160 C   0  0  0  0  0  0
  -25.5960  -33.8574   24.2287 N   0  0  0  0  0  0
  -23.4221  -30.4911   21.5469 C   0  0  2  0  0  0
  -24.8661  -28.9476   20.1130 C   0  0  0  0  0  0
  -22.7470  -29.4654   22.4894 C   0  0  0  0  0  0
  -18.0285  -28.1387   22.8470 C   0  0  0  0  0  0
  -24.1493  -36.7282   23.2634 C   0  0  0  0  0  0
  -25.9717  -30.7758   21.3871 C   0  0  0  0  0  0
  -26.0412  -29.4026   20.7269 C   0  0  0  0  0  0
  -27.2139  -28.5800   20.7266 C   0  0  0  0  0  0
  -26.0092  -26.9115   19.4557 C   0  0  0  0  0  0
  -24.8518  -27.7047   19.4701 C   0  0  0  0  0  0
  -23.6404  -29.8359   20.1613 C   0  0  0  0  0  0
  -25.4111  -36.3075   24.0339 C   0  0  1  0  0  0
  -20.5892  -28.3704   23.1255 C   0  0  2  0  0  0
  -20.6781  -26.9418   22.5406 C   0  0  0  0  0  0
  -19.5768  -26.6383   21.5195 C   0  0  0  0  0  0
  -18.1938  -26.7929   22.1594 C   0  0  0  0  0  0
  -19.1544  -28.8852   23.2865 C   0  0  0  0  0  0
  -18.9465  -30.1455   23.8889 C   0  0  0  0  0  0
  -17.6476  -30.6587   24.0559 C   0  0  0  0  0  0
  -25.9057  -34.9442   23.5103 C   0  0  0  0  0  0
  -16.5361  -29.9093   23.6331 C   0  0  0  0  0  0
  -16.7279  -28.6508   23.0340 C   0  0  0  0  0  0
  -26.4513  -31.6579   25.0743 C   0  0  0  0  0  0
  -25.3731  -31.3742   26.1466 C   0  0  0  0  0  0
  -27.0350  -30.2978   24.6246 C   0  0  0  0  0  0
  -27.6080  -32.4306   25.7499 C   0  0  0  0  0  0
  -27.5582  -37.1788   24.8460 C   0  0  0  0  0  0
  -21.4176  -29.3064   22.3633 N   0  0  0  0  0  0
  -26.4279  -37.3778   23.9424 N   0  0  0  0  0  0
  -24.6936  -31.0591   22.1014 N   0  0  0  0  0  0
  -23.4176  -28.8172   23.2962 O   0  0  0  0  0  0
  -28.2390  -26.3374   20.1351 O   0  0  0  0  0  0
  -26.5609  -34.8911   22.4659 O   0  0  0  0  0  0
  -23.5460  -32.1421   23.7347 O   0  0  0  0  0  0
  -28.1055  -21.1838   19.9214 C   0  0  0  0  0  0
  -29.5466  -23.1131   21.2707 C   0  0  0  0  0  0
  -29.1937  -20.7060   20.7023 C   0  0  0  0  0  0
  -27.7002  -22.5732   19.8143 C   0  0  0  0  0  0
  -29.9347  -21.7407   21.3507 C   0  0  0  0  0  0
  -28.4122  -23.5948   20.5652 C   0  0  0  0  0  0
  -28.4685  -18.0513   20.6062 C   0  0  0  0  0  0
  -30.7525  -18.6209   20.1043 C   0  0  0  0  0  0
  -28.8819  -16.5587   21.0002 C   0  0  0  0  0  0
  -31.2129  -17.1809   20.5317 C   0  0  0  0  0  0
  -29.5386  -19.1502   20.8886 C   0  0  0  0  0  0
  -31.1688  -21.4357   22.1856 C   0  0  0  0  0  0
  -25.9872  -21.6933   18.0583 C   0  0  0  0  0  0
  -27.0164  -23.8951   17.7812 C   0  0  0  0  0  0
  -25.2740  -23.4321   19.6117 C   0  0  0  0  0  0
  -27.9386  -25.0954   20.9129 C   0  0  0  0  0  0
  -26.5185  -22.9112   18.8590 C   0  0  0  0  0  0
  -30.2158  -16.0516   20.5517 N   0  0  0  0  0  0
  -31.4412  -12.5497   19.1483 H   0  0  0  0  0  0
  -30.3285  -11.5160   19.9878 H   0  0  0  0  0  0
  -29.7803  -11.7214   17.5193 H   0  0  0  0  0  0
  -29.6055  -13.4532   17.7069 H   0  0  0  0  0  0
  -27.8938  -11.2669   18.9345 H   0  0  0  0  0  0
  -27.3623  -12.4856   17.8056 H   0  0  0  0  0  0
  -27.5935  -14.2278   19.3977 H   0  0  0  0  0  0
  -28.7398  -12.2599   21.4526 H   0  0  0  0  0  0
  -28.4213  -13.9462   21.7529 H   0  0  0  0  0  0
  -25.2714   -9.5668   22.4780 H   0  0  0  0  0  0
  -23.9982   -7.4589   22.7441 H   0  0  0  0  0  0
  -21.0818   -8.8757   19.8936 H   0  0  0  0  0  0
  -22.3663  -10.9671   19.6172 H   0  0  0  0  0  0
  -21.2035   -7.6150   23.9729 H   0  0  0  0  0  0
  -21.1473   -6.0511   25.9072 H   0  0  0  0  0  0
  -22.0602   -2.7614   23.2829 H   0  0  0  0  0  0
  -22.4044  -11.9863   22.4837 H   0  0  0  0  0  0
  -21.1050  -13.1253   22.2631 H   0  0  0  0  0  0
  -24.6297  -15.8303   20.5128 H   0  0  0  0  0  0
  -26.2447  -15.6348   20.0607 H   0  0  0  0  0  0
  -26.7200  -32.5414   23.1086 H   0  0  0  0  0  0
  -25.0134  -33.9727   25.0446 H   0  0  0  0  0  0
  -22.7171  -31.3143   21.4088 H   0  0  0  0  0  0
  -23.3767  -35.9600   23.3272 H   0  0  0  0  0  0
  -24.3595  -36.8916   22.2051 H   0  0  0  0  0  0
  -23.7228  -37.6471   23.6663 H   0  0  0  0  0  0
  -26.1203  -31.5367   20.6200 H   0  0  0  0  0  0
  -26.8452  -30.8146   22.0257 H   0  0  0  0  0  0
  -28.1098  -28.9199   21.2261 H   0  0  0  0  0  0
  -25.9496  -25.9835   18.9194 H   0  0  0  0  0  0
  -23.9544  -27.3525   18.9790 H   0  0  0  0  0  0
  -23.7701  -30.6189   19.4134 H   0  0  0  0  0  0
  -22.7541  -29.2799   19.8495 H   0  0  0  0  0  0
  -25.1279  -36.1918   25.0832 H   0  0  0  0  0  0
  -21.0006  -28.3302   24.1362 H   0  0  0  0  0  0
  -20.5657  -26.2308   23.3609 H   0  0  0  0  0  0
  -21.6650  -26.7433   22.1219 H   0  0  0  0  0  0
  -19.6936  -25.6284   21.1243 H   0  0  0  0  0  0
  -19.6729  -27.3175   20.6709 H   0  0  0  0  0  0
  -17.4215  -26.6664   21.3993 H   0  0  0  0  0  0
  -18.0350  -26.0073   22.8994 H   0  0  0  0  0  0
  -19.7956  -30.7258   24.2246 H   0  0  0  0  0  0
  -17.5045  -31.6265   24.5163 H   0  0  0  0  0  0
  -15.5363  -30.2999   23.7670 H   0  0  0  0  0  0
  -15.8665  -28.0843   22.7057 H   0  0  0  0  0  0
  -24.5942  -30.7036   25.7818 H   0  0  0  0  0  0
  -24.8881  -32.2909   26.4826 H   0  0  0  0  0  0
  -25.8059  -30.8988   27.0276 H   0  0  0  0  0  0
  -26.2941  -29.6722   24.1253 H   0  0  0  0  0  0
  -27.3982  -29.7251   25.4791 H   0  0  0  0  0  0
  -27.8847  -30.4224   23.9531 H   0  0  0  0  0  0
  -27.2717  -33.3620   26.2063 H   0  0  0  0  0  0
  -28.3891  -32.6830   25.0317 H   0  0  0  0  0  0
  -28.0748  -31.8431   26.5413 H   0  0  0  0  0  0
  -28.2582  -38.0101   24.7532 H   0  0  0  0  0  0
  -28.1089  -36.2636   24.6236 H   0  0  0  0  0  0
  -27.2314  -37.1394   25.8864 H   0  0  0  0  0  0
  -20.9329  -29.8774   21.6854 H   0  0  0  0  0  0
  -26.0159  -38.2844   24.1436 H   0  0  0  0  0  0
  -27.5618  -20.4121   19.4025 H   0  0  0  0  0  0
  -30.1213  -23.8312   21.8390 H   0  0  0  0  0  0
  -27.5528  -18.3102   21.1405 H   0  0  0  0  0  0
  -28.2054  -18.0762   19.5471 H   0  0  0  0  0  0
  -30.5383  -18.6400   19.0337 H   0  0  0  0  0  0
  -31.5931  -19.3006   20.2423 H   0  0  0  0  0  0
  -28.0999  -15.9033   20.6372 H   0  0  0  0  0  0
  -28.8609  -16.4750   22.0863 H   0  0  0  0  0  0
  -31.6302  -17.2430   21.5382 H   0  0  0  0  0  0
  -32.0592  -16.9511   19.8813 H   0  0  0  0  0  0
  -29.7565  -19.0395   21.9494 H   0  0  0  0  0  0
  -31.3365  -22.2177   22.9271 H   0  0  0  0  0  0
  -32.0530  -21.3918   21.5481 H   0  0  0  0  0  0
  -31.0937  -20.5037   22.7404 H   0  0  0  0  0  0
  -26.7578  -21.2295   17.4413 H   0  0  0  0  0  0
  -25.1854  -21.9886   17.3789 H   0  0  0  0  0  0
  -25.5635  -20.9255   18.7071 H   0  0  0  0  0  0
  -27.5178  -24.7643   18.1953 H   0  0  0  0  0  0
  -26.1989  -24.2433   17.1481 H   0  0  0  0  0  0
  -27.7483  -23.4182   17.1292 H   0  0  0  0  0  0
  -24.9053  -22.6935   20.3243 H   0  0  0  0  0  0
  -24.4595  -23.6496   18.9189 H   0  0  0  0  0  0
  -25.4215  -24.3444   20.1664 H   0  0  0  0  0  0
  -28.4524  -25.3158   21.8485 H   0  0  0  0  0  0
  -26.9183  -25.0862   21.2817 H   0  0  0  0  0  0
  1 25  1  0  0  0
  1 30  2  0  0  0
  1 88  1  0  0  0
  2  3  1  0  0  0
  2 25  1  0  0  0
  2 89  1  0  0  0
  2 90  1  0  0  0
  3  4  1  0  0  0
  3 91  1  0  0  0
  3 92  1  0  0  0
  4  5  1  0  0  0
  4 93  1  0  0  0
  4 94  1  0  0  0
  5  6  1  0  0  0
  5 26  1  0  0  0
  5 95  1  0  0  0
  6 25  1  0  0  0
  6 96  1  0  0  0
  6 97  1  0  0  0
  7  8  2  0  0  0
  7 26  1  0  0  0
  7 29  1  0  0  0
  8  9  1  0  0  0
  8 22  1  0  0  0
  9 10  1  0  0  0
  9 27  2  0  0  0
 10 11  2  0  0  0
 10 15  1  0  0  0
 11 12  1  0  0  0
 11 98  1  0  0  0
 12 13  2  0  0  0
 12 99  1  0  0  0
 13 14  1  0  0  0
 13 31  1  0  0  0
 14 15  2  0  0  0
 14100  1  0  0  0
 15101  1  0  0  0
 16 17  2  0  0  0
 16 21  1  0  0  0
 16 31  1  0  0  0
 17 18  1  0  0  0
 17102  1  0  0  0
 18 19  2  0  0  0
 18103  1  0  0  0
 19 20  1  0  0  0
 19 24  1  0  0  0
 20 21  2  0  0  0
 20104  1  0  0  0
 21 23  1  0  0  0
 22 28  1  0  0  0
 22 32  2  0  0  0
 26 27  1  0  0  0
 28105  1  0  0  0
 28106  1  0  0  0
 29107  1  0  0  0
 29108  1  0  0  0
 33 34  1  0  0  0
 33 66  1  0  0  0
 33 70  2  0  0  0
 34 36  1  0  0  0
 34 59  1  0  0  0
 34109  1  0  0  0
 35 44  2  0  0  0
 35 45  1  0  0  0
 35 68  1  0  0  0
 36 56  1  0  0  0
 36110  1  0  0  0
 37 39  1  0  0  0
 37 47  1  0  0  0
 37 66  1  0  0  0
 37111  1  0  0  0
 38 43  2  0  0  0
 38 46  1  0  0  0
 38 47  1  0  0  0
 39 64  1  0  0  0
 39 67  2  0  0  0
 40 52  1  0  0  0
 40 53  2  0  0  0
 40 58  1  0  0  0
 41112  1  0  0  0
 41113  1  0  0  0
 41114  1  0  0  0
 41 48  1  0  0  0
 42 43  1  0  0  0
 42 66  1  0  0  0
 42115  1  0  0  0
 42116  1  0  0  0
 43 44  1  0  0  0
 44117  1  0  0  0
 45 46  2  0  0  0
 45118  1  0  0  0
 46119  1  0  0  0
 47120  1  0  0  0
 47121  1  0  0  0
 48 56  1  0  0  0
 48 65  1  0  0  0
 48122  1  0  0  0
 49 50  1  0  0  0
 49 53  1  0  0  0
 49 64  1  0  0  0
 49123  1  0  0  0
 50 51  1  0  0  0
 50124  1  0  0  0
 50125  1  0  0  0
 51 52  1  0  0  0
 51126  1  0  0  0
 51127  1  0  0  0
 52128  1  0  0  0
 52129  1  0  0  0
 53 54  1  0  0  0
 54 55  2  0  0  0
 54130  1  0  0  0
 55 57  1  0  0  0
 55131  1  0  0  0
 56 69  2  0  0  0
 57 58  2  0  0  0
 57132  1  0  0  0
 58133  1  0  0  0
 59 60  1  0  0  0
 59 61  1  0  0  0
 59 62  1  0  0  0
 60134  1  0  0  0
 60135  1  0  0  0
 60136  1  0  0  0
 61137  1  0  0  0
 61138  1  0  0  0
 61139  1  0  0  0
 62140  1  0  0  0
 62141  1  0  0  0
 62142  1  0  0  0
 63 65  1  0  0  0
 63143  1  0  0  0
 63144  1  0  0  0
 63145  1  0  0  0
 64146  1  0  0  0
 65147  1  0  0  0
 68 86  1  0  0  0
 71 73  2  0  0  0
 71 74  1  0  0  0
 71148  1  0  0  0
 72 75  2  0  0  0
 72 76  1  0  0  0
 72149  1  0  0  0
 73 75  1  0  0  0
 73 81  1  0  0  0
 74 76  2  0  0  0
 74 87  1  0  0  0
 75 82  1  0  0  0
 76 86  1  0  0  0
 77 79  1  0  0  0
 77 81  1  0  0  0
 77150  1  0  0  0
 77151  1  0  0  0
 78 80  1  0  0  0
 78 81  1  0  0  0
 78152  1  0  0  0
 78153  1  0  0  0
 79 88  1  0  0  0
 79154  1  0  0  0
 79155  1  0  0  0
 80 88  1  0  0  0
 80156  1  0  0  0
 80157  1  0  0  0
 81158  1  0  0  0
 82159  1  0  0  0
 82160  1  0  0  0
 82161  1  0  0  0
 83162  1  0  0  0
 83163  1  0  0  0
 83164  1  0  0  0
 83 87  1  0  0  0
 84 87  1  0  0  0
 84165  1  0  0  0
 84166  1  0  0  0
 84167  1  0  0  0
 85 87  1  0  0  0
 85168  1  0  0  0
 85169  1  0  0  0
 85170  1  0  0  0
 86171  1  0  0  0
 86172  1  0  0  0
M  ISO  4   1 100  68 101  86 101  88 100
M  END
> <chiral flag>
0

> <version>
0

> <s_m_source_file>
/data/baiqing/PycharmProjects/Reinvent-master-3.2/result/LINK_invent/BTK/process_docking_weight1_custom_sum_contain_oxygen_bond_distance_aromatic_linkinvent_7_9_3/rearranged_h_0158.sdf

> <i_m_source_file_index>
12

> <r_mmod_Potential_Energy-OPLS-2005>
483.134368896484

> <r_mmod_Stretch_Energy-OPLS-2005>
126.48225402832

> <r_mmod_Bend_Energy-OPLS-2005>
242.161056518555

> <r_mmod_Torsional_Energy-OPLS-2005>
342.196319580078

> <r_mmod_Improper_Torsional_Energy-OPLS-2005>
9.18037700653076

> <r_mmod_Van_der_Waal_Energy-OPLS-2005>
171.691253662109

> <r_mmod_Electrostatic_Energy-OPLS-2005>
-315.656158447266

> <r_mmod_Solvation_Energy-OPLS-2005>
-188.072296142578

> <b_mmod_Minimization_Converged-OPLS-2005>
0

> <r_mmod_RMS_Derivative-OPLS-2005>
3.02062964439392

$$$$
12
                    3D
 Structure written by MMmdl.
170179  0  0  1  0            999 V2000
  -30.6421  -14.9419   20.3941 C   0  0  0  0  0  0
  -30.4115  -12.5966   19.4834 C   0  0  0  0  0  0
  -29.5001  -12.5040   18.2450 C   0  0  0  0  0  0
  -28.0415  -12.2930   18.6794 C   0  0  0  0  0  0
  -27.6170  -13.2535   19.8229 C   0  0  2  0  0  0
  -28.6684  -13.3406   20.9514 C   0  0  0  0  0  0
  -25.2422  -13.8229   20.5737 C   0  0  0  0  0  0
  -24.1771  -13.0471   20.9271 C   0  0  0  0  0  0
  -24.6370  -11.6926   20.8756 C   0  0  0  0  0  0
  -23.9067  -10.4281   21.0396 C   0  0  0  0  0  0
  -24.3606   -9.4193   21.9194 C   0  0  0  0  0  0
  -23.6299   -8.2215   22.0753 C   0  0  0  0  0  0
  -22.4296   -8.0246   21.3522 C   0  0  0  0  0  0
  -21.9912   -9.0225   20.4637 C   0  0  0  0  0  0
  -22.7227  -10.2106   20.3054 C   0  0  0  0  0  0
  -21.6851   -6.0720   22.5281 C   0  0  0  0  0  0
  -21.4029   -6.5636   23.8210 C   0  0  0  0  0  0
  -21.3659   -5.6791   24.9174 C   0  0  0  0  0  0
  -21.6051   -4.3068   24.7240 C   0  0  0  0  0  0
  -21.8833   -3.8130   23.4370 C   0  0  0  0  0  0
  -21.9201   -4.6937   22.3410 C   0  0  0  0  0  0
  -22.7776  -13.5202   21.1896 C   0  0  0  0  0  0
  -22.1663   -4.2110   21.0996 F   0  0  0  0  0  0
  -21.5617   -3.4564   25.7759 F   0  0  0  0  0  0
  -29.9292  -13.7445   20.3100 N   0  0  0  0  0  0
  -26.2833  -12.9478   20.3211 N   0  0  0  0  0  0
  -25.9286  -11.6586   20.5690 N   0  0  0  0  0  0
  -22.0429  -12.8174   22.0430 N   0  0  0  0  0  0
  -25.4166  -15.1966   20.4130 N   0  0  0  0  0  0
  -31.8606  -14.8246   20.2319 O   0  0  0  0  0  0
  -21.6675   -6.8846   21.4229 O   0  0  0  0  0  0
  -22.3440  -14.5502   20.6721 O   0  0  0  0  0  0
  -24.6409  -31.8481   23.1883 C   0  0  0  0  0  0
  -25.9180  -32.4746   23.8294 C   0  0  1  0  0  0
  -27.2005  -27.1447   20.1352 C   0  0  0  0  0  0
  -25.5905  -33.8544   24.2189 N   0  0  0  0  0  0
  -23.4445  -30.4777   21.5234 C   0  0  2  0  0  0
  -24.8972  -28.9087   20.0971 C   0  0  0  0  0  0
  -22.7542  -29.4611   22.4706 C   0  0  0  0  0  0
  -18.0322  -28.1315   22.8360 C   0  0  0  0  0  0
  -24.1466  -36.7285   23.2637 C   0  0  0  0  0  0
  -25.9981  -30.7196   21.3926 C   0  0  0  0  0  0
  -26.0642  -29.3282   20.7450 C   0  0  0  0  0  0
  -27.2113  -28.4524   20.7700 C   0  0  0  0  0  0
  -26.0449  -26.8771   19.3947 C   0  0  0  0  0  0
  -24.8984  -27.6938   19.4034 C   0  0  0  0  0  0
  -23.6777  -29.8129   20.1388 C   0  0  0  0  0  0
  -25.4095  -36.3044   24.0299 C   0  0  1  0  0  0
  -20.5928  -28.3689   23.1007 C   0  0  2  0  0  0
  -20.6817  -26.9353   22.5205 C   0  0  0  0  0  0
  -19.5745  -26.6269   21.5111 C   0  0  0  0  0  0
  -18.1942  -26.7830   22.1538 C   0  0  0  0  0  0
  -19.1573  -28.8817   23.2712 C   0  0  0  0  0  0
  -18.9453  -30.1371   23.8820 C   0  0  0  0  0  0
  -17.6450  -30.6514   24.0488 C   0  0  0  0  0  0
  -25.9060  -34.9437   23.5060 C   0  0  0  0  0  0
  -16.5356  -29.8989   23.6251 C   0  0  0  0  0  0
  -16.7305  -28.6406   23.0268 C   0  0  0  0  0  0
  -26.4521  -31.6605   25.0728 C   0  0  0  0  0  0
  -25.3693  -31.3825   26.1412 C   0  0  0  0  0  0
  -27.0389  -30.3002   24.6306 C   0  0  0  0  0  0
  -27.6028  -32.4368   25.7552 C   0  0  0  0  0  0
  -27.5552  -37.1793   24.8455 C   0  0  0  0  0  0
  -21.4260  -29.2970   22.3321 N   0  0  0  0  0  0
  -26.4256  -37.3762   23.9403 N   0  0  0  0  0  0
  -24.7141  -31.0379   22.0895 N   0  0  0  0  0  0
  -23.4144  -28.8180   23.2907 O   0  0  0  0  0  0
  -28.2269  -26.1416   20.2491 O   0  0  0  0  0  0
  -26.5680  -34.8931   22.4652 O   0  0  0  0  0  0
  -23.5526  -32.1295   23.7101 O   0  0  0  0  0  0
  -25.8543  -21.8443   21.8753 C   0  0  0  0  0  0
  -25.2907  -22.6578   20.8878 C   0  0  0  0  0  0
  -26.1389  -23.3023   19.9620 C   0  0  0  0  0  0
  -27.5513  -23.3251   20.1685 C   0  0  0  0  0  0
  -28.0323  -22.0135   20.7386 C   0  0  0  0  0  0
  -27.2084  -21.4594   21.7644 C   0  0  0  0  0  0
  -28.7224  -16.8680   20.4751 C   0  0  0  0  0  0
  -30.9358  -17.3855   19.7015 C   0  0  0  0  0  0
  -28.5507  -18.4450   20.8674 C   0  0  0  0  0  0
  -30.7353  -18.9238   20.0973 C   0  0  0  0  0  0
  -23.7780  -22.8110   20.8135 C   0  0  0  0  0  0
  -25.5088  -23.7331   18.6406 C   0  0  0  0  0  0
  -26.9552  -19.8984   23.6074 C   0  0  0  0  0  0
  -29.3286  -21.0758   20.4304 C   0  0  0  0  0  0
  -28.3220  -24.6910   19.6599 C   0  0  0  0  0  0
  -30.0952  -16.2722   20.2910 N   0  0  0  0  0  0
  -29.3466  -19.5004   20.1100 N   0  3  0  0  0  0
  -27.7730  -20.5364   22.6222 O   0  0  0  0  0  0
  -31.4462  -12.7063   19.1613 H   0  0  0  0  0  0
  -30.3886  -11.6694   20.0587 H   0  0  0  0  0  0
  -29.8214  -11.6841   17.6012 H   0  0  0  0  0  0
  -29.5871  -13.4130   17.6473 H   0  0  0  0  0  0
  -27.9473  -11.2589   19.0133 H   0  0  0  0  0  0
  -27.3676  -12.3967   17.8262 H   0  0  0  0  0  0
  -27.5648  -14.2377   19.3560 H   0  0  0  0  0  0
  -28.7751  -12.3815   21.4628 H   0  0  0  0  0  0
  -28.3681  -14.0623   21.7096 H   0  0  0  0  0  0
  -25.2726   -9.5689   22.4803 H   0  0  0  0  0  0
  -24.0012   -7.4618   22.7485 H   0  0  0  0  0  0
  -21.0836   -8.8742   19.8947 H   0  0  0  0  0  0
  -22.3675  -10.9656   19.6184 H   0  0  0  0  0  0
  -21.2047   -7.6155   23.9706 H   0  0  0  0  0  0
  -21.1451   -6.0527   25.9071 H   0  0  0  0  0  0
  -22.0611   -2.7592   23.2893 H   0  0  0  0  0  0
  -22.4054  -11.9861   22.4815 H   0  0  0  0  0  0
  -21.1030  -13.1146   22.2689 H   0  0  0  0  0  0
  -24.6470  -15.8534   20.4810 H   0  0  0  0  0  0
  -26.2656  -15.6086   20.0500 H   0  0  0  0  0  0
  -26.7266  -32.5486   23.1061 H   0  0  0  0  0  0
  -25.0008  -33.9643   25.0315 H   0  0  0  0  0  0
  -22.7495  -31.3089   21.3685 H   0  0  0  0  0  0
  -23.3727  -35.9632   23.3291 H   0  0  0  0  0  0
  -24.3533  -36.8937   22.2063 H   0  0  0  0  0  0
  -23.7295  -37.6493   23.6709 H   0  0  0  0  0  0
  -26.1459  -31.4609   20.6034 H   0  0  0  0  0  0
  -26.8698  -30.7869   22.0347 H   0  0  0  0  0  0
  -28.0867  -28.7531   21.3280 H   0  0  0  0  0  0
  -26.0364  -26.0244   18.7669 H   0  0  0  0  0  0
  -24.0329  -27.3925   18.8275 H   0  0  0  0  0  0
  -23.8313  -30.5792   19.3789 H   0  0  0  0  0  0
  -22.7972  -29.2513   19.8195 H   0  0  0  0  0  0
  -25.1298  -36.1844   25.0800 H   0  0  0  0  0  0
  -21.0207  -28.3333   24.1055 H   0  0  0  0  0  0
  -20.5711  -26.2222   23.3396 H   0  0  0  0  0  0
  -21.6679  -26.7281   22.0958 H   0  0  0  0  0  0
  -19.6862  -25.6166   21.1181 H   0  0  0  0  0  0
  -19.6633  -27.2940   20.6537 H   0  0  0  0  0  0
  -17.4202  -26.6433   21.3980 H   0  0  0  0  0  0
  -18.0434  -26.0030   22.8986 H   0  0  0  0  0  0
  -19.7919  -30.7091   24.2301 H   0  0  0  0  0  0
  -17.4995  -31.6188   24.5114 H   0  0  0  0  0  0
  -15.5357  -30.2864   23.7589 H   0  0  0  0  0  0
  -15.8707  -28.0658   22.7088 H   0  0  0  0  0  0
  -24.5829  -30.7224   25.7723 H   0  0  0  0  0  0
  -24.8937  -32.3044   26.4769 H   0  0  0  0  0  0
  -25.7930  -30.9038   27.0251 H   0  0  0  0  0  0
  -26.2995  -29.6712   24.1331 H   0  0  0  0  0  0
  -27.4033  -29.7322   25.4877 H   0  0  0  0  0  0
  -27.8909  -30.4225   23.9610 H   0  0  0  0  0  0
  -27.2577  -33.3662   26.2102 H   0  0  0  0  0  0
  -28.3908  -32.6920   25.0450 H   0  0  0  0  0  0
  -28.0635  -31.8531   26.5526 H   0  0  0  0  0  0
  -28.2549  -38.0095   24.7460 H   0  0  0  0  0  0
  -28.1045  -36.2618   24.6310 H   0  0  0  0  0  0
  -27.2245  -37.1504   25.8846 H   0  0  0  0  0  0
  -20.9542  -29.8540   21.6324 H   0  0  0  0  0  0
  -26.0102  -38.2810   24.1462 H   0  0  0  0  0  0
  -25.1995  -21.4094   22.6173 H   0  0  0  0  0  0
  -28.2057  -16.7097   19.5269 H   0  0  0  0  0  0
  -28.1779  -16.2730   21.2078 H   0  0  0  0  0  0
  -31.9969  -17.1863   19.8684 H   0  0  0  0  0  0
  -30.8199  -17.3147   18.6211 H   0  0  0  0  0  0
  -28.8115  -18.5184   21.9212 H   0  0  0  0  0  0
  -27.4970  -18.7083   20.7766 H   0  0  0  0  0  0
  -31.3456  -19.5333   19.4272 H   0  0  0  0  0  0
  -31.1521  -19.0743   21.0951 H   0  0  0  0  0  0
  -23.2750  -22.3685   21.6706 H   0  0  0  0  0  0
  -23.3955  -22.3247   19.9185 H   0  0  0  0  0  0
  -23.4995  -23.8638   20.7866 H   0  0  0  0  0  0
  -24.6744  -24.4172   18.7913 H   0  0  0  0  0  0
  -25.1092  -22.8517   18.1390 H   0  0  0  0  0  0
  -26.2060  -24.1719   17.9292 H   0  0  0  0  0  0
  -27.5395  -19.1478   24.1449 H   0  0  0  0  0  0
  -26.1022  -19.3842   23.1607 H   0  0  0  0  0  0
  -26.5895  -20.6082   24.3494 H   0  0  0  0  0  0
  -29.9946  -21.2224   21.2830 H   0  0  0  0  0  0
  -29.8539  -21.5618   19.6061 H   0  0  0  0  0  0
  -28.1914  -24.7770   18.5818 H   0  0  0  0  0  0
  -29.3794  -24.4490   19.7724 H   0  0  0  0  0  0
  -29.0121  -19.4382   19.1602 H   0  0  0  0  0  0
  1 25  1  0  0  0
  1 30  2  0  0  0
  1 86  1  0  0  0
  2  3  1  0  0  0
  2 25  1  0  0  0
  2 89  1  0  0  0
  2 90  1  0  0  0
  3  4  1  0  0  0
  3 91  1  0  0  0
  3 92  1  0  0  0
  4  5  1  0  0  0
  4 93  1  0  0  0
  4 94  1  0  0  0
  5  6  1  0  0  0
  5 26  1  0  0  0
  5 95  1  0  0  0
  6 25  1  0  0  0
  6 96  1  0  0  0
  6 97  1  0  0  0
  7  8  2  0  0  0
  7 26  1  0  0  0
  7 29  1  0  0  0
  8  9  1  0  0  0
  8 22  1  0  0  0
  9 10  1  0  0  0
  9 27  2  0  0  0
 10 11  2  0  0  0
 10 15  1  0  0  0
 11 12  1  0  0  0
 11 98  1  0  0  0
 12 13  2  0  0  0
 12 99  1  0  0  0
 13 14  1  0  0  0
 13 31  1  0  0  0
 14 15  2  0  0  0
 14100  1  0  0  0
 15101  1  0  0  0
 16 17  2  0  0  0
 16 21  1  0  0  0
 16 31  1  0  0  0
 17 18  1  0  0  0
 17102  1  0  0  0
 18 19  2  0  0  0
 18103  1  0  0  0
 19 20  1  0  0  0
 19 24  1  0  0  0
 20 21  2  0  0  0
 20104  1  0  0  0
 21 23  1  0  0  0
 22 28  1  0  0  0
 22 32  2  0  0  0
 26 27  1  0  0  0
 28105  1  0  0  0
 28106  1  0  0  0
 29107  1  0  0  0
 29108  1  0  0  0
 33 34  1  0  0  0
 33 66  1  0  0  0
 33 70  2  0  0  0
 34 36  1  0  0  0
 34 59  1  0  0  0
 34109  1  0  0  0
 35 44  2  0  0  0
 35 45  1  0  0  0
 35 68  1  0  0  0
 36 56  1  0  0  0
 36110  1  0  0  0
 37 39  1  0  0  0
 37 47  1  0  0  0
 37 66  1  0  0  0
 37111  1  0  0  0
 38 43  2  0  0  0
 38 46  1  0  0  0
 38 47  1  0  0  0
 39 64  1  0  0  0
 39 67  2  0  0  0
 40 52  1  0  0  0
 40 53  2  0  0  0
 40 58  1  0  0  0
 41112  1  0  0  0
 41113  1  0  0  0
 41114  1  0  0  0
 41 48  1  0  0  0
 42 43  1  0  0  0
 42 66  1  0  0  0
 42115  1  0  0  0
 42116  1  0  0  0
 43 44  1  0  0  0
 44117  1  0  0  0
 45 46  2  0  0  0
 45118  1  0  0  0
 46119  1  0  0  0
 47120  1  0  0  0
 47121  1  0  0  0
 48 56  1  0  0  0
 48 65  1  0  0  0
 48122  1  0  0  0
 49 50  1  0  0  0
 49 53  1  0  0  0
 49 64  1  0  0  0
 49123  1  0  0  0
 50 51  1  0  0  0
 50124  1  0  0  0
 50125  1  0  0  0
 51 52  1  0  0  0
 51126  1  0  0  0
 51127  1  0  0  0
 52128  1  0  0  0
 52129  1  0  0  0
 53 54  1  0  0  0
 54 55  2  0  0  0
 54130  1  0  0  0
 55 57  1  0  0  0
 55131  1  0  0  0
 56 69  2  0  0  0
 57 58  2  0  0  0
 57132  1  0  0  0
 58133  1  0  0  0
 59 60  1  0  0  0
 59 61  1  0  0  0
 59 62  1  0  0  0
 60134  1  0  0  0
 60135  1  0  0  0
 60136  1  0  0  0
 61137  1  0  0  0
 61138  1  0  0  0
 61139  1  0  0  0
 62140  1  0  0  0
 62141  1  0  0  0
 62142  1  0  0  0
 63 65  1  0  0  0
 63143  1  0  0  0
 63144  1  0  0  0
 63145  1  0  0  0
 64146  1  0  0  0
 65147  1  0  0  0
 68 85  1  0  0  0
 71 72  2  0  0  0
 71 76  1  0  0  0
 71148  1  0  0  0
 72 73  1  0  0  0
 72 81  1  0  0  0
 73 74  2  0  0  0
 73 82  1  0  0  0
 74 75  1  0  0  0
 74 85  1  0  0  0
 75 76  2  0  0  0
 75 84  1  0  0  0
 76 88  1  0  0  0
 77 79  1  0  0  0
 77 86  1  0  0  0
 77149  1  0  0  0
 77150  1  0  0  0
 78 80  1  0  0  0
 78 86  1  0  0  0
 78151  1  0  0  0
 78152  1  0  0  0
 79 87  1  0  0  0
 79153  1  0  0  0
 79154  1  0  0  0
 80 87  1  0  0  0
 80155  1  0  0  0
 80156  1  0  0  0
 81157  1  0  0  0
 81158  1  0  0  0
 81159  1  0  0  0
 82160  1  0  0  0
 82161  1  0  0  0
 82162  1  0  0  0
 83 88  1  0  0  0
 83163  1  0  0  0
 83164  1  0  0  0
 83165  1  0  0  0
 84166  1  0  0  0
 84167  1  0  0  0
 84 87  1  0  0  0
 85168  1  0  0  0
 85169  1  0  0  0
 87170  1  0  0  0
M  CHG  1  87   1
M  ISO  4   1 100  68 101  85 101  86 100
M  END
> <chiral flag>
0

> <version>
0

> <s_m_source_file>
/data/baiqing/PycharmProjects/Reinvent-master-3.2/result/LINK_invent/BTK/process_docking_weight1_custom_sum_contain_oxygen_bond_distance_aromatic_linkinvent_7_9_3/rearranged_h_0158.sdf

> <i_m_source_file_index>
13

> <r_mmod_Potential_Energy-OPLS-2005>
798.165161132812

> <r_mmod_Stretch_Energy-OPLS-2005>
254.92057800293

> <r_mmod_Bend_Energy-OPLS-2005>
382.028533935547

> <r_mmod_Torsional_Energy-OPLS-2005>
492.302520751953

> <r_mmod_Improper_Torsional_Energy-OPLS-2005>
11.9608135223389

> <r_mmod_Van_der_Waal_Energy-OPLS-2005>
160.908309936523

> <r_mmod_Electrostatic_Energy-OPLS-2005>
-265.450897216797

> <r_mmod_Solvation_Energy-OPLS-2005>
-438.906951904297

> <b_mmod_Minimization_Converged-OPLS-2005>
0

> <r_mmod_RMS_Derivative-OPLS-2005>
6.75433826446533

$$$$
13
                    3D
 Structure written by MMmdl.
170180  0  0  1  0            999 V2000
  -30.6862  -14.5754   20.5869 C   0  0  0  0  0  0
  -30.4314  -12.3715   19.4692 C   0  0  0  0  0  0
  -29.5081  -12.5246   18.2399 C   0  0  0  0  0  0
  -28.0287  -12.3602   18.6374 C   0  0  0  0  0  0
  -27.6577  -13.2173   19.8755 C   0  0  2  0  0  0
  -28.6953  -13.0332   21.0061 C   0  0  0  0  0  0
  -25.2599  -13.8182   20.5726 C   0  0  0  0  0  0
  -24.1834  -13.0457   20.9185 C   0  0  0  0  0  0
  -24.6394  -11.6915   20.8734 C   0  0  0  0  0  0
  -23.9041  -10.4310   21.0452 C   0  0  0  0  0  0
  -24.3599   -9.4228   21.9226 C   0  0  0  0  0  0
  -23.6297   -8.2242   22.0741 C   0  0  0  0  0  0
  -22.4277   -8.0271   21.3557 C   0  0  0  0  0  0
  -21.9892   -9.0252   20.4664 C   0  0  0  0  0  0
  -22.7234  -10.2139   20.3086 C   0  0  0  0  0  0
  -21.6852   -6.0740   22.5306 C   0  0  0  0  0  0
  -21.4035   -6.5623   23.8234 C   0  0  0  0  0  0
  -21.3650   -5.6783   24.9182 C   0  0  0  0  0  0
  -21.6032   -4.3051   24.7238 C   0  0  0  0  0  0
  -21.8817   -3.8137   23.4364 C   0  0  0  0  0  0
  -21.9209   -4.6961   22.3432 C   0  0  0  0  0  0
  -22.7883  -13.5287   21.1843 C   0  0  0  0  0  0
  -22.1701   -4.2157   21.1010 F   0  0  0  0  0  0
  -21.5585   -3.4525   25.7754 F   0  0  0  0  0  0
  -30.0182  -13.3811   20.4628 N   0  0  0  0  0  0
  -26.3007  -12.9369   20.3319 N   0  0  0  0  0  0
  -25.9313  -11.6508   20.5734 N   0  0  0  0  0  0
  -22.0489  -12.8300   22.0383 N   0  0  0  0  0  0
  -25.4347  -15.1912   20.4254 N   0  0  0  0  0  0
  -31.8148  -14.7143   20.1022 O   0  0  0  0  0  0
  -21.6621   -6.8869   21.4263 O   0  0  0  0  0  0
  -22.3599  -14.5636   20.6701 O   0  0  0  0  0  0
  -24.6214  -31.8647   23.2060 C   0  0  0  0  0  0
  -25.9073  -32.4823   23.8383 C   0  0  1  0  0  0
  -27.2332  -27.3544   20.1514 C   0  0  0  0  0  0
  -25.5907  -33.8616   24.2316 N   0  0  0  0  0  0
  -23.4154  -30.4847   21.5468 C   0  0  2  0  0  0
  -24.8682  -28.9355   20.1245 C   0  0  0  0  0  0
  -22.7467  -29.4634   22.4971 C   0  0  0  0  0  0
  -18.0274  -28.1398   22.8506 C   0  0  0  0  0  0
  -24.1479  -36.7309   23.2643 C   0  0  0  0  0  0
  -25.9498  -30.8036   21.3746 C   0  0  0  0  0  0
  -26.0297  -29.4262   20.7388 C   0  0  0  0  0  0
  -27.2172  -28.6436   20.7513 C   0  0  0  0  0  0
  -26.0589  -26.9011   19.5175 C   0  0  0  0  0  0
  -24.8811  -27.6734   19.5083 C   0  0  0  0  0  0
  -23.6329  -29.8121   20.1651 C   0  0  0  0  0  0
  -25.4101  -36.3116   24.0347 C   0  0  1  0  0  0
  -20.5875  -28.3685   23.1323 C   0  0  2  0  0  0
  -20.6752  -26.9402   22.5471 C   0  0  0  0  0  0
  -19.5755  -26.6387   21.5246 C   0  0  0  0  0  0
  -18.1917  -26.7961   22.1605 C   0  0  0  0  0  0
  -19.1532  -28.8854   23.2913 C   0  0  0  0  0  0
  -18.9438  -30.1458   23.8921 C   0  0  0  0  0  0
  -17.6453  -30.6609   24.0560 C   0  0  0  0  0  0
  -25.9038  -34.9482   23.5121 C   0  0  0  0  0  0
  -16.5335  -29.9107   23.6332 C   0  0  0  0  0  0
  -16.7279  -28.6520   23.0363 C   0  0  0  0  0  0
  -26.4475  -31.6623   25.0743 C   0  0  0  0  0  0
  -25.3728  -31.3826   26.1499 C   0  0  0  0  0  0
  -27.0266  -30.3032   24.6183 C   0  0  0  0  0  0
  -27.6090  -32.4337   25.7446 C   0  0  0  0  0  0
  -27.5594  -37.1785   24.8453 C   0  0  0  0  0  0
  -21.4177  -29.3033   22.3705 N   0  0  0  0  0  0
  -26.4295  -37.3803   23.9424 N   0  0  0  0  0  0
  -24.6805  -31.0673   22.0995 N   0  0  0  0  0  0
  -23.4194  -28.8163   23.3032 O   0  0  0  0  0  0
  -28.3597  -26.5483   20.0522 O   0  0  0  0  0  0
  -26.5591  -34.8935   22.4684 O   0  0  0  0  0  0
  -23.5387  -32.1400   23.7409 O   0  0  0  0  0  0
  -29.1226  -21.1519   22.0258 C   0  0  0  0  0  0
  -28.1751  -19.8032   23.8133 C   0  0  0  0  0  0
  -28.8580  -19.8495   22.5822 C   0  0  0  0  0  0
  -28.7236  -22.3613   22.7084 C   0  0  0  0  0  0
  -27.7908  -20.9573   24.5055 C   0  0  0  0  0  0
  -28.0953  -22.2348   23.9854 C   0  0  0  0  0  0
  -29.8768  -18.3120   20.6118 C   0  0  0  0  0  0
  -29.7897  -17.3917   22.8522 C   0  0  0  0  0  0
  -29.4820  -24.3707   20.8364 C   0  0  0  0  0  0
  -27.7834  -24.8215   21.9320 C   0  0  0  0  0  0
  -29.8473  -16.8562   20.0166 C   0  0  0  0  0  0
  -29.5546  -15.9422   22.3459 C   0  0  0  0  0  0
  -29.1074  -18.4408   21.9353 C   0  0  0  0  0  0
  -28.9553  -23.8193   22.1850 C   0  0  1  0  0  0
  -28.7770  -25.7295   21.1781 C   0  0  2  0  0  0
  -27.0097  -20.7833   25.8001 C   0  0  0  0  0  0
  -27.7184  -23.4573   24.8272 C   0  0  0  0  0  0
  -29.9607  -15.6886   20.9475 N   0  0  0  0  0  0
  -31.4807  -12.4722   19.1768 H   0  0  0  0  0  0
  -30.3478  -11.3732   19.9009 H   0  0  0  0  0  0
  -29.7802  -11.7996   17.4755 H   0  0  0  0  0  0
  -29.6522  -13.5071   17.7880 H   0  0  0  0  0  0
  -27.8578  -11.3058   18.8575 H   0  0  0  0  0  0
  -27.3802  -12.6093   17.7966 H   0  0  0  0  0  0
  -27.6910  -14.2583   19.5544 H   0  0  0  0  0  0
  -28.7021  -11.9999   21.3530 H   0  0  0  0  0  0
  -28.4281  -13.6221   21.8809 H   0  0  0  0  0  0
  -25.2759   -9.5697   22.4775 H   0  0  0  0  0  0
  -24.0036   -7.4616   22.7419 H   0  0  0  0  0  0
  -21.0807   -8.8792   19.9011 H   0  0  0  0  0  0
  -22.3722  -10.9651   19.6149 H   0  0  0  0  0  0
  -21.2058   -7.6147   23.9748 H   0  0  0  0  0  0
  -21.1462   -6.0503   25.9089 H   0  0  0  0  0  0
  -22.0605   -2.7599   23.2850 H   0  0  0  0  0  0
  -22.4083  -11.9968   22.4799 H   0  0  0  0  0  0
  -21.1126  -13.1380   22.2581 H   0  0  0  0  0  0
  -24.6771  -15.8503   20.5677 H   0  0  0  0  0  0
  -26.3031  -15.6350   20.1548 H   0  0  0  0  0  0
  -26.7133  -32.5534   23.1134 H   0  0  0  0  0  0
  -25.0066  -33.9777   25.0467 H   0  0  0  0  0  0
  -22.7065  -31.3023   21.4022 H   0  0  0  0  0  0
  -23.3770  -35.9617   23.3298 H   0  0  0  0  0  0
  -24.3583  -36.8932   22.2064 H   0  0  0  0  0  0
  -23.7180  -37.6492   23.6650 H   0  0  0  0  0  0
  -26.0665  -31.5558   20.5930 H   0  0  0  0  0  0
  -26.8374  -30.8686   21.9923 H   0  0  0  0  0  0
  -28.1162  -29.0182   21.2195 H   0  0  0  0  0  0
  -26.0511  -25.9338   19.0345 H   0  0  0  0  0  0
  -23.9916  -27.2934   19.0229 H   0  0  0  0  0  0
  -23.7472  -30.5821   19.4023 H   0  0  0  0  0  0
  -22.7575  -29.2332   19.8666 H   0  0  0  0  0  0
  -25.1272  -36.1988   25.0841 H   0  0  0  0  0  0
  -20.9988  -28.3274   24.1434 H   0  0  0  0  0  0
  -20.5647  -26.2286   23.3670 H   0  0  0  0  0  0
  -21.6619  -26.7438   22.1273 H   0  0  0  0  0  0
  -19.6901  -25.6300   21.1268 H   0  0  0  0  0  0
  -19.6738  -27.3202   20.6787 H   0  0  0  0  0  0
  -17.4226  -26.6799   21.3949 H   0  0  0  0  0  0
  -18.0241  -26.0095   22.8976 H   0  0  0  0  0  0
  -19.7921  -30.7249   24.2317 H   0  0  0  0  0  0
  -17.5010  -31.6290   24.5171 H   0  0  0  0  0  0
  -15.5332  -30.2990   23.7670 H   0  0  0  0  0  0
  -15.8686  -28.0836   22.7058 H   0  0  0  0  0  0
  -24.5915  -30.7120   25.7879 H   0  0  0  0  0  0
  -24.8889  -32.3022   26.4824 H   0  0  0  0  0  0
  -25.8077  -30.9114   27.0329 H   0  0  0  0  0  0
  -26.2792  -29.6818   24.1227 H   0  0  0  0  0  0
  -27.3946  -29.7274   25.4687 H   0  0  0  0  0  0
  -27.8689  -30.4283   23.9376 H   0  0  0  0  0  0
  -27.2750  -33.3640   26.2051 H   0  0  0  0  0  0
  -28.3852  -32.6897   25.0221 H   0  0  0  0  0  0
  -28.0814  -31.8452   26.5321 H   0  0  0  0  0  0
  -28.2636  -38.0063   24.7507 H   0  0  0  0  0  0
  -28.1055  -36.2599   24.6237 H   0  0  0  0  0  0
  -27.2347  -37.1428   25.8868 H   0  0  0  0  0  0
  -20.9340  -29.8723   21.6892 H   0  0  0  0  0  0
  -26.0201  -38.2882   24.1457 H   0  0  0  0  0  0
  -29.6171  -21.2245   21.0686 H   0  0  0  0  0  0
  -27.9032  -18.8500   24.2444 H   0  0  0  0  0  0
  -29.4611  -19.0032   19.8777 H   0  0  0  0  0  0
  -30.9094  -18.6203   20.7683 H   0  0  0  0  0  0
  -30.8572  -17.5990   22.9319 H   0  0  0  0  0  0
  -29.4181  -17.4362   23.8735 H   0  0  0  0  0  0
  -29.0498  -23.8650   19.9709 H   0  0  0  0  0  0
  -30.5685  -24.4198   20.7664 H   0  0  0  0  0  0
  -27.3543  -25.2798   22.8221 H   0  0  0  0  0  0
  -27.0040  -24.4036   21.2907 H   0  0  0  0  0  0
  -30.6043  -16.8008   19.2313 H   0  0  0  0  0  0
  -28.8964  -16.7199   19.5021 H   0  0  0  0  0  0
  -28.4889  -15.7322   22.4367 H   0  0  0  0  0  0
  -30.0596  -15.2403   23.0121 H   0  0  0  0  0  0
  -28.0960  -18.0784   21.7438 H   0  0  0  0  0  0
  -29.6345  -24.2384   22.9309 H   0  0  0  0  0  0
  -29.3753  -26.3211   21.8745 H   0  0  0  0  0  0
  -26.6660  -19.7580   25.9308 H   0  0  0  0  0  0
  -26.1207  -21.4149   25.8005 H   0  0  0  0  0  0
  -27.6212  -21.0313   26.6668 H   0  0  0  0  0  0
  -28.3903  -24.3006   24.6887 H   0  0  0  0  0  0
  -27.7590  -23.2486   25.8967 H   0  0  0  0  0  0
  -26.7027  -23.7774   24.5928 H   0  0  0  0  0  0
  1 25  1  0  0  0
  1 30  2  0  0  0
  1 88  1  0  0  0
  2  3  1  0  0  0
  2 25  1  0  0  0
  2 89  1  0  0  0
  2 90  1  0  0  0
  3  4  1  0  0  0
  3 91  1  0  0  0
  3 92  1  0  0  0
  4  5  1  0  0  0
  4 93  1  0  0  0
  4 94  1  0  0  0
  5  6  1  0  0  0
  5 26  1  0  0  0
  5 95  1  0  0  0
  6 25  1  0  0  0
  6 96  1  0  0  0
  6 97  1  0  0  0
  7  8  2  0  0  0
  7 26  1  0  0  0
  7 29  1  0  0  0
  8  9  1  0  0  0
  8 22  1  0  0  0
  9 10  1  0  0  0
  9 27  2  0  0  0
 10 11  2  0  0  0
 10 15  1  0  0  0
 11 12  1  0  0  0
 11 98  1  0  0  0
 12 13  2  0  0  0
 12 99  1  0  0  0
 13 14  1  0  0  0
 13 31  1  0  0  0
 14 15  2  0  0  0
 14100  1  0  0  0
 15101  1  0  0  0
 16 17  2  0  0  0
 16 21  1  0  0  0
 16 31  1  0  0  0
 17 18  1  0  0  0
 17102  1  0  0  0
 18 19  2  0  0  0
 18103  1  0  0  0
 19 20  1  0  0  0
 19 24  1  0  0  0
 20 21  2  0  0  0
 20104  1  0  0  0
 21 23  1  0  0  0
 22 28  1  0  0  0
 22 32  2  0  0  0
 26 27  1  0  0  0
 28105  1  0  0  0
 28106  1  0  0  0
 29107  1  0  0  0
 29108  1  0  0  0
 33 34  1  0  0  0
 33 66  1  0  0  0
 33 70  2  0  0  0
 34 36  1  0  0  0
 34 59  1  0  0  0
 34109  1  0  0  0
 35 44  2  0  0  0
 35 45  1  0  0  0
 35 68  1  0  0  0
 36 56  1  0  0  0
 36110  1  0  0  0
 37 39  1  0  0  0
 37 47  1  0  0  0
 37 66  1  0  0  0
 37111  1  0  0  0
 38 43  2  0  0  0
 38 46  1  0  0  0
 38 47  1  0  0  0
 39 64  1  0  0  0
 39 67  2  0  0  0
 40 52  1  0  0  0
 40 53  2  0  0  0
 40 58  1  0  0  0
 41112  1  0  0  0
 41113  1  0  0  0
 41114  1  0  0  0
 41 48  1  0  0  0
 42 43  1  0  0  0
 42 66  1  0  0  0
 42115  1  0  0  0
 42116  1  0  0  0
 43 44  1  0  0  0
 44117  1  0  0  0
 45 46  2  0  0  0
 45118  1  0  0  0
 46119  1  0  0  0
 47120  1  0  0  0
 47121  1  0  0  0
 48 56  1  0  0  0
 48 65  1  0  0  0
 48122  1  0  0  0
 49 50  1  0  0  0
 49 53  1  0  0  0
 49 64  1  0  0  0
 49123  1  0  0  0
 50 51  1  0  0  0
 50124  1  0  0  0
 50125  1  0  0  0
 51 52  1  0  0  0
 51126  1  0  0  0
 51127  1  0  0  0
 52128  1  0  0  0
 52129  1  0  0  0
 53 54  1  0  0  0
 54 55  2  0  0  0
 54130  1  0  0  0
 55 57  1  0  0  0
 55131  1  0  0  0
 56 69  2  0  0  0
 57 58  2  0  0  0
 57132  1  0  0  0
 58133  1  0  0  0
 59 60  1  0  0  0
 59 61  1  0  0  0
 59 62  1  0  0  0
 60134  1  0  0  0
 60135  1  0  0  0
 60136  1  0  0  0
 61137  1  0  0  0
 61138  1  0  0  0
 61139  1  0  0  0
 62140  1  0  0  0
 62141  1  0  0  0
 62142  1  0  0  0
 63 65  1  0  0  0
 63143  1  0  0  0
 63144  1  0  0  0
 63145  1  0  0  0
 64146  1  0  0  0
 65147  1  0  0  0
 68 85  1  0  0  0
 71 73  2  0  0  0
 71 74  1  0  0  0
 71148  1  0  0  0
 72 73  1  0  0  0
 72 75  2  0  0  0
 72149  1  0  0  0
 73 83  1  0  0  0
 74 76  2  0  0  0
 74 84  1  0  0  0
 75 76  1  0  0  0
 75 86  1  0  0  0
 76 87  1  0  0  0
 77 81  1  0  0  0
 77 83  1  0  0  0
 77150  1  0  0  0
 77151  1  0  0  0
 78 82  1  0  0  0
 78 83  1  0  0  0
 78152  1  0  0  0
 78153  1  0  0  0
 79 84  1  0  0  0
 79 85  1  0  0  0
 79154  1  0  0  0
 79155  1  0  0  0
 80 84  1  0  0  0
 80 85  1  0  0  0
 80156  1  0  0  0
 80157  1  0  0  0
 81 88  1  0  0  0
 81158  1  0  0  0
 81159  1  0  0  0
 82 88  1  0  0  0
 82160  1  0  0  0
 82161  1  0  0  0
 83162  1  0  0  0
 84163  1  0  0  0
 85164  1  0  0  0
 86165  1  0  0  0
 86166  1  0  0  0
 86167  1  0  0  0
 87168  1  0  0  0
 87169  1  0  0  0
 87170  1  0  0  0
M  ISO  4   1 100  68 101  85 101  88 100
M  END
> <chiral flag>
0

> <version>
0

> <s_m_source_file>
/data/baiqing/PycharmProjects/Reinvent-master-3.2/result/LINK_invent/BTK/process_docking_weight1_custom_sum_contain_oxygen_bond_distance_aromatic_linkinvent_7_9_3/rearranged_h_0158.sdf

> <i_m_source_file_index>
14

> <r_mmod_Potential_Energy-OPLS-2005>
300.137847900391

> <r_mmod_Stretch_Energy-OPLS-2005>
70.8276824951172

> <r_mmod_Bend_Energy-OPLS-2005>
192.065795898438

> <r_mmod_Torsional_Energy-OPLS-2005>
357.357391357422

> <r_mmod_Improper_Torsional_Energy-OPLS-2005>
9.65777015686035

> <r_mmod_Van_der_Waal_Energy-OPLS-2005>
156.364715576172

> <r_mmod_Electrostatic_Energy-OPLS-2005>
-322.925750732422

> <r_mmod_Solvation_Energy-OPLS-2005>
-192.122375488281

> <b_mmod_Minimization_Converged-OPLS-2005>
0

> <r_mmod_RMS_Derivative-OPLS-2005>
4.5835657119751

$$$$
14
                    3D
 Structure written by MMmdl.
171180  0  0  1  0            999 V2000
  -30.5098  -14.9727   20.3716 C   0  0  0  0  0  0
  -30.4157  -12.5902   19.5195 C   0  0  0  0  0  0
  -29.5162  -12.5274   18.2670 C   0  0  0  0  0  0
  -28.0505  -12.3116   18.6842 C   0  0  0  0  0  0
  -27.6175  -13.2535   19.8390 C   0  0  2  0  0  0
  -28.6498  -13.3011   20.9825 C   0  0  0  0  0  0
  -25.2403  -13.8234   20.5730 C   0  0  0  0  0  0
  -24.1717  -13.0430   20.9247 C   0  0  0  0  0  0
  -24.6355  -11.6931   20.8776 C   0  0  0  0  0  0
  -23.9057  -10.4279   21.0424 C   0  0  0  0  0  0
  -24.3615   -9.4200   21.9199 C   0  0  0  0  0  0
  -23.6284   -8.2240   22.0767 C   0  0  0  0  0  0
  -22.4269   -8.0279   21.3547 C   0  0  0  0  0  0
  -21.9908   -9.0254   20.4660 C   0  0  0  0  0  0
  -22.7239  -10.2129   20.3070 C   0  0  0  0  0  0
  -21.6858   -6.0729   22.5274 C   0  0  0  0  0  0
  -21.4016   -6.5637   23.8209 C   0  0  0  0  0  0
  -21.3663   -5.6792   24.9170 C   0  0  0  0  0  0
  -21.6038   -4.3053   24.7222 C   0  0  0  0  0  0
  -21.8819   -3.8139   23.4347 C   0  0  0  0  0  0
  -21.9182   -4.6954   22.3400 C   0  0  0  0  0  0
  -22.7756  -13.5209   21.1875 C   0  0  0  0  0  0
  -22.1661   -4.2147   21.0983 F   0  0  0  0  0  0
  -21.5617   -3.4536   25.7736 F   0  0  0  0  0  0
  -29.9169  -13.7118   20.3728 N   0  0  0  0  0  0
  -26.2803  -12.9457   20.3249 N   0  0  0  0  0  0
  -25.9276  -11.6574   20.5756 N   0  0  0  0  0  0
  -22.0407  -12.8206   22.0452 N   0  0  0  0  0  0
  -25.4053  -15.1946   20.4147 N   0  0  0  0  0  0
  -31.7138  -14.9665   20.0923 O   0  0  0  0  0  0
  -21.6640   -6.8875   21.4240 O   0  0  0  0  0  0
  -22.3447  -14.5511   20.6720 O   0  0  0  0  0  0
  -24.6469  -31.8357   23.1813 C   0  0  0  0  0  0
  -25.9220  -32.4640   23.8244 C   0  0  1  0  0  0
  -27.2442  -27.1107   20.1623 C   0  0  0  0  0  0
  -25.5920  -33.8456   24.2121 N   0  0  0  0  0  0
  -23.4550  -30.4505   21.5255 C   0  0  2  0  0  0
  -24.9101  -28.8644   20.1040 C   0  0  0  0  0  0
  -22.7583  -29.4497   22.4825 C   0  0  0  0  0  0
  -18.0307  -28.1364   22.8474 C   0  0  0  0  0  0
  -24.1499  -36.7293   23.2633 C   0  0  0  0  0  0
  -26.0087  -30.7036   21.3809 C   0  0  0  0  0  0
  -26.0823  -29.3106   20.7262 C   0  0  0  0  0  0
  -27.2429  -28.4509   20.7317 C   0  0  0  0  0  0
  -26.0515  -26.7620   19.4935 C   0  0  0  0  0  0
  -24.9115  -27.6074   19.4678 C   0  0  0  0  0  0
  -23.6829  -29.7666   20.1487 C   0  0  0  0  0  0
  -25.4113  -36.2996   24.0276 C   0  0  1  0  0  0
  -20.5928  -28.3708   23.1206 C   0  0  2  0  0  0
  -20.6801  -26.9410   22.5411 C   0  0  0  0  0  0
  -19.5778  -26.6367   21.5205 C   0  0  0  0  0  0
  -18.1944  -26.7908   22.1604 C   0  0  0  0  0  0
  -19.1558  -28.8856   23.2832 C   0  0  0  0  0  0
  -18.9490  -30.1449   23.8860 C   0  0  0  0  0  0
  -17.6491  -30.6576   24.0557 C   0  0  0  0  0  0
  -25.9086  -34.9378   23.5021 C   0  0  0  0  0  0
  -16.5384  -29.9081   23.6327 C   0  0  0  0  0  0
  -16.7294  -28.6502   23.0347 C   0  0  0  0  0  0
  -26.4516  -31.6548   25.0737 C   0  0  0  0  0  0
  -25.3699  -31.3752   26.1453 C   0  0  0  0  0  0
  -27.0374  -30.2919   24.6376 C   0  0  0  0  0  0
  -27.6034  -32.4354   25.7517 C   0  0  0  0  0  0
  -27.5597  -37.1738   24.8392 C   0  0  0  0  0  0
  -21.4267  -29.3033   22.3564 N   0  0  0  0  0  0
  -26.4240  -37.3752   23.9433 N   0  0  0  0  0  0
  -24.7234  -31.0182   22.0846 N   0  0  0  0  0  0
  -23.4193  -28.8064   23.3015 O   0  0  0  0  0  0
  -28.3266  -26.1642   20.3160 O   0  0  0  0  0  0
  -26.5741  -34.8880   22.4652 O   0  0  0  0  0  0
  -23.5573  -32.1268   23.6990 O   0  0  0  0  0  0
  -29.3809  -21.7809   22.1808 C   0  0  0  0  0  0
  -29.5754  -19.1794   20.8448 C   0  0  0  0  0  0
  -28.8620  -21.7694   20.8718 C   0  0  0  0  0  0
  -29.9787  -20.6609   22.8015 C   0  0  0  0  0  0
  -28.9921  -20.4234   20.2145 C   0  0  0  0  0  0
  -30.0522  -19.3874   22.1720 C   0  0  0  0  0  0
  -31.6132  -17.8927   20.4865 C   0  0  0  0  0  0
  -31.8013  -17.6681   22.0065 C   0  0  0  0  0  0
  -30.1176  -17.7440   20.1569 C   0  0  1  0  0  0
  -30.6646  -20.8931   24.1430 C   0  0  0  0  0  0
  -28.5187  -20.3247   18.7803 C   0  0  0  0  0  0
  -31.2766  -17.4788   25.0720 C   0  0  0  0  0  0
  -29.3796  -16.4887   23.7033 C   0  0  0  0  0  0
  -28.0289  -23.1710   20.4725 C   0  0  0  0  0  0
  -28.5023  -24.6767   19.8336 C   0  0  0  0  0  0
  -30.1956  -17.7521   24.0107 C   0  0  0  0  0  0
  -30.7801  -18.3577   22.8072 N   0  0  0  0  0  0
  -29.7607  -16.2019   20.4694 N   0  0  0  0  0  0
  -31.4579  -12.7168   19.2253 H   0  0  0  0  0  0
  -30.3821  -11.6470   20.0683 H   0  0  0  0  0  0
  -29.8418  -11.7242   17.6055 H   0  0  0  0  0  0
  -29.6092  -13.4539   17.6978 H   0  0  0  0  0  0
  -27.9582  -11.2752   19.0073 H   0  0  0  0  0  0
  -27.3847  -12.4229   17.8275 H   0  0  0  0  0  0
  -27.5763  -14.2518   19.4027 H   0  0  0  0  0  0
  -28.7376  -12.3323   21.4772 H   0  0  0  0  0  0
  -28.3457  -14.0153   21.7501 H   0  0  0  0  0  0
  -25.2746   -9.5679   22.4783 H   0  0  0  0  0  0
  -23.9985   -7.4640   22.7499 H   0  0  0  0  0  0
  -21.0828   -8.8771   19.8978 H   0  0  0  0  0  0
  -22.3685  -10.9666   19.6190 H   0  0  0  0  0  0
  -21.2034   -7.6153   23.9711 H   0  0  0  0  0  0
  -21.1478   -6.0526   25.9074 H   0  0  0  0  0  0
  -22.0587   -2.7599   23.2844 H   0  0  0  0  0  0
  -22.4027  -11.9866   22.4821 H   0  0  0  0  0  0
  -21.1039  -13.1245   22.2687 H   0  0  0  0  0  0
  -24.6331  -15.8420   20.5242 H   0  0  0  0  0  0
  -26.2388  -15.6313   20.0435 H   0  0  0  0  0  0
  -26.7310  -32.5226   23.0992 H   0  0  0  0  0  0
  -24.9831  -33.9549   25.0105 H   0  0  0  0  0  0
  -22.7604  -31.2784   21.3640 H   0  0  0  0  0  0
  -23.3738  -35.9640   23.3144 H   0  0  0  0  0  0
  -24.3610  -36.9152   22.2092 H   0  0  0  0  0  0
  -23.7302  -37.6436   23.6834 H   0  0  0  0  0  0
  -26.1680  -31.4547   20.6062 H   0  0  0  0  0  0
  -26.8760  -30.7584   22.0270 H   0  0  0  0  0  0
  -28.1374  -28.7930   21.2329 H   0  0  0  0  0  0
  -25.9807  -25.7916   19.0234 H   0  0  0  0  0  0
  -24.0167  -27.2632   18.9684 H   0  0  0  0  0  0
  -23.8140  -30.5369   19.3881 H   0  0  0  0  0  0
  -22.8002  -29.2030   19.8435 H   0  0  0  0  0  0
  -25.1302  -36.1761   25.0757 H   0  0  0  0  0  0
  -21.0007  -28.3351   24.1327 H   0  0  0  0  0  0
  -20.5675  -26.2339   23.3651 H   0  0  0  0  0  0
  -21.6661  -26.7413   22.1222 H   0  0  0  0  0  0
  -19.6933  -25.6269   21.1248 H   0  0  0  0  0  0
  -19.6695  -27.3144   20.6710 H   0  0  0  0  0  0
  -17.4232  -26.6632   21.4001 H   0  0  0  0  0  0
  -18.0338  -26.0040   22.8989 H   0  0  0  0  0  0
  -19.7974  -30.7249   24.2202 H   0  0  0  0  0  0
  -17.5070  -31.6239   24.5175 H   0  0  0  0  0  0
  -15.5371  -30.2986   23.7679 H   0  0  0  0  0  0
  -15.8688  -28.0825   22.7063 H   0  0  0  0  0  0
  -24.5854  -30.7123   25.7789 H   0  0  0  0  0  0
  -24.8894  -32.2913   26.4873 H   0  0  0  0  0  0
  -25.7983  -30.8936   27.0249 H   0  0  0  0  0  0
  -26.2979  -29.6619   24.1402 H   0  0  0  0  0  0
  -27.3951  -29.7262   25.4989 H   0  0  0  0  0  0
  -27.8919  -30.4104   23.9718 H   0  0  0  0  0  0
  -27.2625  -33.3699   26.1967 H   0  0  0  0  0  0
  -28.3881  -32.6842   25.0373 H   0  0  0  0  0  0
  -28.0642  -31.8576   26.5526 H   0  0  0  0  0  0
  -28.2398  -38.0239   24.7703 H   0  0  0  0  0  0
  -28.1307  -36.2785   24.5866 H   0  0  0  0  0  0
  -27.2350  -37.0968   25.8785 H   0  0  0  0  0  0
  -20.9482  -29.8794   21.6776 H   0  0  0  0  0  0
  -26.0051  -38.2754   24.1620 H   0  0  0  0  0  0
  -29.3148  -22.6985   22.7472 H   0  0  0  0  0  0
  -32.2473  -17.2463   19.8844 H   0  0  0  0  0  0
  -31.9538  -18.8944   20.2206 H   0  0  0  0  0  0
  -32.7922  -17.9954   22.3189 H   0  0  0  0  0  0
  -31.7580  -16.6043   22.2417 H   0  0  0  0  0  0
  -29.9970  -17.8487   19.0784 H   0  0  0  0  0  0
  -30.7353  -21.9504   24.3896 H   0  0  0  0  0  0
  -31.6837  -20.5080   24.0995 H   0  0  0  0  0  0
  -30.1444  -20.4014   24.9642 H   0  0  0  0  0  0
  -27.7227  -19.5847   18.6965 H   0  0  0  0  0  0
  -29.3405  -20.0339   18.1271 H   0  0  0  0  0  0
  -28.1331  -21.2776   18.4212 H   0  0  0  0  0  0
  -30.8377  -17.1018   25.9963 H   0  0  0  0  0  0
  -31.8377  -18.3786   25.3280 H   0  0  0  0  0  0
  -31.9955  -16.7347   24.7263 H   0  0  0  0  0  0
  -28.8249  -16.1612   24.5843 H   0  0  0  0  0  0
  -30.0099  -15.6561   23.3929 H   0  0  0  0  0  0
  -28.6466  -16.6793   22.9196 H   0  0  0  0  0  0
  -27.5474  -23.4440   21.4123 H   0  0  0  0  0  0
  -27.1849  -22.8403   19.8679 H   0  0  0  0  0  0
  -28.1525  -24.6761   18.8016 H   0  0  0  0  0  0
  -29.5825  -24.5920   19.7170 H   0  0  0  0  0  0
  -29.4766  -18.4556   24.4271 H   0  0  0  0  0  0
  -28.7797  -16.0584   20.6594 H   0  0  0  0  0  0
  1 25  1  0  0  0
  1 30  2  0  0  0
  1 88  1  0  0  0
  2  3  1  0  0  0
  2 25  1  0  0  0
  2 89  1  0  0  0
  2 90  1  0  0  0
  3  4  1  0  0  0
  3 91  1  0  0  0
  3 92  1  0  0  0
  4  5  1  0  0  0
  4 93  1  0  0  0
  4 94  1  0  0  0
  5  6  1  0  0  0
  5 26  1  0  0  0
  5 95  1  0  0  0
  6 25  1  0  0  0
  6 96  1  0  0  0
  6 97  1  0  0  0
  7  8  2  0  0  0
  7 26  1  0  0  0
  7 29  1  0  0  0
  8  9  1  0  0  0
  8 22  1  0  0  0
  9 10  1  0  0  0
  9 27  2  0  0  0
 10 11  2  0  0  0
 10 15  1  0  0  0
 11 12  1  0  0  0
 11 98  1  0  0  0
 12 13  2  0  0  0
 12 99  1  0  0  0
 13 14  1  0  0  0
 13 31  1  0  0  0
 14 15  2  0  0  0
 14100  1  0  0  0
 15101  1  0  0  0
 16 17  2  0  0  0
 16 21  1  0  0  0
 16 31  1  0  0  0
 17 18  1  0  0  0
 17102  1  0  0  0
 18 19  2  0  0  0
 18103  1  0  0  0
 19 20  1  0  0  0
 19 24  1  0  0  0
 20 21  2  0  0  0
 20104  1  0  0  0
 21 23  1  0  0  0
 22 28  1  0  0  0
 22 32  2  0  0  0
 26 27  1  0  0  0
 28105  1  0  0  0
 28106  1  0  0  0
 29107  1  0  0  0
 29108  1  0  0  0
 33 34  1  0  0  0
 33 66  1  0  0  0
 33 70  2  0  0  0
 34 36  1  0  0  0
 34 59  1  0  0  0
 34109  1  0  0  0
 35 44  2  0  0  0
 35 45  1  0  0  0
 35 68  1  0  0  0
 36 56  1  0  0  0
 36110  1  0  0  0
 37 39  1  0  0  0
 37 47  1  0  0  0
 37 66  1  0  0  0
 37111  1  0  0  0
 38 43  2  0  0  0
 38 46  1  0  0  0
 38 47  1  0  0  0
 39 64  1  0  0  0
 39 67  2  0  0  0
 40 52  1  0  0  0
 40 53  2  0  0  0
 40 58  1  0  0  0
 41112  1  0  0  0
 41113  1  0  0  0
 41114  1  0  0  0
 41 48  1  0  0  0
 42 43  1  0  0  0
 42 66  1  0  0  0
 42115  1  0  0  0
 42116  1  0  0  0
 43 44  1  0  0  0
 44117  1  0  0  0
 45 46  2  0  0  0
 45118  1  0  0  0
 46119  1  0  0  0
 47120  1  0  0  0
 47121  1  0  0  0
 48 56  1  0  0  0
 48 65  1  0  0  0
 48122  1  0  0  0
 49 50  1  0  0  0
 49 53  1  0  0  0
 49 64  1  0  0  0
 49123  1  0  0  0
 50 51  1  0  0  0
 50124  1  0  0  0
 50125  1  0  0  0
 51 52  1  0  0  0
 51126  1  0  0  0
 51127  1  0  0  0
 52128  1  0  0  0
 52129  1  0  0  0
 53 54  1  0  0  0
 54 55  2  0  0  0
 54130  1  0  0  0
 55 57  1  0  0  0
 55131  1  0  0  0
 56 69  2  0  0  0
 57 58  2  0  0  0
 57132  1  0  0  0
 58133  1  0  0  0
 59 60  1  0  0  0
 59 61  1  0  0  0
 59 62  1  0  0  0
 60134  1  0  0  0
 60135  1  0  0  0
 60136  1  0  0  0
 61137  1  0  0  0
 61138  1  0  0  0
 61139  1  0  0  0
 62140  1  0  0  0
 62141  1  0  0  0
 62142  1  0  0  0
 63 65  1  0  0  0
 63143  1  0  0  0
 63144  1  0  0  0
 63145  1  0  0  0
 64146  1  0  0  0
 65147  1  0  0  0
 68 85  1  0  0  0
 71 73  2  0  0  0
 71 74  1  0  0  0
 71148  1  0  0  0
 72 75  2  0  0  0
 72 76  1  0  0  0
 72 79  1  0  0  0
 73 75  1  0  0  0
 73 84  1  0  0  0
 74 76  2  0  0  0
 74 80  1  0  0  0
 75 81  1  0  0  0
 76 87  1  0  0  0
 77 78  1  0  0  0
 77 79  1  0  0  0
 77149  1  0  0  0
 77150  1  0  0  0
 78 87  1  0  0  0
 78151  1  0  0  0
 78152  1  0  0  0
 79 88  1  0  0  0
 79153  1  0  0  0
 80154  1  0  0  0
 80155  1  0  0  0
 80156  1  0  0  0
 81157  1  0  0  0
 81158  1  0  0  0
 81159  1  0  0  0
 82160  1  0  0  0
 82161  1  0  0  0
 82162  1  0  0  0
 82 86  1  0  0  0
 83 86  1  0  0  0
 83163  1  0  0  0
 83164  1  0  0  0
 83165  1  0  0  0
 84 85  1  0  0  0
 84166  1  0  0  0
 84167  1  0  0  0
 85168  1  0  0  0
 85169  1  0  0  0
 86 87  1  0  0  0
 86170  1  0  0  0
 88171  1  0  0  0
M  ISO  4   1 100  68 101  85 101  88 100
M  END
> <chiral flag>
0

> <version>
0

> <s_m_source_file>
/data/baiqing/PycharmProjects/Reinvent-master-3.2/result/LINK_invent/BTK/process_docking_weight1_custom_sum_contain_oxygen_bond_distance_aromatic_linkinvent_7_9_3/rearranged_h_0158.sdf

> <i_m_source_file_index>
15

> <r_mmod_Potential_Energy-OPLS-2005>
706.498901367188

> <r_mmod_Stretch_Energy-OPLS-2005>
323.959259033203

> <r_mmod_Bend_Energy-OPLS-2005>
386.436187744141

> <r_mmod_Torsional_Energy-OPLS-2005>
258.955688476562

> <r_mmod_Improper_Torsional_Energy-OPLS-2005>
11.512056350708

> <r_mmod_Van_der_Waal_Energy-OPLS-2005>
152.70622253418

> <r_mmod_Electrostatic_Energy-OPLS-2005>
-434.433502197266

> <r_mmod_Solvation_Energy-OPLS-2005>
-205.177474975586

> <b_mmod_Minimization_Converged-OPLS-2005>
0

> <r_mmod_RMS_Derivative-OPLS-2005>
4.62914943695068

$$$$
15
                    3D
 Structure written by MMmdl.
173182  0  0  1  0            999 V2000
  -30.7259  -14.4197   20.6589 C   0  0  0  0  0  0
  -30.4298  -12.3122   19.3965 C   0  0  0  0  0  0
  -29.4856  -12.5095   18.1936 C   0  0  0  0  0  0
  -28.0124  -12.3461   18.6139 C   0  0  0  0  0  0
  -27.6690  -13.1693   19.8796 C   0  0  2  0  0  0
  -28.7153  -12.8843   20.9893 C   0  0  0  0  0  0
  -25.2646  -13.8090   20.5612 C   0  0  0  0  0  0
  -24.1867  -13.0415   20.9156 C   0  0  0  0  0  0
  -24.6372  -11.6871   20.8743 C   0  0  0  0  0  0
  -23.9036  -10.4276   21.0422 C   0  0  0  0  0  0
  -24.3595   -9.4199   21.9203 C   0  0  0  0  0  0
  -23.6279   -8.2232   22.0764 C   0  0  0  0  0  0
  -22.4266   -8.0274   21.3549 C   0  0  0  0  0  0
  -21.9904   -9.0245   20.4646 C   0  0  0  0  0  0
  -22.7223  -10.2126   20.3060 C   0  0  0  0  0  0
  -21.6847   -6.0729   22.5281 C   0  0  0  0  0  0
  -21.4009   -6.5635   23.8212 C   0  0  0  0  0  0
  -21.3656   -5.6790   24.9180 C   0  0  0  0  0  0
  -21.6042   -4.3051   24.7227 C   0  0  0  0  0  0
  -21.8825   -3.8142   23.4350 C   0  0  0  0  0  0
  -21.9193   -4.6960   22.3404 C   0  0  0  0  0  0
  -22.7902  -13.5249   21.1816 C   0  0  0  0  0  0
  -22.1659   -4.2139   21.0985 F   0  0  0  0  0  0
  -21.5635   -3.4544   25.7747 F   0  0  0  0  0  0
  -30.0356  -13.2571   20.4590 N   0  0  0  0  0  0
  -26.3054  -12.9179   20.3371 N   0  0  0  0  0  0
  -25.9282  -11.6381   20.5784 N   0  0  0  0  0  0
  -22.0525  -12.8235   22.0360 N   0  0  0  0  0  0
  -25.4372  -15.1790   20.3921 N   0  0  0  0  0  0
  -31.7988  -14.6259   20.0773 O   0  0  0  0  0  0
  -21.6636   -6.8873   21.4240 O   0  0  0  0  0  0
  -22.3598  -14.5566   20.6684 O   0  0  0  0  0  0
  -24.6115  -31.8721   23.2142 C   0  0  0  0  0  0
  -25.9024  -32.4848   23.8437 C   0  0  1  0  0  0
  -27.2442  -27.4741   20.0656 C   0  0  0  0  0  0
  -25.5891  -33.8646   24.2349 N   0  0  0  0  0  0
  -23.3985  -30.4956   21.5526 C   0  0  2  0  0  0
  -24.8440  -28.9638   20.1195 C   0  0  0  0  0  0
  -22.7399  -29.4665   22.4990 C   0  0  0  0  0  0
  -18.0276  -28.1380   22.8498 C   0  0  0  0  0  0
  -24.1481  -36.7318   23.2640 C   0  0  0  0  0  0
  -25.9262  -30.8403   21.3702 C   0  0  0  0  0  0
  -26.0004  -29.4763   20.7189 C   0  0  0  0  0  0
  -27.1963  -28.7298   20.7049 C   0  0  0  0  0  0
  -26.0614  -26.9592   19.4823 C   0  0  0  0  0  0
  -24.8651  -27.6987   19.5096 C   0  0  0  0  0  0
  -23.6077  -29.8301   20.1665 C   0  0  0  0  0  0
  -25.4107  -36.3124   24.0337 C   0  0  1  0  0  0
  -20.5862  -28.3663   23.1323 C   0  0  2  0  0  0
  -20.6763  -26.9399   22.5423 C   0  0  0  0  0  0
  -19.5745  -26.6392   21.5209 C   0  0  0  0  0  0
  -18.1919  -26.7933   22.1614 C   0  0  0  0  0  0
  -19.1523  -28.8836   23.2908 C   0  0  0  0  0  0
  -18.9448  -30.1437   23.8921 C   0  0  0  0  0  0
  -17.6456  -30.6588   24.0568 C   0  0  0  0  0  0
  -25.9033  -34.9491   23.5138 C   0  0  0  0  0  0
  -16.5348  -29.9093   23.6324 C   0  0  0  0  0  0
  -16.7267  -28.6507   23.0352 C   0  0  0  0  0  0
  -26.4466  -31.6628   25.0764 C   0  0  0  0  0  0
  -25.3738  -31.3709   26.1503 C   0  0  0  0  0  0
  -27.0339  -30.3091   24.6141 C   0  0  0  0  0  0
  -27.6008  -32.4375   25.7555 C   0  0  0  0  0  0
  -27.5573  -37.1833   24.8459 C   0  0  0  0  0  0
  -21.4129  -29.3031   22.3729 N   0  0  0  0  0  0
  -26.4291  -37.3807   23.9401 N   0  0  0  0  0  0
  -24.6624  -31.0846   22.1030 N   0  0  0  0  0  0
  -23.4184  -28.8204   23.3021 O   0  0  0  0  0  0
  -28.4461  -26.8040   20.0576 O   0  0  0  0  0  0
  -26.5590  -34.8932   22.4697 O   0  0  0  0  0  0
  -23.5307  -32.1455   23.7538 O   0  0  0  0  0  0
  -30.3182  -21.0383   18.5985 C   0  0  0  0  0  0
  -29.8002  -19.5226   20.4581 C   0  0  0  0  0  0
  -30.5121  -19.8089   19.2545 C   0  0  0  0  0  0
  -28.8434  -20.4791   20.9293 C   0  0  0  0  0  0
  -28.6538  -21.7086   20.2426 C   0  0  0  0  0  0
  -29.3989  -21.9836   19.0770 C   0  0  0  0  0  0
  -28.9520  -17.1364   20.6711 C   0  0  0  0  0  0
  -31.3391  -17.5542   21.4350 C   0  0  0  0  0  0
  -28.9500  -15.9268   21.6118 C   0  0  0  0  0  0
  -31.2349  -16.2344   22.2468 C   0  0  0  0  0  0
  -29.9358  -18.1816   21.2144 C   0  0  0  0  0  0
  -31.4573  -18.8347   18.5714 C   0  0  0  0  0  0
  -27.9761  -20.1767   22.1583 C   0  0  0  0  0  0
  -27.6437  -22.7345   20.7474 C   0  0  0  0  0  0
  -30.0175  -25.1726   19.2570 C   0  0  0  0  0  0
  -28.7328  -25.9551   18.9535 C   0  0  0  0  0  0
  -30.2508  -24.0391   18.2505 C   0  0  0  0  0  0
  -30.2847  -15.2976   21.6071 N   0  0  0  0  0  0
  -29.1641  -23.1229   18.3510 O   0  0  0  0  0  0
  -31.4666  -12.4359   19.0797 H   0  0  0  0  0  0
  -30.3671  -11.2869   19.7652 H   0  0  0  0  0  0
  -29.7285  -11.7933   17.4075 H   0  0  0  0  0  0
  -29.6407  -13.5003   17.7629 H   0  0  0  0  0  0
  -27.8338  -11.2867   18.8023 H   0  0  0  0  0  0
  -27.3516  -12.6227   17.7925 H   0  0  0  0  0  0
  -27.7277  -14.2115   19.5728 H   0  0  0  0  0  0
  -28.7091  -11.8186   21.2212 H   0  0  0  0  0  0
  -28.4831  -13.3468   21.9476 H   0  0  0  0  0  0
  -25.2746   -9.5688   22.4776 H   0  0  0  0  0  0
  -23.9996   -7.4629   22.7487 H   0  0  0  0  0  0
  -21.0849   -8.8761   19.8938 H   0  0  0  0  0  0
  -22.3696  -10.9665   19.6166 H   0  0  0  0  0  0
  -21.1986   -7.6139   23.9715 H   0  0  0  0  0  0
  -21.1471   -6.0518   25.9084 H   0  0  0  0  0  0
  -22.0600   -2.7601   23.2858 H   0  0  0  0  0  0
  -22.4136  -11.9881   22.4720 H   0  0  0  0  0  0
  -21.1138  -13.1255   22.2557 H   0  0  0  0  0  0
  -24.6644  -15.8312   20.4758 H   0  0  0  0  0  0
  -26.2821  -15.6105   20.0399 H   0  0  0  0  0  0
  -26.7097  -32.5596   23.1205 H   0  0  0  0  0  0
  -25.0062  -33.9823   25.0509 H   0  0  0  0  0  0
  -22.6858  -31.3114   21.4146 H   0  0  0  0  0  0
  -23.3755  -35.9635   23.3296 H   0  0  0  0  0  0
  -24.3567  -36.8956   22.2052 H   0  0  0  0  0  0
  -23.7215  -37.6511   23.6674 H   0  0  0  0  0  0
  -26.0447  -31.6063   20.6023 H   0  0  0  0  0  0
  -26.8121  -30.8892   21.9926 H   0  0  0  0  0  0
  -28.0912  -29.1213   21.1678 H   0  0  0  0  0  0
  -26.0289  -25.9913   19.0080 H   0  0  0  0  0  0
  -23.9718  -27.2917   19.0565 H   0  0  0  0  0  0
  -23.7252  -30.6067   19.4103 H   0  0  0  0  0  0
  -22.7317  -29.2539   19.8623 H   0  0  0  0  0  0
  -25.1278  -36.1988   25.0830 H   0  0  0  0  0  0
  -20.9955  -28.3231   24.1442 H   0  0  0  0  0  0
  -20.5683  -26.2259   23.3604 H   0  0  0  0  0  0
  -21.6637  -26.7461   22.1213 H   0  0  0  0  0  0
  -19.6916  -25.6312   21.1219 H   0  0  0  0  0  0
  -19.6687  -27.3210   20.6745 H   0  0  0  0  0  0
  -17.4196  -26.6702   21.4005 H   0  0  0  0  0  0
  -18.0298  -26.0070   22.9001 H   0  0  0  0  0  0
  -19.7922  -30.7230   24.2324 H   0  0  0  0  0  0
  -17.5019  -31.6274   24.5161 H   0  0  0  0  0  0
  -15.5349  -30.3004   23.7637 H   0  0  0  0  0  0
  -15.8666  -28.0830   22.7061 H   0  0  0  0  0  0
  -24.5895  -30.7076   25.7838 H   0  0  0  0  0  0
  -24.8952  -32.2860   26.4999 H   0  0  0  0  0  0
  -25.8098  -30.8846   27.0238 H   0  0  0  0  0  0
  -26.2918  -29.6846   24.1151 H   0  0  0  0  0  0
  -27.4086  -29.7315   25.4604 H   0  0  0  0  0  0
  -27.8748  -30.4451   23.9331 H   0  0  0  0  0  0
  -27.2575  -33.3642   26.2166 H   0  0  0  0  0  0
  -28.3806  -32.6998   25.0398 H   0  0  0  0  0  0
  -28.0693  -31.8504   26.5462 H   0  0  0  0  0  0
  -28.2576  -38.0141   24.7503 H   0  0  0  0  0  0
  -28.1077  -36.2668   24.6284 H   0  0  0  0  0  0
  -27.2289  -37.1477   25.8860 H   0  0  0  0  0  0
  -20.9280  -29.8772   21.6972 H   0  0  0  0  0  0
  -26.0176  -38.2886   24.1401 H   0  0  0  0  0  0
  -30.8521  -21.2472   17.6815 H   0  0  0  0  0  0
  -27.9454  -17.5495   20.6101 H   0  0  0  0  0  0
  -29.2167  -16.8415   19.6549 H   0  0  0  0  0  0
  -31.8336  -17.2968   20.5065 H   0  0  0  0  0  0
  -31.9910  -18.2632   21.9470 H   0  0  0  0  0  0
  -28.1226  -15.2940   21.3373 H   0  0  0  0  0  0
  -28.7014  -16.2410   22.6268 H   0  0  0  0  0  0
  -30.9111  -16.4465   23.2678 H   0  0  0  0  0  0
  -32.2235  -15.7810   22.3450 H   0  0  0  0  0  0
  -29.6383  -18.3760   22.2416 H   0  0  0  0  0  0
  -31.6517  -19.1276   17.5390 H   0  0  0  0  0  0
  -31.0377  -17.8296   18.5303 H   0  0  0  0  0  0
  -32.4217  -18.8154   19.0777 H   0  0  0  0  0  0
  -27.5384  -19.1810   22.1001 H   0  0  0  0  0  0
  -27.1236  -20.8393   22.2856 H   0  0  0  0  0  0
  -28.5703  -20.2414   23.0699 H   0  0  0  0  0  0
  -26.6262  -22.3599   20.6385 H   0  0  0  0  0  0
  -27.6927  -23.6777   20.2168 H   0  0  0  0  0  0
  -27.8210  -22.9641   21.7988 H   0  0  0  0  0  0
  -29.9663  -24.7514   20.2617 H   0  0  0  0  0  0
  -30.8680  -25.8542   19.2545 H   0  0  0  0  0  0
  -27.9298  -25.2509   18.7602 H   0  0  0  0  0  0
  -28.8536  -26.5496   18.0473 H   0  0  0  0  0  0
  -31.2203  -23.5692   18.4269 H   0  0  0  0  0  0
  -30.2770  -24.4393   17.2366 H   0  0  0  0  0  0
  1 25  1  0  0  0
  1 30  2  0  0  0
  1 88  1  0  0  0
  2  3  1  0  0  0
  2 25  1  0  0  0
  2 90  1  0  0  0
  2 91  1  0  0  0
  3  4  1  0  0  0
  3 92  1  0  0  0
  3 93  1  0  0  0
  4  5  1  0  0  0
  4 94  1  0  0  0
  4 95  1  0  0  0
  5  6  1  0  0  0
  5 26  1  0  0  0
  5 96  1  0  0  0
  6 25  1  0  0  0
  6 97  1  0  0  0
  6 98  1  0  0  0
  7  8  2  0  0  0
  7 26  1  0  0  0
  7 29  1  0  0  0
  8  9  1  0  0  0
  8 22  1  0  0  0
  9 10  1  0  0  0
  9 27  2  0  0  0
 10 11  2  0  0  0
 10 15  1  0  0  0
 11 12  1  0  0  0
 11 99  1  0  0  0
 12 13  2  0  0  0
 12100  1  0  0  0
 13 14  1  0  0  0
 13 31  1  0  0  0
 14 15  2  0  0  0
 14101  1  0  0  0
 15102  1  0  0  0
 16 17  2  0  0  0
 16 21  1  0  0  0
 16 31  1  0  0  0
 17 18  1  0  0  0
 17103  1  0  0  0
 18 19  2  0  0  0
 18104  1  0  0  0
 19 20  1  0  0  0
 19 24  1  0  0  0
 20 21  2  0  0  0
 20105  1  0  0  0
 21 23  1  0  0  0
 22 28  1  0  0  0
 22 32  2  0  0  0
 26 27  1  0  0  0
 28106  1  0  0  0
 28107  1  0  0  0
 29108  1  0  0  0
 29109  1  0  0  0
 33 34  1  0  0  0
 33 66  1  0  0  0
 33 70  2  0  0  0
 34 36  1  0  0  0
 34 59  1  0  0  0
 34110  1  0  0  0
 35 44  2  0  0  0
 35 45  1  0  0  0
 35 68  1  0  0  0
 36 56  1  0  0  0
 36111  1  0  0  0
 37 39  1  0  0  0
 37 47  1  0  0  0
 37 66  1  0  0  0
 37112  1  0  0  0
 38 43  2  0  0  0
 38 46  1  0  0  0
 38 47  1  0  0  0
 39 64  1  0  0  0
 39 67  2  0  0  0
 40 52  1  0  0  0
 40 53  2  0  0  0
 40 58  1  0  0  0
 41113  1  0  0  0
 41114  1  0  0  0
 41115  1  0  0  0
 41 48  1  0  0  0
 42 43  1  0  0  0
 42 66  1  0  0  0
 42116  1  0  0  0
 42117  1  0  0  0
 43 44  1  0  0  0
 44118  1  0  0  0
 45 46  2  0  0  0
 45119  1  0  0  0
 46120  1  0  0  0
 47121  1  0  0  0
 47122  1  0  0  0
 48 56  1  0  0  0
 48 65  1  0  0  0
 48123  1  0  0  0
 49 50  1  0  0  0
 49 53  1  0  0  0
 49 64  1  0  0  0
 49124  1  0  0  0
 50 51  1  0  0  0
 50125  1  0  0  0
 50126  1  0  0  0
 51 52  1  0  0  0
 51127  1  0  0  0
 51128  1  0  0  0
 52129  1  0  0  0
 52130  1  0  0  0
 53 54  1  0  0  0
 54 55  2  0  0  0
 54131  1  0  0  0
 55 57  1  0  0  0
 55132  1  0  0  0
 56 69  2  0  0  0
 57 58  2  0  0  0
 57133  1  0  0  0
 58134  1  0  0  0
 59 60  1  0  0  0
 59 61  1  0  0  0
 59 62  1  0  0  0
 60135  1  0  0  0
 60136  1  0  0  0
 60137  1  0  0  0
 61138  1  0  0  0
 61139  1  0  0  0
 61140  1  0  0  0
 62141  1  0  0  0
 62142  1  0  0  0
 62143  1  0  0  0
 63 65  1  0  0  0
 63144  1  0  0  0
 63145  1  0  0  0
 63146  1  0  0  0
 64147  1  0  0  0
 65148  1  0  0  0
 68 86  1  0  0  0
 71 73  2  0  0  0
 71 76  1  0  0  0
 71149  1  0  0  0
 72 73  1  0  0  0
 72 74  2  0  0  0
 72 81  1  0  0  0
 73 82  1  0  0  0
 74 75  1  0  0  0
 74 83  1  0  0  0
 75 76  2  0  0  0
 75 84  1  0  0  0
 76 89  1  0  0  0
 77 79  1  0  0  0
 77 81  1  0  0  0
 77150  1  0  0  0
 77151  1  0  0  0
 78 80  1  0  0  0
 78 81  1  0  0  0
 78152  1  0  0  0
 78153  1  0  0  0
 79 88  1  0  0  0
 79154  1  0  0  0
 79155  1  0  0  0
 80 88  1  0  0  0
 80156  1  0  0  0
 80157  1  0  0  0
 81158  1  0  0  0
 82159  1  0  0  0
 82160  1  0  0  0
 82161  1  0  0  0
 83162  1  0  0  0
 83163  1  0  0  0
 83164  1  0  0  0
 84165  1  0  0  0
 84166  1  0  0  0
 84167  1  0  0  0
 85 86  1  0  0  0
 85 87  1  0  0  0
 85168  1  0  0  0
 85169  1  0  0  0
 86170  1  0  0  0
 86171  1  0  0  0
 87 89  1  0  0  0
 87172  1  0  0  0
 87173  1  0  0  0
M  ISO  4   1 100  68 101  86 101  88 100
M  END
> <chiral flag>
0

> <version>
0

> <s_m_source_file>
/data/baiqing/PycharmProjects/Reinvent-master-3.2/result/LINK_invent/BTK/process_docking_weight1_custom_sum_contain_oxygen_bond_distance_aromatic_linkinvent_7_9_3/rearranged_h_0158.sdf

> <i_m_source_file_index>
16

> <r_mmod_Potential_Energy-OPLS-2005>
185.030517578125

> <r_mmod_Stretch_Energy-OPLS-2005>
43.8623542785645

> <r_mmod_Bend_Energy-OPLS-2005>
131.761566162109

> <r_mmod_Torsional_Energy-OPLS-2005>
316.526123046875

> <r_mmod_Improper_Torsional_Energy-OPLS-2005>
6.01340913772583

> <r_mmod_Van_der_Waal_Energy-OPLS-2005>
194.452682495117

> <r_mmod_Electrostatic_Energy-OPLS-2005>
-320.056915283203

> <r_mmod_Solvation_Energy-OPLS-2005>
-197.401153564453

> <b_mmod_Minimization_Converged-OPLS-2005>
0

> <r_mmod_RMS_Derivative-OPLS-2005>
1.81964540481567

$$$$
16
                    3D
 Structure written by MMmdl.
175185  0  0  1  0            999 V2000
  -30.6993  -14.5514   20.4844 C   0  0  0  0  0  0
  -30.4227  -12.3296   19.4424 C   0  0  0  0  0  0
  -29.4991  -12.4621   18.2136 C   0  0  0  0  0  0
  -28.0199  -12.3126   18.6268 C   0  0  0  0  0  0
  -27.6426  -13.1850   19.8524 C   0  0  2  0  0  0
  -28.6963  -13.0818   20.9804 C   0  0  0  0  0  0
  -25.2552  -13.8082   20.5702 C   0  0  0  0  0  0
  -24.1791  -13.0392   20.9202 C   0  0  0  0  0  0
  -24.6328  -11.6853   20.8755 C   0  0  0  0  0  0
  -23.9001  -10.4260   21.0427 C   0  0  0  0  0  0
  -24.3572   -9.4187   21.9198 C   0  0  0  0  0  0
  -23.6262   -8.2218   22.0757 C   0  0  0  0  0  0
  -22.4245   -8.0256   21.3541 C   0  0  0  0  0  0
  -21.9868   -9.0225   20.4648 C   0  0  0  0  0  0
  -22.7184  -10.2107   20.3063 C   0  0  0  0  0  0
  -21.6845   -6.0716   22.5274 C   0  0  0  0  0  0
  -21.4015   -6.5629   23.8208 C   0  0  0  0  0  0
  -21.3660   -5.6782   24.9169 C   0  0  0  0  0  0
  -21.6047   -4.3043   24.7221 C   0  0  0  0  0  0
  -21.8819   -3.8136   23.4343 C   0  0  0  0  0  0
  -21.9189   -4.6949   22.3398 C   0  0  0  0  0  0
  -22.7823  -13.5225   21.1850 C   0  0  0  0  0  0
  -22.1660   -4.2135   21.0974 F   0  0  0  0  0  0
  -21.5625   -3.4534   25.7740 F   0  0  0  0  0  0
  -30.0183  -13.3700   20.4016 N   0  0  0  0  0  0
  -26.2928  -12.9184   20.3315 N   0  0  0  0  0  0
  -25.9246  -11.6380   20.5780 N   0  0  0  0  0  0
  -22.0449  -12.8249   22.0414 N   0  0  0  0  0  0
  -25.4291  -15.1800   20.4109 N   0  0  0  0  0  0
  -31.8965  -14.6402   20.1984 O   0  0  0  0  0  0
  -21.6615   -6.8852   21.4234 O   0  0  0  0  0  0
  -22.3538  -14.5543   20.6696 O   0  0  0  0  0  0
  -24.6148  -31.8680   23.2089 C   0  0  0  0  0  0
  -25.9037  -32.4822   23.8393 C   0  0  1  0  0  0
  -27.2384  -27.4252   20.1141 C   0  0  0  0  0  0
  -25.5894  -33.8620   24.2327 N   0  0  0  0  0  0
  -23.4050  -30.4899   21.5475 C   0  0  2  0  0  0
  -24.8565  -28.9512   20.1162 C   0  0  0  0  0  0
  -22.7414  -29.4661   22.4972 C   0  0  0  0  0  0
  -18.0276  -28.1381   22.8489 C   0  0  0  0  0  0
  -24.1485  -36.7321   23.2638 C   0  0  0  0  0  0
  -25.9329  -30.8308   21.3638 C   0  0  0  0  0  0
  -26.0140  -29.4605   20.7210 C   0  0  0  0  0  0
  -27.2090  -28.7032   20.7229 C   0  0  0  0  0  0
  -26.0724  -26.9362   19.4929 C   0  0  0  0  0  0
  -24.8807  -27.6875   19.4992 C   0  0  0  0  0  0
  -23.6179  -29.8195   20.1627 C   0  0  0  0  0  0
  -25.4104  -36.3114   24.0339 C   0  0  1  0  0  0
  -20.5865  -28.3673   23.1308 C   0  0  2  0  0  0
  -20.6761  -26.9409   22.5416 C   0  0  0  0  0  0
  -19.5744  -26.6389   21.5208 C   0  0  0  0  0  0
  -18.1923  -26.7929   22.1620 C   0  0  0  0  0  0
  -19.1524  -28.8844   23.2899 C   0  0  0  0  0  0
  -18.9457  -30.1442   23.8916 C   0  0  0  0  0  0
  -17.6460  -30.6588   24.0571 C   0  0  0  0  0  0
  -25.9033  -34.9478   23.5134 C   0  0  0  0  0  0
  -16.5351  -29.9096   23.6321 C   0  0  0  0  0  0
  -16.7264  -28.6513   23.0344 C   0  0  0  0  0  0
  -26.4471  -31.6594   25.0714 C   0  0  0  0  0  0
  -25.3743  -31.3694   26.1468 C   0  0  0  0  0  0
  -27.0300  -30.3040   24.6071 C   0  0  0  0  0  0
  -27.6054  -32.4305   25.7474 C   0  0  0  0  0  0
  -27.5580  -37.1814   24.8467 C   0  0  0  0  0  0
  -21.4139  -29.3044   22.3712 N   0  0  0  0  0  0
  -26.4292  -37.3796   23.9411 N   0  0  0  0  0  0
  -24.6690  -31.0773   22.0991 N   0  0  0  0  0  0
  -23.4182  -28.8203   23.3018 O   0  0  0  0  0  0
  -28.3742  -26.6431   20.0905 O   0  0  0  0  0  0
  -26.5594  -34.8931   22.4694 O   0  0  0  0  0  0
  -23.5337  -32.1431   23.7476 O   0  0  0  0  0  0
  -31.8816  -22.6534   19.0856 C   0  0  0  0  0  0
  -32.2627  -19.9321   18.7013 C   0  0  0  0  0  0
  -32.8083  -22.2310   18.1169 C   0  0  0  0  0  0
  -31.1000  -21.7477   19.8530 C   0  0  0  0  0  0
  -32.9765  -20.8501   17.9086 C   0  0  0  0  0  0
  -31.3441  -20.3378   19.7072 C   0  0  0  0  0  0
  -33.0303  -24.5938   16.9483 C   0  0  0  0  0  0
  -33.2847  -23.5454   15.8936 C   0  0  0  0  0  0
  -29.6571  -17.5916   19.1693 C   0  0  0  0  0  0
  -29.1758  -16.1864   19.5362 C   0  0  0  0  0  0
  -30.5083  -16.9020   21.3104 C   0  0  0  0  0  0
  -33.6027  -23.2475   17.3403 C   0  0  0  0  0  0
  -30.7461  -17.9206   20.1766 C   0  0  2  0  0  0
  -33.9386  -20.3339   16.8507 C   0  0  0  0  0  0
  -30.0120  -22.3386   20.7832 C   0  0  0  0  0  0
  -28.6164  -24.4334   21.2748 C   0  0  0  0  0  0
  -28.6984  -25.9905   21.3321 C   0  0  0  0  0  0
  -29.9600  -15.6826   20.6759 N   0  0  0  0  0  0
  -30.7370  -19.3542   20.5358 N   0  0  0  0  0  0
  -29.7712  -23.8033   20.5758 N   0  3  0  0  0  0
  -31.4689  -12.4173   19.1445 H   0  0  0  0  0  0
  -30.3250  -11.3421   19.8963 H   0  0  0  0  0  0
  -29.7541  -11.7032   17.4730 H   0  0  0  0  0  0
  -29.6570  -13.4236   17.7245 H   0  0  0  0  0  0
  -27.8493  -11.2598   18.8569 H   0  0  0  0  0  0
  -27.3685  -12.5493   17.7834 H   0  0  0  0  0  0
  -27.6220  -14.1959   19.4731 H   0  0  0  0  0  0
  -28.6917  -12.0835   21.4209 H   0  0  0  0  0  0
  -28.4610  -13.7730   21.7919 H   0  0  0  0  0  0
  -25.2719   -9.5677   22.4766 H   0  0  0  0  0  0
  -23.9983   -7.4612   22.7472 H   0  0  0  0  0  0
  -21.0804   -8.8740   19.8952 H   0  0  0  0  0  0
  -22.3654  -10.9644   19.6170 H   0  0  0  0  0  0
  -21.2018   -7.6134   23.9713 H   0  0  0  0  0  0
  -21.1483   -6.0504   25.9071 H   0  0  0  0  0  0
  -22.0602   -2.7598   23.2837 H   0  0  0  0  0  0
  -22.4041  -11.9909   22.4816 H   0  0  0  0  0  0
  -21.1075  -13.1300   22.2609 H   0  0  0  0  0  0
  -24.6691  -15.8404   20.5355 H   0  0  0  0  0  0
  -26.2888  -15.6190   20.1113 H   0  0  0  0  0  0
  -26.7113  -32.5548   23.1165 H   0  0  0  0  0  0
  -25.0038  -33.9780   25.0468 H   0  0  0  0  0  0
  -22.6940  -31.3066   21.4051 H   0  0  0  0  0  0
  -23.3737  -35.9665   23.3315 H   0  0  0  0  0  0
  -24.3582  -36.8919   22.2051 H   0  0  0  0  0  0
  -23.7248  -37.6536   23.6641 H   0  0  0  0  0  0
  -26.0398  -31.5907   20.5886 H   0  0  0  0  0  0
  -26.8231  -30.8940   21.9779 H   0  0  0  0  0  0
  -28.1026  -29.0950   21.1884 H   0  0  0  0  0  0
  -26.0852  -25.9671   19.0140 H   0  0  0  0  0  0
  -23.9933  -27.2908   19.0249 H   0  0  0  0  0  0
  -23.7298  -30.5938   19.4027 H   0  0  0  0  0  0
  -22.7421  -29.2408   19.8641 H   0  0  0  0  0  0
  -25.1277  -36.1983   25.0832 H   0  0  0  0  0  0
  -20.9960  -28.3246   24.1429 H   0  0  0  0  0  0
  -20.5654  -26.2290   23.3607 H   0  0  0  0  0  0
  -21.6637  -26.7445   22.1221 H   0  0  0  0  0  0
  -19.6909  -25.6302   21.1236 H   0  0  0  0  0  0
  -19.6682  -27.3201   20.6736 H   0  0  0  0  0  0
  -17.4192  -26.6670   21.4024 H   0  0  0  0  0  0
  -18.0330  -26.0067   22.9015 H   0  0  0  0  0  0
  -19.7935  -30.7244   24.2305 H   0  0  0  0  0  0
  -17.5023  -31.6267   24.5171 H   0  0  0  0  0  0
  -15.5353  -30.3013   23.7629 H   0  0  0  0  0  0
  -15.8663  -28.0839   22.7051 H   0  0  0  0  0  0
  -24.5917  -30.7038   25.7808 H   0  0  0  0  0  0
  -24.8934  -32.2846   26.4929 H   0  0  0  0  0  0
  -25.8107  -30.8857   27.0216 H   0  0  0  0  0  0
  -26.2834  -29.6802   24.1138 H   0  0  0  0  0  0
  -27.4096  -29.7271   25.4515 H   0  0  0  0  0  0
  -27.8659  -30.4370   23.9199 H   0  0  0  0  0  0
  -27.2685  -33.3600   26.2076 H   0  0  0  0  0  0
  -28.3853  -32.6866   25.0292 H   0  0  0  0  0  0
  -28.0732  -31.8408   26.5369 H   0  0  0  0  0  0
  -28.2606  -38.0102   24.7504 H   0  0  0  0  0  0
  -28.1065  -36.2635   24.6299 H   0  0  0  0  0  0
  -27.2304  -37.1480   25.8872 H   0  0  0  0  0  0
  -20.9299  -29.8782   21.6948 H   0  0  0  0  0  0
  -26.0184  -38.2879   24.1400 H   0  0  0  0  0  0
  -31.7896  -23.7197   19.2147 H   0  0  0  0  0  0
  -32.4689  -18.8950   18.5009 H   0  0  0  0  0  0
  -31.9893  -24.8165   17.1725 H   0  0  0  0  0  0
  -33.7011  -25.4504   16.9631 H   0  0  0  0  0  0
  -34.1151  -23.7257   15.2143 H   0  0  0  0  0  0
  -32.4156  -23.0610   15.4528 H   0  0  0  0  0  0
  -28.8194  -18.2885   19.2308 H   0  0  0  0  0  0
  -30.0407  -17.6366   18.1481 H   0  0  0  0  0  0
  -29.2329  -15.5401   18.6595 H   0  0  0  0  0  0
  -28.1313  -16.2509   19.8408 H   0  0  0  0  0  0
  -29.7691  -17.2694   22.0237 H   0  0  0  0  0  0
  -31.4244  -16.7029   21.8711 H   0  0  0  0  0  0
  -34.6523  -23.2198   17.6299 H   0  0  0  0  0  0
  -31.7094  -17.6162   19.7721 H   0  0  0  0  0  0
  -33.9636  -19.2439   16.8204 H   0  0  0  0  0  0
  -34.9527  -20.6831   17.0446 H   0  0  0  0  0  0
  -33.6387  -20.6817   15.8623 H   0  0  0  0  0  0
  -30.2917  -22.1548   21.8206 H   0  0  0  0  0  0
  -29.0813  -21.7982   20.6051 H   0  0  0  0  0  0
  -27.6772  -24.1155   20.8210 H   0  0  0  0  0  0
  -28.6056  -24.0630   22.3008 H   0  0  0  0  0  0
  -29.6979  -26.3029   21.6364 H   0  0  0  0  0  0
  -28.0346  -26.3369   22.1277 H   0  0  0  0  0  0
  -30.1099  -19.6379   21.2819 H   0  0  0  0  0  0
  -29.6575  -23.9614   19.5868 H   0  0  0  0  0  0
  -30.6119  -24.2774   20.8657 H   0  0  0  0  0  0
  1 25  1  0  0  0
  1 30  2  0  0  0
  1 88  1  0  0  0
  2  3  1  0  0  0
  2 25  1  0  0  0
  2 91  1  0  0  0
  2 92  1  0  0  0
  3  4  1  0  0  0
  3 93  1  0  0  0
  3 94  1  0  0  0
  4  5  1  0  0  0
  4 95  1  0  0  0
  4 96  1  0  0  0
  5  6  1  0  0  0
  5 26  1  0  0  0
  5 97  1  0  0  0
  6 25  1  0  0  0
  6 98  1  0  0  0
  6 99  1  0  0  0
  7  8  2  0  0  0
  7 26  1  0  0  0
  7 29  1  0  0  0
  8  9  1  0  0  0
  8 22  1  0  0  0
  9 10  1  0  0  0
  9 27  2  0  0  0
 10 11  2  0  0  0
 10 15  1  0  0  0
 11 12  1  0  0  0
 11100  1  0  0  0
 12 13  2  0  0  0
 12101  1  0  0  0
 13 14  1  0  0  0
 13 31  1  0  0  0
 14 15  2  0  0  0
 14102  1  0  0  0
 15103  1  0  0  0
 16 17  2  0  0  0
 16 21  1  0  0  0
 16 31  1  0  0  0
 17 18  1  0  0  0
 17104  1  0  0  0
 18 19  2  0  0  0
 18105  1  0  0  0
 19 20  1  0  0  0
 19 24  1  0  0  0
 20 21  2  0  0  0
 20106  1  0  0  0
 21 23  1  0  0  0
 22 28  1  0  0  0
 22 32  2  0  0  0
 26 27  1  0  0  0
 28107  1  0  0  0
 28108  1  0  0  0
 29109  1  0  0  0
 29110  1  0  0  0
 33 34  1  0  0  0
 33 66  1  0  0  0
 33 70  2  0  0  0
 34 36  1  0  0  0
 34 59  1  0  0  0
 34111  1  0  0  0
 35 44  2  0  0  0
 35 45  1  0  0  0
 35 68  1  0  0  0
 36 56  1  0  0  0
 36112  1  0  0  0
 37 39  1  0  0  0
 37 47  1  0  0  0
 37 66  1  0  0  0
 37113  1  0  0  0
 38 43  2  0  0  0
 38 46  1  0  0  0
 38 47  1  0  0  0
 39 64  1  0  0  0
 39 67  2  0  0  0
 40 52  1  0  0  0
 40 53  2  0  0  0
 40 58  1  0  0  0
 41114  1  0  0  0
 41115  1  0  0  0
 41116  1  0  0  0
 41 48  1  0  0  0
 42 43  1  0  0  0
 42 66  1  0  0  0
 42117  1  0  0  0
 42118  1  0  0  0
 43 44  1  0  0  0
 44119  1  0  0  0
 45 46  2  0  0  0
 45120  1  0  0  0
 46121  1  0  0  0
 47122  1  0  0  0
 47123  1  0  0  0
 48 56  1  0  0  0
 48 65  1  0  0  0
 48124  1  0  0  0
 49 50  1  0  0  0
 49 53  1  0  0  0
 49 64  1  0  0  0
 49125  1  0  0  0
 50 51  1  0  0  0
 50126  1  0  0  0
 50127  1  0  0  0
 51 52  1  0  0  0
 51128  1  0  0  0
 51129  1  0  0  0
 52130  1  0  0  0
 52131  1  0  0  0
 53 54  1  0  0  0
 54 55  2  0  0  0
 54132  1  0  0  0
 55 57  1  0  0  0
 55133  1  0  0  0
 56 69  2  0  0  0
 57 58  2  0  0  0
 57134  1  0  0  0
 58135  1  0  0  0
 59 60  1  0  0  0
 59 61  1  0  0  0
 59 62  1  0  0  0
 60136  1  0  0  0
 60137  1  0  0  0
 60138  1  0  0  0
 61139  1  0  0  0
 61140  1  0  0  0
 61141  1  0  0  0
 62142  1  0  0  0
 62143  1  0  0  0
 62144  1  0  0  0
 63 65  1  0  0  0
 63145  1  0  0  0
 63146  1  0  0  0
 63147  1  0  0  0
 64148  1  0  0  0
 65149  1  0  0  0
 68 87  1  0  0  0
 71 73  2  0  0  0
 71 74  1  0  0  0
 71150  1  0  0  0
 72 75  2  0  0  0
 72 76  1  0  0  0
 72151  1  0  0  0
 73 75  1  0  0  0
 73 82  1  0  0  0
 74 76  2  0  0  0
 74 85  1  0  0  0
 75 84  1  0  0  0
 76 89  1  0  0  0
 77 78  1  0  0  0
 77 82  1  0  0  0
 77152  1  0  0  0
 77153  1  0  0  0
 78 82  1  0  0  0
 78154  1  0  0  0
 78155  1  0  0  0
 79 80  1  0  0  0
 79 83  1  0  0  0
 79156  1  0  0  0
 79157  1  0  0  0
 80 88  1  0  0  0
 80158  1  0  0  0
 80159  1  0  0  0
 81 83  1  0  0  0
 81 88  1  0  0  0
 81160  1  0  0  0
 81161  1  0  0  0
 82162  1  0  0  0
 83 89  1  0  0  0
 83163  1  0  0  0
 84164  1  0  0  0
 84165  1  0  0  0
 84166  1  0  0  0
 85 90  1  0  0  0
 85167  1  0  0  0
 85168  1  0  0  0
 86 87  1  0  0  0
 86 90  1  0  0  0
 86169  1  0  0  0
 86170  1  0  0  0
 87171  1  0  0  0
 87172  1  0  0  0
 89173  1  0  0  0
 90174  1  0  0  0
 90175  1  0  0  0
M  CHG  1  90   1
M  ISO  4   1 100  68 101  87 101  88 100
M  END
> <chiral flag>
0

> <version>
0

> <s_m_source_file>
/data/baiqing/PycharmProjects/Reinvent-master-3.2/result/LINK_invent/BTK/process_docking_weight1_custom_sum_contain_oxygen_bond_distance_aromatic_linkinvent_7_9_3/rearranged_h_0158.sdf

> <i_m_source_file_index>
17

> <r_mmod_Potential_Energy-OPLS-2005>
44.8896636962891

> <r_mmod_Stretch_Energy-OPLS-2005>
48.9763832092285

> <r_mmod_Bend_Energy-OPLS-2005>
143.151596069336

> <r_mmod_Torsional_Energy-OPLS-2005>
392.035003662109

> <r_mmod_Improper_Torsional_Energy-OPLS-2005>
9.79838466644287

> <r_mmod_Van_der_Waal_Energy-OPLS-2005>
155.030487060547

> <r_mmod_Electrostatic_Energy-OPLS-2005>
-289.875335693359

> <r_mmod_Solvation_Energy-OPLS-2005>
-441.034973144531

> <b_mmod_Minimization_Converged-OPLS-2005>
0

> <r_mmod_RMS_Derivative-OPLS-2005>
1.60119080543518

$$$$
17
                    3D
 Structure written by MMmdl.
180190  0  0  1  0            999 V2000
  -30.6970  -14.5376   20.6770 C   0  0  0  0  0  0
  -30.4402  -12.3828   19.4590 C   0  0  0  0  0  0
  -29.5161  -12.5569   18.2368 C   0  0  0  0  0  0
  -28.0393  -12.3775   18.6390 C   0  0  0  0  0  0
  -27.6652  -13.2177   19.8893 C   0  0  2  0  0  0
  -28.6962  -13.0125   21.0215 C   0  0  0  0  0  0
  -25.2578  -13.8188   20.5690 C   0  0  0  0  0  0
  -24.1837  -13.0450   20.9175 C   0  0  0  0  0  0
  -24.6407  -11.6920   20.8744 C   0  0  0  0  0  0
  -23.9104  -10.4292   21.0426 C   0  0  0  0  0  0
  -24.3657   -9.4193   21.9204 C   0  0  0  0  0  0
  -23.6324   -8.2226   22.0740 C   0  0  0  0  0  0
  -22.4293   -8.0307   21.3537 C   0  0  0  0  0  0
  -21.9950   -9.0285   20.4620 C   0  0  0  0  0  0
  -22.7291  -10.2154   20.3057 C   0  0  0  0  0  0
  -21.6851   -6.0748   22.5280 C   0  0  0  0  0  0
  -21.4013   -6.5650   23.8214 C   0  0  0  0  0  0
  -21.3661   -5.6792   24.9173 C   0  0  0  0  0  0
  -21.6054   -4.3053   24.7205 C   0  0  0  0  0  0
  -21.8833   -3.8164   23.4318 C   0  0  0  0  0  0
  -21.9189   -4.6981   22.3387 C   0  0  0  0  0  0
  -22.7847  -13.5231   21.1860 C   0  0  0  0  0  0
  -22.1664   -4.2184   21.0949 F   0  0  0  0  0  0
  -21.5624   -3.4528   25.7696 F   0  0  0  0  0  0
  -30.0332  -13.3501   20.4970 N   0  0  0  0  0  0
  -26.3033  -12.9360   20.3395 N   0  0  0  0  0  0
  -25.9342  -11.6504   20.5788 N   0  0  0  0  0  0
  -22.0491  -12.8192   22.0390 N   0  0  0  0  0  0
  -25.4340  -15.1908   20.4105 N   0  0  0  0  0  0
  -31.6895  -14.8331   20.0052 O   0  0  0  0  0  0
  -21.6665   -6.8905   21.4235 O   0  0  0  0  0  0
  -22.3509  -14.5557   20.6728 O   0  0  0  0  0  0
  -24.6246  -31.8581   23.2049 C   0  0  0  0  0  0
  -25.9110  -32.4766   23.8308 C   0  0  1  0  0  0
  -27.2467  -27.3429   20.0962 C   0  0  0  0  0  0
  -25.5963  -33.8561   24.2256 N   0  0  0  0  0  0
  -23.4127  -30.4795   21.5458 C   0  0  2  0  0  0
  -24.8620  -28.9303   20.1053 C   0  0  0  0  0  0
  -22.7457  -29.4598   22.4974 C   0  0  0  0  0  0
  -18.0288  -28.1369   22.8484 C   0  0  0  0  0  0
  -24.1503  -36.7297   23.2622 C   0  0  0  0  0  0
  -25.9506  -30.8005   21.3627 C   0  0  0  0  0  0
  -26.0288  -29.4267   20.7021 C   0  0  0  0  0  0
  -27.2148  -28.6431   20.6848 C   0  0  0  0  0  0
  -26.0544  -26.8786   19.4984 C   0  0  0  0  0  0
  -24.8802  -27.6613   19.4966 C   0  0  0  0  0  0
  -23.6229  -29.8038   20.1633 C   0  0  0  0  0  0
  -25.4115  -36.3046   24.0298 C   0  0  1  0  0  0
  -20.5879  -28.3616   23.1361 C   0  0  2  0  0  0
  -20.6777  -26.9359   22.5439 C   0  0  0  0  0  0
  -19.5749  -26.6362   21.5253 C   0  0  0  0  0  0
  -18.1917  -26.7913   22.1621 C   0  0  0  0  0  0
  -19.1530  -28.8798   23.2909 C   0  0  0  0  0  0
  -18.9459  -30.1420   23.8895 C   0  0  0  0  0  0
  -17.6452  -30.6547   24.0551 C   0  0  0  0  0  0
  -25.9063  -34.9432   23.5060 C   0  0  0  0  0  0
  -16.5342  -29.9033   23.6377 C   0  0  0  0  0  0
  -16.7275  -28.6481   23.0350 C   0  0  0  0  0  0
  -26.4480  -31.6592   25.0696 C   0  0  0  0  0  0
  -25.3723  -31.3758   26.1446 C   0  0  0  0  0  0
  -27.0348  -30.3025   24.6141 C   0  0  0  0  0  0
  -27.5984  -32.4360   25.7493 C   0  0  0  0  0  0
  -27.5558  -37.1791   24.8450 C   0  0  0  0  0  0
  -21.4172  -29.2980   22.3767 N   0  0  0  0  0  0
  -26.4276  -37.3740   23.9379 N   0  0  0  0  0  0
  -24.6807  -31.0632   22.0952 N   0  0  0  0  0  0
  -23.4211  -28.8131   23.3025 O   0  0  0  0  0  0
  -28.4272  -26.5927   20.1410 O   0  0  0  0  0  0
  -26.5600  -34.8878   22.4619 O   0  0  0  0  0  0
  -23.5431  -32.1350   23.7430 O   0  0  0  0  0  0
  -30.0717  -20.3139   21.3582 C   0  0  0  0  0  0
  -29.4026  -22.1308   22.8332 C   0  0  0  0  0  0
  -30.3077  -19.4093   22.4644 C   0  0  0  0  0  0
  -29.6428  -21.6887   21.5260 C   0  0  0  0  0  0
  -29.5867  -21.2969   23.9387 C   0  0  0  0  0  0
  -30.1146  -19.9889   23.7720 C   0  0  0  0  0  0
  -31.7843  -15.7390   23.4307 C   0  0  0  0  0  0
  -31.4435  -17.2294   23.5188 C   0  0  0  0  0  0
  -27.0853  -22.9131   26.4986 C   0  0  0  0  0  0
  -26.9504  -23.2629   25.0397 C   0  0  0  0  0  0
  -30.5238  -14.9836   23.0133 C   0  0  0  0  0  0
  -29.8925  -16.8593   21.5056 C   0  0  0  0  0  0
  -30.8503  -17.9051   22.2395 C   0  0  1  0  0  0
  -27.6905  -22.0034   25.4455 C   0  0  0  0  0  0
  -27.0345  -23.5460   20.7178 C   0  0  0  0  0  0
  -31.6865  -19.8252   25.4998 C   0  0  0  0  0  0
  -29.1981  -21.8724   25.3028 C   0  0  0  0  0  0
  -29.4680  -22.7380   20.3683 C   0  0  0  0  0  0
  -28.5942  -25.2332   19.5924 C   0  0  0  0  0  0
  -28.4976  -24.0065   20.5973 C   0  0  1  0  0  0
  -30.2137  -15.3824   21.6422 N   0  0  0  0  0  0
  -30.4614  -19.3518   24.9322 O   0  0  0  0  0  0
  -31.4861  -12.5040   19.1702 H   0  0  0  0  0  0
  -30.3636  -11.3674   19.8438 H   0  0  0  0  0  0
  -29.7851  -11.8449   17.4564 H   0  0  0  0  0  0
  -29.6655  -13.5503   17.8117 H   0  0  0  0  0  0
  -27.8797  -11.3160   18.8403 H   0  0  0  0  0  0
  -27.3829  -12.6337   17.8051 H   0  0  0  0  0  0
  -27.7091  -14.2702   19.5997 H   0  0  0  0  0  0
  -28.6779  -11.9747   21.3577 H   0  0  0  0  0  0
  -28.4190  -13.6001   21.8963 H   0  0  0  0  0  0
  -25.2790   -9.5653   22.4812 H   0  0  0  0  0  0
  -24.0044   -7.4587   22.7421 H   0  0  0  0  0  0
  -21.0906   -8.8803   19.8897 H   0  0  0  0  0  0
  -22.3781  -10.9711   19.6180 H   0  0  0  0  0  0
  -21.2027   -7.6163   23.9724 H   0  0  0  0  0  0
  -21.1474   -6.0515   25.9073 H   0  0  0  0  0  0
  -22.0619   -2.7630   23.2796 H   0  0  0  0  0  0
  -22.4104  -11.9867   22.4828 H   0  0  0  0  0  0
  -21.1086  -13.1152   22.2563 H   0  0  0  0  0  0
  -24.6777  -15.8581   20.5228 H   0  0  0  0  0  0
  -26.3034  -15.6211   20.1213 H   0  0  0  0  0  0
  -26.7161  -32.5429   23.1022 H   0  0  0  0  0  0
  -25.0197  -33.9694   25.0454 H   0  0  0  0  0  0
  -22.6992  -31.2947   21.4017 H   0  0  0  0  0  0
  -23.3746  -35.9654   23.3295 H   0  0  0  0  0  0
  -24.3581  -36.8946   22.2040 H   0  0  0  0  0  0
  -23.7292  -37.6496   23.6676 H   0  0  0  0  0  0
  -26.0617  -31.5698   20.5953 H   0  0  0  0  0  0
  -26.8358  -30.8526   21.9870 H   0  0  0  0  0  0
  -28.1192  -29.0264   21.1323 H   0  0  0  0  0  0
  -26.0074  -25.9000   19.0444 H   0  0  0  0  0  0
  -23.9814  -27.2689   19.0382 H   0  0  0  0  0  0
  -23.7084  -30.5730   19.3961 H   0  0  0  0  0  0
  -22.7477  -29.2140   19.8826 H   0  0  0  0  0  0
  -25.1292  -36.1835   25.0781 H   0  0  0  0  0  0
  -20.9931  -28.3158   24.1496 H   0  0  0  0  0  0
  -20.5769  -26.2179   23.3593 H   0  0  0  0  0  0
  -21.6641  -26.7475   22.1167 H   0  0  0  0  0  0
  -19.6930  -25.6294   21.1247 H   0  0  0  0  0  0
  -19.6718  -27.3186   20.6815 H   0  0  0  0  0  0
  -17.4220  -26.6734   21.3979 H   0  0  0  0  0  0
  -18.0250  -26.0017   22.8976 H   0  0  0  0  0  0
  -19.7918  -30.7266   24.2237 H   0  0  0  0  0  0
  -17.4992  -31.6236   24.5122 H   0  0  0  0  0  0
  -15.5322  -30.2890   23.7737 H   0  0  0  0  0  0
  -15.8705  -28.0803   22.7041 H   0  0  0  0  0  0
  -24.5857  -30.7120   25.7838 H   0  0  0  0  0  0
  -24.8952  -32.2954   26.4859 H   0  0  0  0  0  0
  -25.8049  -30.8964   27.0248 H   0  0  0  0  0  0
  -26.2963  -29.6737   24.1162 H   0  0  0  0  0  0
  -27.4091  -29.7260   25.4617 H   0  0  0  0  0  0
  -27.8768  -30.4328   23.9335 H   0  0  0  0  0  0
  -27.2543  -33.3660   26.2022 H   0  0  0  0  0  0
  -28.3836  -32.6954   25.0385 H   0  0  0  0  0  0
  -28.0599  -31.8543   26.5478 H   0  0  0  0  0  0
  -28.2549  -38.0114   24.7496 H   0  0  0  0  0  0
  -28.1078  -36.2628   24.6275 H   0  0  0  0  0  0
  -27.2297  -37.1475   25.8866 H   0  0  0  0  0  0
  -20.9358  -29.8655   21.6943 H   0  0  0  0  0  0
  -26.0156  -38.2794   24.1412 H   0  0  0  0  0  0
  -30.2635  -19.9542   20.3571 H   0  0  0  0  0  0
  -29.0670  -23.1332   23.0373 H   0  0  0  0  0  0
  -32.1282  -15.3765   24.4012 H   0  0  0  0  0  0
  -32.6014  -15.5591   22.7294 H   0  0  0  0  0  0
  -32.3209  -17.7739   23.8633 H   0  0  0  0  0  0
  -30.6993  -17.2426   24.3083 H   0  0  0  0  0  0
  -26.1958  -22.5572   27.0166 H   0  0  0  0  0  0
  -27.7488  -23.5374   27.0956 H   0  0  0  0  0  0
  -27.5231  -24.1159   24.6802 H   0  0  0  0  0  0
  -25.9750  -23.1323   24.5756 H   0  0  0  0  0  0
  -29.6847  -15.2095   23.6717 H   0  0  0  0  0  0
  -30.6912  -13.9077   23.1096 H   0  0  0  0  0  0
  -29.8210  -17.1118   20.4474 H   0  0  0  0  0  0
  -28.8851  -16.9907   21.9032 H   0  0  0  0  0  0
  -31.7086  -18.0213   21.5742 H   0  0  0  0  0  0
  -27.1642  -21.0620   25.2900 H   0  0  0  0  0  0
  -26.9200  -22.7770   21.4807 H   0  0  0  0  0  0
  -26.6691  -23.1292   19.7759 H   0  0  0  0  0  0
  -26.3842  -24.3763   20.9918 H   0  0  0  0  0  0
  -31.6548  -20.8811   25.7657 H   0  0  0  0  0  0
  -32.5284  -19.7089   24.8151 H   0  0  0  0  0  0
  -31.9088  -19.2572   26.4022 H   0  0  0  0  0  0
  -29.6719  -22.8463   25.4354 H   0  0  0  0  0  0
  -29.5397  -21.2598   26.1376 H   0  0  0  0  0  0
  -29.1795  -22.1912   19.4696 H   0  0  0  0  0  0
  -30.4700  -23.1245   20.1649 H   0  0  0  0  0  0
  -27.9873  -25.0638   18.7025 H   0  0  0  0  0  0
  -29.6152  -25.2352   19.2084 H   0  0  0  0  0  0
  -28.7886  -24.4730   21.5346 H   0  0  0  0  0  0
  1 25  1  0  0  0
  1 30  2  0  0  0
  1 91  1  0  0  0
  2  3  1  0  0  0
  2 25  1  0  0  0
  2 93  1  0  0  0
  2 94  1  0  0  0
  3  4  1  0  0  0
  3 95  1  0  0  0
  3 96  1  0  0  0
  4  5  1  0  0  0
  4 97  1  0  0  0
  4 98  1  0  0  0
  5  6  1  0  0  0
  5 26  1  0  0  0
  5 99  1  0  0  0
  6 25  1  0  0  0
  6100  1  0  0  0
  6101  1  0  0  0
  7  8  2  0  0  0
  7 26  1  0  0  0
  7 29  1  0  0  0
  8  9  1  0  0  0
  8 22  1  0  0  0
  9 10  1  0  0  0
  9 27  2  0  0  0
 10 11  2  0  0  0
 10 15  1  0  0  0
 11 12  1  0  0  0
 11102  1  0  0  0
 12 13  2  0  0  0
 12103  1  0  0  0
 13 14  1  0  0  0
 13 31  1  0  0  0
 14 15  2  0  0  0
 14104  1  0  0  0
 15105  1  0  0  0
 16 17  2  0  0  0
 16 21  1  0  0  0
 16 31  1  0  0  0
 17 18  1  0  0  0
 17106  1  0  0  0
 18 19  2  0  0  0
 18107  1  0  0  0
 19 20  1  0  0  0
 19 24  1  0  0  0
 20 21  2  0  0  0
 20108  1  0  0  0
 21 23  1  0  0  0
 22 28  1  0  0  0
 22 32  2  0  0  0
 26 27  1  0  0  0
 28109  1  0  0  0
 28110  1  0  0  0
 29111  1  0  0  0
 29112  1  0  0  0
 33 34  1  0  0  0
 33 66  1  0  0  0
 33 70  2  0  0  0
 34 36  1  0  0  0
 34 59  1  0  0  0
 34113  1  0  0  0
 35 44  2  0  0  0
 35 45  1  0  0  0
 35 68  1  0  0  0
 36 56  1  0  0  0
 36114  1  0  0  0
 37 39  1  0  0  0
 37 47  1  0  0  0
 37 66  1  0  0  0
 37115  1  0  0  0
 38 43  2  0  0  0
 38 46  1  0  0  0
 38 47  1  0  0  0
 39 64  1  0  0  0
 39 67  2  0  0  0
 40 52  1  0  0  0
 40 53  2  0  0  0
 40 58  1  0  0  0
 41116  1  0  0  0
 41117  1  0  0  0
 41118  1  0  0  0
 41 48  1  0  0  0
 42 43  1  0  0  0
 42 66  1  0  0  0
 42119  1  0  0  0
 42120  1  0  0  0
 43 44  1  0  0  0
 44121  1  0  0  0
 45 46  2  0  0  0
 45122  1  0  0  0
 46123  1  0  0  0
 47124  1  0  0  0
 47125  1  0  0  0
 48 56  1  0  0  0
 48 65  1  0  0  0
 48126  1  0  0  0
 49 50  1  0  0  0
 49 53  1  0  0  0
 49 64  1  0  0  0
 49127  1  0  0  0
 50 51  1  0  0  0
 50128  1  0  0  0
 50129  1  0  0  0
 51 52  1  0  0  0
 51130  1  0  0  0
 51131  1  0  0  0
 52132  1  0  0  0
 52133  1  0  0  0
 53 54  1  0  0  0
 54 55  2  0  0  0
 54134  1  0  0  0
 55 57  1  0  0  0
 55135  1  0  0  0
 56 69  2  0  0  0
 57 58  2  0  0  0
 57136  1  0  0  0
 58137  1  0  0  0
 59 60  1  0  0  0
 59 61  1  0  0  0
 59 62  1  0  0  0
 60138  1  0  0  0
 60139  1  0  0  0
 60140  1  0  0  0
 61141  1  0  0  0
 61142  1  0  0  0
 61143  1  0  0  0
 62144  1  0  0  0
 62145  1  0  0  0
 62146  1  0  0  0
 63 65  1  0  0  0
 63147  1  0  0  0
 63148  1  0  0  0
 63149  1  0  0  0
 64150  1  0  0  0
 65151  1  0  0  0
 68 89  1  0  0  0
 71 73  2  0  0  0
 71 74  1  0  0  0
 71152  1  0  0  0
 72 74  2  0  0  0
 72 75  1  0  0  0
 72153  1  0  0  0
 73 76  1  0  0  0
 73 83  1  0  0  0
 74 88  1  0  0  0
 75 76  2  0  0  0
 75 87  1  0  0  0
 76 92  1  0  0  0
 77 78  1  0  0  0
 77 81  1  0  0  0
 77154  1  0  0  0
 77155  1  0  0  0
 78 83  1  0  0  0
 78156  1  0  0  0
 78157  1  0  0  0
 79 80  1  0  0  0
 79 84  1  0  0  0
 79158  1  0  0  0
 79159  1  0  0  0
 80 84  1  0  0  0
 80160  1  0  0  0
 80161  1  0  0  0
 81 91  1  0  0  0
 81162  1  0  0  0
 81163  1  0  0  0
 82 83  1  0  0  0
 82 91  1  0  0  0
 82164  1  0  0  0
 82165  1  0  0  0
 83166  1  0  0  0
 84 87  1  0  0  0
 84167  1  0  0  0
 85168  1  0  0  0
 85169  1  0  0  0
 85170  1  0  0  0
 85 90  1  0  0  0
 86 92  1  0  0  0
 86171  1  0  0  0
 86172  1  0  0  0
 86173  1  0  0  0
 87174  1  0  0  0
 87175  1  0  0  0
 88 90  1  0  0  0
 88176  1  0  0  0
 88177  1  0  0  0
 89 90  1  0  0  0
 89178  1  0  0  0
 89179  1  0  0  0
 90180  1  0  0  0
M  ISO  4   1 100  68 101  89 101  91 100
M  END
> <chiral flag>
0

> <version>
0

> <s_m_source_file>
/data/baiqing/PycharmProjects/Reinvent-master-3.2/result/LINK_invent/BTK/process_docking_weight1_custom_sum_contain_oxygen_bond_distance_aromatic_linkinvent_7_9_3/rearranged_h_0158.sdf

> <i_m_source_file_index>
18

> <r_mmod_Potential_Energy-OPLS-2005>
371.348815917969

> <r_mmod_Stretch_Energy-OPLS-2005>
105.875839233398

> <r_mmod_Bend_Energy-OPLS-2005>
172.960861206055

> <r_mmod_Torsional_Energy-OPLS-2005>
390.456085205078

> <r_mmod_Improper_Torsional_Energy-OPLS-2005>
3.56087255477905

> <r_mmod_Van_der_Waal_Energy-OPLS-2005>
161.172912597656

> <r_mmod_Electrostatic_Energy-OPLS-2005>
-304.865936279297

> <r_mmod_Solvation_Energy-OPLS-2005>
-187.761749267578

> <b_mmod_Minimization_Converged-OPLS-2005>
0

> <r_mmod_RMS_Derivative-OPLS-2005>
5.74966478347778

$$$$
18
                    3D
 Structure written by MMmdl.
169178  0  0  1  0            999 V2000
  -28.2657  -17.2619   20.4298 C   0  0  0  0  0  0
  -29.7087  -14.5771   19.5312 C   0  0  0  0  0  0
  -29.3972  -13.3074   18.5500 C   0  0  0  0  0  0
  -28.2480  -12.4377   19.0445 C   0  0  0  0  0  0
  -27.4029  -13.4063   19.8563 C   0  0  2  0  0  0
  -28.0999  -14.2926   20.9334 C   0  0  0  0  0  0
  -25.1179  -13.8203   20.5816 C   0  0  0  0  0  0
  -24.0934  -13.0192   20.9465 C   0  0  0  0  0  0
  -24.5926  -11.6792   20.8905 C   0  0  0  0  0  0
  -23.8853  -10.4133   21.0467 C   0  0  0  0  0  0
  -24.3503   -9.4098   21.9219 C   0  0  0  0  0  0
  -23.6225   -8.2118   22.0752 C   0  0  0  0  0  0
  -22.4213   -8.0154   21.3532 C   0  0  0  0  0  0
  -21.9818   -9.0087   20.4617 C   0  0  0  0  0  0
  -22.7092  -10.1976   20.3049 C   0  0  0  0  0  0
  -21.6816   -6.0666   22.5280 C   0  0  0  0  0  0
  -21.3996   -6.5600   23.8206 C   0  0  0  0  0  0
  -21.3659   -5.6771   24.9180 C   0  0  0  0  0  0
  -21.6051   -4.3032   24.7241 C   0  0  0  0  0  0
  -21.8824   -3.8103   23.4368 C   0  0  0  0  0  0
  -21.9182   -4.6904   22.3414 C   0  0  0  0  0  0
  -22.7039  -13.4910   21.2086 C   0  0  0  0  0  0
  -22.1655   -4.2088   21.0993 F   0  0  0  0  0  0
  -21.5633   -3.4529   25.7764 F   0  0  0  0  0  0
  -28.5158  -15.5827   20.2122 N   0  0  0  0  0  0
  -26.1580  -12.9609   20.3371 N   0  0  0  0  0  0
  -25.8822  -11.6623   20.5737 N   0  0  0  0  0  0
  -21.9829  -12.7893   22.0698 N   0  0  0  0  0  0
  -25.2506  -15.1982   20.3955 N   0  0  0  0  0  0
  -29.5969  -17.2050   20.4116 O   0  0  0  0  0  0
  -21.6592   -6.8765   21.4226 O   0  0  0  0  0  0
  -22.2772  -14.5232   20.6908 O   0  0  0  0  0  0
  -24.5397  -31.7622   23.1183 C   0  0  0  0  0  0
  -25.8419  -32.4290   23.7808 C   0  0  1  0  0  0
  -26.7334  -27.7026   21.0667 C   0  0  0  0  0  0
  -25.4988  -33.8175   24.1441 N   0  0  0  0  0  0
  -23.4067  -29.8758   21.5339 C   0  0  2  0  0  0
  -24.9803  -29.1518   19.7356 C   0  0  0  0  0  0
  -23.2788  -28.1791   21.8998 C   0  0  0  0  0  0
  -18.5253  -26.8310   23.5732 C   0  0  0  0  0  0
  -24.1482  -36.7211   23.2667 C   0  0  0  0  0  0
  -25.7484  -31.0041   21.1817 C   0  0  0  0  0  0
  -26.0232  -29.7361   20.4703 C   0  0  0  0  0  0
  -27.1402  -28.9963   20.8482 C   0  0  0  0  0  0
  -26.1302  -27.0551   19.9269 C   0  0  0  0  0  0
  -25.1552  -27.8346   19.2428 C   0  0  0  0  0  0
  -23.6124  -29.7739   19.9831 C   0  0  0  0  0  0
  -25.4106  -36.2836   24.0256 C   0  0  1  0  0  0
  -21.1333  -26.7718   23.5886 C   0  0  2  0  0  0
  -20.7185  -25.4117   23.0812 C   0  0  0  0  0  0
  -19.5487  -25.2365   22.0340 C   0  0  0  0  0  0
  -18.2281  -25.7140   22.6337 C   0  0  0  0  0  0
  -19.6229  -27.7427   23.2387 C   0  0  0  0  0  0
  -19.7190  -29.5709   22.0725 C   0  0  0  0  0  0
  -19.2521  -30.9598   22.2942 C   0  0  0  0  0  0
  -25.8921  -34.9200   23.4876 C   0  0  0  0  0  0
  -19.0083  -29.6851   22.1889 C   0  0  0  0  0  0
  -19.0182  -27.9828   23.4690 C   0  0  0  0  0  0
  -26.4751  -31.7072   25.0637 C   0  0  0  0  0  0
  -25.4220  -31.3584   26.1437 C   0  0  0  0  0  0
  -27.3127  -30.4427   24.7236 C   0  0  0  0  0  0
  -27.5239  -32.6288   25.7385 C   0  0  0  0  0  0
  -27.5558  -37.1617   24.8448 C   0  0  0  0  0  0
  -22.6554  -27.1610   22.8450 N   0  0  0  0  0  0
  -26.4279  -37.3544   23.9384 N   0  0  0  0  0  0
  -24.5606  -30.8578   22.0557 N   0  0  0  0  0  0
  -24.0512  -27.4438   21.5989 O   0  0  0  0  0  0
  -26.2477  -27.5267   22.4369 O   0  0  0  0  0  0
  -26.5948  -34.8791   22.4748 O   0  0  0  0  0  0
  -23.4691  -32.0960   23.6340 O   0  0  0  0  0  0
  -18.7451  -27.6500   21.0357 C   0  0  0  0  0  0
  -21.4218  -29.1012   23.4053 C   0  0  0  0  0  0
  -20.8650  -27.5715   21.3895 C   0  0  0  0  0  0
  -17.1594  -28.4771   22.2824 C   0  0  0  0  0  0
  -19.7205  -29.8946   24.4732 C   0  0  0  0  0  0
  -24.9528  -22.3133   19.9844 C   0  0  0  0  0  0
  -24.5416  -21.9242   21.6031 C   0  0  0  0  0  0
  -25.8586  -20.2895   19.8089 C   0  0  0  0  0  0
  -26.1291  -20.3710   21.4742 C   0  0  0  0  0  0
  -23.5692  -23.7148   20.8823 C   0  0  0  0  0  0
  -15.6954  -28.3943   21.9102 C   0  0  0  0  0  0
  -19.9575  -30.6651   25.7482 C   0  0  0  0  0  0
  -25.1565  -28.4329   23.6352 C   0  0  0  0  0  0
  -23.2338  -29.0703   24.2540 C   0  0  2  0  0  0
  -17.6681  -29.6631   23.9592 N   0  0  0  0  0  0
  -26.9263  -18.8424   20.5632 N   0  0  0  0  0  0
  -23.0557  -28.3931   25.5563 N   0  3  0  0  0  0
  -22.0404  -25.7696   20.8860 O   0  0  0  0  0  0
  -30.2958  -15.2464   18.9001 H   0  0  0  0  0  0
  -30.4542  -14.2855   20.2764 H   0  0  0  0  0  0
  -30.2926  -12.7057   18.3843 H   0  0  0  0  0  0
  -29.1240  -13.6978   17.5683 H   0  0  0  0  0  0
  -28.6213  -11.6431   19.6909 H   0  0  0  0  0  0
  -27.6971  -11.9730   18.2257 H   0  0  0  0  0  0
  -27.0884  -14.0813   19.0562 H   0  0  0  0  0  0
  -28.8585  -13.7510   21.5061 H   0  0  0  0  0  0
  -27.4138  -14.6061   21.7181 H   0  0  0  0  0  0
  -25.2621   -9.5636   22.4823 H   0  0  0  0  0  0
  -23.9944   -7.4509   22.7462 H   0  0  0  0  0  0
  -21.0769   -8.8567   19.8899 H   0  0  0  0  0  0
  -22.3535  -10.9521   19.6169 H   0  0  0  0  0  0
  -21.1989   -7.6111   23.9685 H   0  0  0  0  0  0
  -21.1489   -6.0515   25.9082 H   0  0  0  0  0  0
  -22.0612   -2.7561   23.2891 H   0  0  0  0  0  0
  -22.3548  -11.9569   22.5032 H   0  0  0  0  0  0
  -21.0443  -13.0845   22.2968 H   0  0  0  0  0  0
  -24.4453  -15.8152   20.4232 H   0  0  0  0  0  0
  -26.0204  -15.5676   19.8556 H   0  0  0  0  0  0
  -26.6679  -32.5339   23.0924 H   0  0  0  0  0  0
  -24.8643  -33.9315   24.9210 H   0  0  0  0  0  0
  -22.5080  -30.4505   21.6834 H   0  0  0  0  0  0
  -23.3666  -35.9612   23.3272 H   0  0  0  0  0  0
  -24.3569  -36.8934   22.2091 H   0  0  0  0  0  0
  -23.7354  -37.6412   23.6822 H   0  0  0  0  0  0
  -25.5476  -31.7821   20.4432 H   0  0  0  0  0  0
  -26.6911  -31.2846   21.6242 H   0  0  0  0  0  0
  -27.7795  -29.4571   21.5852 H   0  0  0  0  0  0
  -25.9740  -25.9857   19.9013 H   0  0  0  0  0  0
  -24.3864  -27.3446   18.6628 H   0  0  0  0  0  0
  -23.5690  -30.7523   19.5025 H   0  0  0  0  0  0
  -22.8370  -29.1717   19.5045 H   0  0  0  0  0  0
  -25.1351  -36.1547   25.0740 H   0  0  0  0  0  0
  -21.2777  -26.6874   24.6666 H   0  0  0  0  0  0
  -20.3316  -24.8987   23.9668 H   0  0  0  0  0  0
  -21.5689  -24.7652   22.8692 H   0  0  0  0  0  0
  -19.4168  -24.1581   21.9235 H   0  0  0  0  0  0
  -19.7274  -25.4676   20.9895 H   0  0  0  0  0  0
  -17.3876  -25.8458   21.9498 H   0  0  0  0  0  0
  -17.8680  -24.9153   23.2840 H   0  0  0  0  0  0
  -20.7107  -29.7952   21.3849 H   0  0  0  0  0  0
  -18.6492  -31.5127   23.0062 H   0  0  0  0  0  0
  -18.0142  -30.2438   21.6564 H   0  0  0  0  0  0
  -18.4844  -27.9348   24.6657 H   0  0  0  0  0  0
  -24.9274  -30.4189   25.9369 H   0  0  0  0  0  0
  -24.6595  -32.1321   26.2445 H   0  0  0  0  0  0
  -25.8755  -31.2272   27.1273 H   0  0  0  0  0  0
  -27.4434  -30.2697   23.6592 H   0  0  0  0  0  0
  -26.9591  -29.5493   25.2351 H   0  0  0  0  0  0
  -28.3423  -30.5180   25.0746 H   0  0  0  0  0  0
  -27.0662  -33.5158   26.1768 H   0  0  0  0  0  0
  -28.2683  -32.9729   25.0187 H   0  0  0  0  0  0
  -28.0585  -32.1352   26.5515 H   0  0  0  0  0  0
  -28.2515  -37.9964   24.7522 H   0  0  0  0  0  0
  -28.1110  -36.2483   24.6252 H   0  0  0  0  0  0
  -27.2274  -37.1209   25.8846 H   0  0  0  0  0  0
  -23.1867  -26.3088   22.7345 H   0  0  0  0  0  0
  -26.0123  -38.2597   24.1380 H   0  0  0  0  0  0
  -18.3915  -27.0518   20.2125 H   0  0  0  0  0  0
  -24.6270  -22.4134   18.9485 H   0  0  0  0  0  0
  -25.8701  -22.9175   19.9658 H   0  0  0  0  0  0
  -24.7875  -22.2878   22.6013 H   0  0  0  0  0  0
  -23.6709  -21.2926   21.8013 H   0  0  0  0  0  0
  -26.4224  -20.4126   18.8818 H   0  0  0  0  0  0
  -24.9995  -19.7066   19.4568 H   0  0  0  0  0  0
  -25.9158  -19.8475   22.4085 H   0  0  0  0  0  0
  -27.0289  -20.9349   21.7463 H   0  0  0  0  0  0
  -22.6547  -23.2267   20.5446 H   0  0  0  0  0  0
  -15.5375  -27.7481   21.0478 H   0  0  0  0  0  0
  -15.3346  -29.3922   21.6629 H   0  0  0  0  0  0
  -15.1020  -28.0132   22.7403 H   0  0  0  0  0  0
  -21.0230  -30.7078   25.9673 H   0  0  0  0  0  0
  -19.4420  -30.1794   26.5759 H   0  0  0  0  0  0
  -19.5864  -31.6841   25.6489 H   0  0  0  0  0  0
  -25.5573  -28.0215   24.5581 H   0  0  0  0  0  0
  -25.6273  -29.3673   23.5386 H   0  0  0  0  0  0
  -23.3148  -30.0645   24.6480 H   0  0  0  0  0  0
  -23.0337  -27.3990   25.4109 H   0  0  0  0  0  0
  -22.2013  -28.6802   26.0000 H   0  0  0  0  0  0
  -23.8172  -28.5866   26.1855 H   0  0  0  0  0  0
  1 25  1  0  0  0
  1 30  2  0  0  0
  1 86  1  0  0  0
  2  3  1  0  0  0
  2 25  1  0  0  0
  2 89  1  0  0  0
  2 90  1  0  0  0
  3  4  1  0  0  0
  3 91  1  0  0  0
  3 92  1  0  0  0
  4  5  1  0  0  0
  4 93  1  0  0  0
  4 94  1  0  0  0
  5  6  1  0  0  0
  5 26  1  0  0  0
  5 95  1  0  0  0
  6 25  1  0  0  0
  6 96  1  0  0  0
  6 97  1  0  0  0
  7  8  2  0  0  0
  7 26  1  0  0  0
  7 29  1  0  0  0
  8  9  1  0  0  0
  8 22  1  0  0  0
  9 10  1  0  0  0
  9 27  2  0  0  0
 10 11  2  0  0  0
 10 15  1  0  0  0
 11 12  1  0  0  0
 11 98  1  0  0  0
 12 13  2  0  0  0
 12 99  1  0  0  0
 13 14  1  0  0  0
 13 31  1  0  0  0
 14 15  2  0  0  0
 14100  1  0  0  0
 15101  1  0  0  0
 16 17  2  0  0  0
 16 21  1  0  0  0
 16 31  1  0  0  0
 17 18  1  0  0  0
 17102  1  0  0  0
 18 19  2  0  0  0
 18103  1  0  0  0
 19 20  1  0  0  0
 19 24  1  0  0  0
 20 21  2  0  0  0
 20104  1  0  0  0
 21 23  1  0  0  0
 22 28  1  0  0  0
 22 32  2  0  0  0
 26 27  1  0  0  0
 28105  1  0  0  0
 28106  1  0  0  0
 29107  1  0  0  0
 29108  1  0  0  0
 33 34  1  0  0  0
 33 66  1  0  0  0
 33 70  2  0  0  0
 34 36  1  0  0  0
 34 59  1  0  0  0
 34109  1  0  0  0
 35 44  2  0  0  0
 35 45  1  0  0  0
 35 68  1  0  0  0
 36 56  1  0  0  0
 36110  1  0  0  0
 37 39  1  0  0  0
 37 47  1  0  0  0
 37 66  1  0  0  0
 37111  1  0  0  0
 38 43  2  0  0  0
 38 46  1  0  0  0
 38 47  1  0  0  0
 39 64  1  0  0  0
 39 67  2  0  0  0
 40 52  1  0  0  0
 40 53  2  0  0  0
 40 58  1  0  0  0
 41112  1  0  0  0
 41113  1  0  0  0
 41114  1  0  0  0
 41 48  1  0  0  0
 42 43  1  0  0  0
 42 66  1  0  0  0
 42115  1  0  0  0
 42116  1  0  0  0
 43 44  1  0  0  0
 44117  1  0  0  0
 45 46  2  0  0  0
 45118  1  0  0  0
 46119  1  0  0  0
 47120  1  0  0  0
 47121  1  0  0  0
 48 56  1  0  0  0
 48 65  1  0  0  0
 48122  1  0  0  0
 49 50  1  0  0  0
 49 53  1  0  0  0
 49 64  1  0  0  0
 49123  1  0  0  0
 50 51  1  0  0  0
 50124  1  0  0  0
 50125  1  0  0  0
 51 52  1  0  0  0
 51126  1  0  0  0
 51127  1  0  0  0
 52128  1  0  0  0
 52129  1  0  0  0
 53 54  1  0  0  0
 54 55  2  0  0  0
 54130  1  0  0  0
 55 57  1  0  0  0
 55131  1  0  0  0
 56 69  2  0  0  0
 57 58  2  0  0  0
 57132  1  0  0  0
 58133  1  0  0  0
 59 60  1  0  0  0
 59 61  1  0  0  0
 59 62  1  0  0  0
 60134  1  0  0  0
 60135  1  0  0  0
 60136  1  0  0  0
 61137  1  0  0  0
 61138  1  0  0  0
 61139  1  0  0  0
 62140  1  0  0  0
 62141  1  0  0  0
 62142  1  0  0  0
 63 65  1  0  0  0
 63143  1  0  0  0
 63144  1  0  0  0
 63145  1  0  0  0
 64146  1  0  0  0
 65147  1  0  0  0
 68 83  1  0  0  0
 71 73  2  0  0  0
 71 74  1  0  0  0
 71148  1  0  0  0
 72 73  1  0  0  0
 72 75  2  0  0  0
 72 84  1  0  0  0
 73 88  1  0  0  0
 74 81  1  0  0  0
 74 85  2  0  0  0
 75 82  1  0  0  0
 75 85  1  0  0  0
 76 78  1  0  0  0
 76 80  1  0  0  0
 76149  1  0  0  0
 76150  1  0  0  0
 77 79  1  0  0  0
 77 80  1  0  0  0
 77151  1  0  0  0
 77152  1  0  0  0
 78 86  1  0  0  0
 78153  1  0  0  0
 78154  1  0  0  0
 79 86  1  0  0  0
 79155  1  0  0  0
 79156  1  0  0  0
 80 88  1  0  0  0
 80157  1  0  0  0
 81158  1  0  0  0
 81159  1  0  0  0
 81160  1  0  0  0
 82161  1  0  0  0
 82162  1  0  0  0
 82163  1  0  0  0
 83 84  1  0  0  0
 83164  1  0  0  0
 83165  1  0  0  0
 84 87  1  0  0  0
 84166  1  0  0  0
 87167  1  0  0  0
 87168  1  0  0  0
 87169  1  0  0  0
M  CHG  1  87   1
M  ISO  4   1 100  68 101  83 101  86 100
M  END
> <chiral flag>
0

> <version>
0

> <s_m_source_file>
/data/baiqing/PycharmProjects/Reinvent-master-3.2/result/LINK_invent/BTK/process_docking_weight1_custom_sum_contain_oxygen_bond_distance_aromatic_linkinvent_7_9_3/rearranged_h_0158.sdf

> <i_m_source_file_index>
19

> <r_mmod_Potential_Energy-OPLS-2005>
41876.21875

> <r_mmod_Stretch_Energy-OPLS-2005>
20025.291015625

> <r_mmod_Bend_Energy-OPLS-2005>
4903.939453125

> <r_mmod_Torsional_Energy-OPLS-2005>
1107.61889648438

> <r_mmod_Improper_Torsional_Energy-OPLS-2005>
106.30931854248

> <r_mmod_Van_der_Waal_Energy-OPLS-2005>
5657.1630859375

> <r_mmod_Electrostatic_Energy-OPLS-2005>
-290.026184082031

> <r_mmod_Solvation_Energy-OPLS-2005>
-494.964874267578

> <b_mmod_Minimization_Converged-OPLS-2005>
0

> <r_mmod_RMS_Derivative-OPLS-2005>
8.53620338439941

$$$$
19
                    3D
 Structure written by MMmdl.
169178  0  0  1  0            999 V2000
  -30.6782  -14.7400   20.4292 C   0  0  0  0  0  0
  -30.4030  -12.4120   19.5185 C   0  0  0  0  0  0
  -29.5164  -12.4861   18.2581 C   0  0  0  0  0  0
  -28.0377  -12.3288   18.6517 C   0  0  0  0  0  0
  -27.6300  -13.2474   19.8374 C   0  0  2  0  0  0
  -28.6543  -13.2338   20.9901 C   0  0  0  0  0  0
  -25.2458  -13.8242   20.5684 C   0  0  0  0  0  0
  -24.1775  -13.0456   20.9197 C   0  0  0  0  0  0
  -24.6371  -11.6936   20.8698 C   0  0  0  0  0  0
  -23.9067  -10.4308   21.0378 C   0  0  0  0  0  0
  -24.3632   -9.4221   21.9155 C   0  0  0  0  0  0
  -23.6311   -8.2255   22.0742 C   0  0  0  0  0  0
  -22.4285   -8.0288   21.3545 C   0  0  0  0  0  0
  -21.9913   -9.0256   20.4641 C   0  0  0  0  0  0
  -22.7239  -10.2135   20.3033 C   0  0  0  0  0  0
  -21.6861   -6.0726   22.5278 C   0  0  0  0  0  0
  -21.4019   -6.5628   23.8209 C   0  0  0  0  0  0
  -21.3670   -5.6786   24.9177 C   0  0  0  0  0  0
  -21.6049   -4.3048   24.7223 C   0  0  0  0  0  0
  -21.8822   -3.8131   23.4346 C   0  0  0  0  0  0
  -21.9204   -4.6950   22.3404 C   0  0  0  0  0  0
  -22.7795  -13.5201   21.1878 C   0  0  0  0  0  0
  -22.1663   -4.2137   21.0982 F   0  0  0  0  0  0
  -21.5638   -3.4535   25.7733 F   0  0  0  0  0  0
  -29.9730  -13.5019   20.4243 N   0  0  0  0  0  0
  -26.2862  -12.9472   20.3174 N   0  0  0  0  0  0
  -25.9293  -11.6601   20.5685 N   0  0  0  0  0  0
  -22.0462  -12.8187   22.0446 N   0  0  0  0  0  0
  -25.4172  -15.1983   20.4163 N   0  0  0  0  0  0
  -31.8472  -14.7521   20.0494 O   0  0  0  0  0  0
  -21.6657   -6.8877   21.4243 O   0  0  0  0  0  0
  -22.3462  -14.5511   20.6747 O   0  0  0  0  0  0
  -24.6294  -31.8557   23.1970 C   0  0  0  0  0  0
  -25.9123  -32.4759   23.8314 C   0  0  1  0  0  0
  -27.2139  -27.2699   20.1411 C   0  0  0  0  0  0
  -25.5921  -33.8563   24.2241 N   0  0  0  0  0  0
  -23.4240  -30.4751   21.5416 C   0  0  2  0  0  0
  -24.8705  -28.9167   20.1115 C   0  0  0  0  0  0
  -22.7490  -29.4596   22.4944 C   0  0  0  0  0  0
  -18.0293  -28.1379   22.8485 C   0  0  0  0  0  0
  -24.1492  -36.7286   23.2637 C   0  0  0  0  0  0
  -25.9669  -30.7730   21.3698 C   0  0  0  0  0  0
  -26.0407  -29.3937   20.7169 C   0  0  0  0  0  0
  -27.2191  -28.5842   20.7136 C   0  0  0  0  0  0
  -26.0281  -26.8509   19.5088 C   0  0  0  0  0  0
  -24.8694  -27.6548   19.4938 C   0  0  0  0  0  0
  -23.6402  -29.8025   20.1595 C   0  0  0  0  0  0
  -25.4117  -36.3073   24.0322 C   0  0  1  0  0  0
  -20.5889  -28.3686   23.1286 C   0  0  2  0  0  0
  -20.6777  -26.9405   22.5419 C   0  0  0  0  0  0
  -19.5757  -26.6379   21.5217 C   0  0  0  0  0  0
  -18.1934  -26.7920   22.1622 C   0  0  0  0  0  0
  -19.1542  -28.8852   23.2881 C   0  0  0  0  0  0
  -18.9460  -30.1452   23.8893 C   0  0  0  0  0  0
  -17.6459  -30.6581   24.0566 C   0  0  0  0  0  0
  -25.9050  -34.9442   23.5092 C   0  0  0  0  0  0
  -16.5353  -29.9073   23.6335 C   0  0  0  0  0  0
  -16.7279  -28.6493   23.0351 C   0  0  0  0  0  0
  -26.4497  -31.6565   25.0691 C   0  0  0  0  0  0
  -25.3722  -31.3695   26.1416 C   0  0  0  0  0  0
  -27.0339  -30.2984   24.6144 C   0  0  0  0  0  0
  -27.6065  -32.4297   25.7458 C   0  0  0  0  0  0
  -27.5580  -37.1794   24.8469 C   0  0  0  0  0  0
  -21.4200  -29.3031   22.3679 N   0  0  0  0  0  0
  -26.4293  -37.3767   23.9398 N   0  0  0  0  0  0
  -24.6930  -31.0519   22.0931 N   0  0  0  0  0  0
  -23.4197  -28.8152   23.3042 O   0  0  0  0  0  0
  -28.3214  -26.3979   20.1543 O   0  0  0  0  0  0
  -26.5642  -34.8925   22.4667 O   0  0  0  0  0  0
  -23.5452  -32.1376   23.7273 O   0  0  0  0  0  0
  -29.5390  -18.4192   19.9391 C   0  0  0  0  0  0
  -29.7666  -18.6944   18.5722 C   0  0  0  0  0  0
  -31.0112  -18.3444   17.9914 C   0  0  0  0  0  0
  -32.0547  -17.9400   18.8676 C   0  0  0  0  0  0
  -31.7247  -17.5340   20.1886 C   0  0  0  0  0  0
  -30.3553  -17.3411   20.5010 C   0  0  0  0  0  0
  -29.0294  -19.6610   20.7423 C   0  0  0  0  0  0
  -28.7926  -19.6371   17.8871 C   0  0  0  0  0  0
  -28.7615  -20.9860   18.6278 C   0  0  0  0  0  0
  -31.2679  -18.5590   16.5054 C   0  0  0  0  0  0
  -33.5015  -17.9063   18.3912 C   0  0  0  0  0  0
  -32.7996  -17.1926   21.2132 C   0  0  0  0  0  0
  -27.2468  -25.0082   21.9577 C   0  0  0  0  0  0
  -28.3272  -23.6391   20.0041 C   0  0  0  0  0  0
  -28.5686  -22.2335   20.8090 C   0  0  0  0  0  0
  -28.2816  -25.0439   20.8181 C   0  0  1  0  0  0
  -28.7833  -20.8856   20.0977 N   0  0  0  0  0  0
  -28.9225  -19.5609   21.9678 O   0  0  0  0  0  0
  -29.9027  -15.9830   20.7326 O   0  0  0  0  0  0
  -31.4574  -12.4787   19.2455 H   0  0  0  0  0  0
  -30.2869  -11.4457   20.0120 H   0  0  0  0  0  0
  -29.7987  -11.7049   17.5508 H   0  0  0  0  0  0
  -29.6720  -13.4360   17.7447 H   0  0  0  0  0  0
  -27.8865  -11.2835   18.9247 H   0  0  0  0  0  0
  -27.3949  -12.5104   17.7901 H   0  0  0  0  0  0
  -27.6176  -14.2613   19.4364 H   0  0  0  0  0  0
  -28.6517  -12.2704   21.4999 H   0  0  0  0  0  0
  -28.3953  -13.9835   21.7405 H   0  0  0  0  0  0
  -25.2777   -9.5702   22.4723 H   0  0  0  0  0  0
  -24.0033   -7.4637   22.7439 H   0  0  0  0  0  0
  -21.0855   -8.8757   19.8935 H   0  0  0  0  0  0
  -22.3685  -10.9670   19.6141 H   0  0  0  0  0  0
  -21.1999   -7.6128   23.9711 H   0  0  0  0  0  0
  -21.1495   -6.0513   25.9090 H   0  0  0  0  0  0
  -22.0594   -2.7591   23.2854 H   0  0  0  0  0  0
  -22.4118  -11.9869   22.4847 H   0  0  0  0  0  0
  -21.1057  -13.1179   22.2623 H   0  0  0  0  0  0
  -24.6581  -15.8576   20.5431 H   0  0  0  0  0  0
  -26.2813  -15.6388   20.1288 H   0  0  0  0  0  0
  -26.7180  -32.5409   23.1047 H   0  0  0  0  0  0
  -25.0054  -33.9687   25.0385 H   0  0  0  0  0  0
  -22.7208  -31.2972   21.3936 H   0  0  0  0  0  0
  -23.3758  -35.9615   23.3304 H   0  0  0  0  0  0
  -24.3583  -36.8909   22.2051 H   0  0  0  0  0  0
  -23.7245  -37.6487   23.6664 H   0  0  0  0  0  0
  -26.0985  -31.5319   20.5972 H   0  0  0  0  0  0
  -26.8461  -30.8281   21.9995 H   0  0  0  0  0  0
  -28.1184  -28.9451   21.1917 H   0  0  0  0  0  0
  -25.9943  -25.8773   19.0420 H   0  0  0  0  0  0
  -23.9732  -27.2853   19.0136 H   0  0  0  0  0  0
  -23.7613  -30.5760   19.4009 H   0  0  0  0  0  0
  -22.7576  -29.2344   19.8602 H   0  0  0  0  0  0
  -25.1300  -36.1921   25.0815 H   0  0  0  0  0  0
  -20.9982  -28.3257   24.1407 H   0  0  0  0  0  0
  -20.5680  -26.2292   23.3617 H   0  0  0  0  0  0
  -21.6641  -26.7442   22.1198 H   0  0  0  0  0  0
  -19.6923  -25.6296   21.1234 H   0  0  0  0  0  0
  -19.6689  -27.3202   20.6755 H   0  0  0  0  0  0
  -17.4206  -26.6685   21.4022 H   0  0  0  0  0  0
  -18.0330  -26.0059   22.9015 H   0  0  0  0  0  0
  -19.7936  -30.7280   24.2244 H   0  0  0  0  0  0
  -17.5008  -31.6259   24.5176 H   0  0  0  0  0  0
  -15.5349  -30.2973   23.7652 H   0  0  0  0  0  0
  -15.8681  -28.0813   22.7057 H   0  0  0  0  0  0
  -24.5924  -30.7015   25.7735 H   0  0  0  0  0  0
  -24.8884  -32.2852   26.4824 H   0  0  0  0  0  0
  -25.8046  -30.8890   27.0200 H   0  0  0  0  0  0
  -26.2901  -29.6724   24.1193 H   0  0  0  0  0  0
  -27.4068  -29.7253   25.4642 H   0  0  0  0  0  0
  -27.8762  -30.4275   23.9340 H   0  0  0  0  0  0
  -27.2688  -33.3611   26.2012 H   0  0  0  0  0  0
  -28.3874  -32.6820   25.0272 H   0  0  0  0  0  0
  -28.0724  -31.8428   26.5380 H   0  0  0  0  0  0
  -28.2600  -38.0089   24.7514 H   0  0  0  0  0  0
  -28.1070  -36.2621   24.6299 H   0  0  0  0  0  0
  -27.2299  -37.1453   25.8873 H   0  0  0  0  0  0
  -20.9391  -29.8742   21.6873 H   0  0  0  0  0  0
  -26.0184  -38.2845   24.1394 H   0  0  0  0  0  0
  -27.8046  -19.1764   17.9153 H   0  0  0  0  0  0
  -29.0127  -19.8019   16.8339 H   0  0  0  0  0  0
  -27.8876  -21.5445   18.2943 H   0  0  0  0  0  0
  -29.6395  -21.5622   18.3340 H   0  0  0  0  0  0
  -30.3848  -18.3019   15.9198 H   0  0  0  0  0  0
  -32.0672  -17.9184   16.1339 H   0  0  0  0  0  0
  -31.5341  -19.5950   16.2976 H   0  0  0  0  0  0
  -33.7429  -16.9118   18.0152 H   0  0  0  0  0  0
  -34.2015  -18.1490   19.1887 H   0  0  0  0  0  0
  -33.6881  -18.6289   17.5977 H   0  0  0  0  0  0
  -33.3084  -18.1025   21.5318 H   0  0  0  0  0  0
  -33.5486  -16.5105   20.8118 H   0  0  0  0  0  0
  -32.3654  -16.7323   22.1012 H   0  0  0  0  0  0
  -27.4001  -24.1444   22.6046 H   0  0  0  0  0  0
  -26.2265  -24.9573   21.5796 H   0  0  0  0  0  0
  -27.3302  -25.8910   22.5914 H   0  0  0  0  0  0
  -27.3981  -23.5554   19.4401 H   0  0  0  0  0  0
  -29.1109  -23.7385   19.2542 H   0  0  0  0  0  0
  -27.7280  -22.0900   21.4889 H   0  0  0  0  0  0
  -29.4350  -22.3736   21.4556 H   0  0  0  0  0  0
  -29.2444  -25.0495   21.3316 H   0  0  0  0  0  0
  1 25  1  0  0  0
  1 30  2  0  0  0
  1 89  1  0  0  0
  2  3  1  0  0  0
  2 25  1  0  0  0
  2 90  1  0  0  0
  2 91  1  0  0  0
  3  4  1  0  0  0
  3 92  1  0  0  0
  3 93  1  0  0  0
  4  5  1  0  0  0
  4 94  1  0  0  0
  4 95  1  0  0  0
  5  6  1  0  0  0
  5 26  1  0  0  0
  5 96  1  0  0  0
  6 25  1  0  0  0
  6 97  1  0  0  0
  6 98  1  0  0  0
  7  8  2  0  0  0
  7 26  1  0  0  0
  7 29  1  0  0  0
  8  9  1  0  0  0
  8 22  1  0  0  0
  9 10  1  0  0  0
  9 27  2  0  0  0
 10 11  2  0  0  0
 10 15  1  0  0  0
 11 12  1  0  0  0
 11 99  1  0  0  0
 12 13  2  0  0  0
 12100  1  0  0  0
 13 14  1  0  0  0
 13 31  1  0  0  0
 14 15  2  0  0  0
 14101  1  0  0  0
 15102  1  0  0  0
 16 17  2  0  0  0
 16 21  1  0  0  0
 16 31  1  0  0  0
 17 18  1  0  0  0
 17103  1  0  0  0
 18 19  2  0  0  0
 18104  1  0  0  0
 19 20  1  0  0  0
 19 24  1  0  0  0
 20 21  2  0  0  0
 20105  1  0  0  0
 21 23  1  0  0  0
 22 28  1  0  0  0
 22 32  2  0  0  0
 26 27  1  0  0  0
 28106  1  0  0  0
 28107  1  0  0  0
 29108  1  0  0  0
 29109  1  0  0  0
 33 34  1  0  0  0
 33 66  1  0  0  0
 33 70  2  0  0  0
 34 36  1  0  0  0
 34 59  1  0  0  0
 34110  1  0  0  0
 35 44  2  0  0  0
 35 45  1  0  0  0
 35 68  1  0  0  0
 36 56  1  0  0  0
 36111  1  0  0  0
 37 39  1  0  0  0
 37 47  1  0  0  0
 37 66  1  0  0  0
 37112  1  0  0  0
 38 43  2  0  0  0
 38 46  1  0  0  0
 38 47  1  0  0  0
 39 64  1  0  0  0
 39 67  2  0  0  0
 40 52  1  0  0  0
 40 53  2  0  0  0
 40 58  1  0  0  0
 41113  1  0  0  0
 41114  1  0  0  0
 41115  1  0  0  0
 41 48  1  0  0  0
 42 43  1  0  0  0
 42 66  1  0  0  0
 42116  1  0  0  0
 42117  1  0  0  0
 43 44  1  0  0  0
 44118  1  0  0  0
 45 46  2  0  0  0
 45119  1  0  0  0
 46120  1  0  0  0
 47121  1  0  0  0
 47122  1  0  0  0
 48 56  1  0  0  0
 48 65  1  0  0  0
 48123  1  0  0  0
 49 50  1  0  0  0
 49 53  1  0  0  0
 49 64  1  0  0  0
 49124  1  0  0  0
 50 51  1  0  0  0
 50125  1  0  0  0
 50126  1  0  0  0
 51 52  1  0  0  0
 51127  1  0  0  0
 51128  1  0  0  0
 52129  1  0  0  0
 52130  1  0  0  0
 53 54  1  0  0  0
 54 55  2  0  0  0
 54131  1  0  0  0
 55 57  1  0  0  0
 55132  1  0  0  0
 56 69  2  0  0  0
 57 58  2  0  0  0
 57133  1  0  0  0
 58134  1  0  0  0
 59 60  1  0  0  0
 59 61  1  0  0  0
 59 62  1  0  0  0
 60135  1  0  0  0
 60136  1  0  0  0
 60137  1  0  0  0
 61138  1  0  0  0
 61139  1  0  0  0
 61140  1  0  0  0
 62141  1  0  0  0
 62142  1  0  0  0
 62143  1  0  0  0
 63 65  1  0  0  0
 63144  1  0  0  0
 63145  1  0  0  0
 63146  1  0  0  0
 64147  1  0  0  0
 65148  1  0  0  0
 68 86  1  0  0  0
 71 72  1  0  0  0
 71 76  2  0  0  0
 71 77  1  0  0  0
 72 73  2  0  0  0
 72 78  1  0  0  0
 73 74  1  0  0  0
 73 80  1  0  0  0
 74 75  2  0  0  0
 74 81  1  0  0  0
 75 76  1  0  0  0
 75 82  1  0  0  0
 76 89  1  0  0  0
 77 87  1  0  0  0
 77 88  2  0  0  0
 78 79  1  0  0  0
 78149  1  0  0  0
 78150  1  0  0  0
 79 87  1  0  0  0
 79151  1  0  0  0
 79152  1  0  0  0
 80153  1  0  0  0
 80154  1  0  0  0
 80155  1  0  0  0
 81156  1  0  0  0
 81157  1  0  0  0
 81158  1  0  0  0
 82159  1  0  0  0
 82160  1  0  0  0
 82161  1  0  0  0
 83162  1  0  0  0
 83163  1  0  0  0
 83164  1  0  0  0
 83 86  1  0  0  0
 84 85  1  0  0  0
 84 86  1  0  0  0
 84165  1  0  0  0
 84166  1  0  0  0
 85 87  1  0  0  0
 85167  1  0  0  0
 85168  1  0  0  0
 86169  1  0  0  0
M  ISO  4   1 100  68 101  86 101  89 100
M  END
> <chiral flag>
0

> <version>
0

> <s_m_source_file>
/data/baiqing/PycharmProjects/Reinvent-master-3.2/result/LINK_invent/BTK/process_docking_weight1_custom_sum_contain_oxygen_bond_distance_aromatic_linkinvent_7_9_3/rearranged_h_0158.sdf

> <i_m_source_file_index>
20

> <r_mmod_Potential_Energy-OPLS-2005>
593.238708496094

> <r_mmod_Stretch_Energy-OPLS-2005>
160.790496826172

> <r_mmod_Bend_Energy-OPLS-2005>
200.660751342773

> <r_mmod_Torsional_Energy-OPLS-2005>
463.075378417969

> <r_mmod_Improper_Torsional_Energy-OPLS-2005>
24.4499797821045

> <r_mmod_Van_der_Waal_Energy-OPLS-2005>
167.77067565918

> <r_mmod_Electrostatic_Energy-OPLS-2005>
-295.461395263672

> <r_mmod_Solvation_Energy-OPLS-2005>
-208.525375366211

> <b_mmod_Minimization_Converged-OPLS-2005>
0

> <r_mmod_RMS_Derivative-OPLS-2005>
2.29664850234985

$$$$
20
                    3D
 Structure written by MMmdl.
171181  0  0  1  0            999 V2000
  -30.7283  -14.4549   20.6554 C   0  0  0  0  0  0
  -30.4233  -12.3309   19.4146 C   0  0  0  0  0  0
  -29.4894  -12.5242   18.2027 C   0  0  0  0  0  0
  -28.0138  -12.3575   18.6145 C   0  0  0  0  0  0
  -27.6620  -13.1850   19.8767 C   0  0  2  0  0  0
  -28.7059  -12.9294   20.9939 C   0  0  0  0  0  0
  -25.2597  -13.8113   20.5653 C   0  0  0  0  0  0
  -24.1826  -13.0425   20.9168 C   0  0  0  0  0  0
  -24.6357  -11.6884   20.8735 C   0  0  0  0  0  0
  -23.9020  -10.4288   21.0409 C   0  0  0  0  0  0
  -24.3589   -9.4213   21.9187 C   0  0  0  0  0  0
  -23.6279   -8.2243   22.0751 C   0  0  0  0  0  0
  -22.4263   -8.0273   21.3541 C   0  0  0  0  0  0
  -21.9886   -9.0238   20.4639 C   0  0  0  0  0  0
  -22.7199  -10.2128   20.3054 C   0  0  0  0  0  0
  -21.6849   -6.0737   22.5281 C   0  0  0  0  0  0
  -21.4010   -6.5640   23.8214 C   0  0  0  0  0  0
  -21.3656   -5.6789   24.9172 C   0  0  0  0  0  0
  -21.6049   -4.3053   24.7221 C   0  0  0  0  0  0
  -21.8818   -3.8148   23.4341 C   0  0  0  0  0  0
  -21.9188   -4.6967   22.3401 C   0  0  0  0  0  0
  -22.7858  -13.5249   21.1836 C   0  0  0  0  0  0
  -22.1653   -4.2157   21.0979 F   0  0  0  0  0  0
  -21.5633   -3.4535   25.7731 F   0  0  0  0  0  0
  -30.0306  -13.2922   20.4650 N   0  0  0  0  0  0
  -26.3013  -12.9236   20.3356 N   0  0  0  0  0  0
  -25.9274  -11.6423   20.5768 N   0  0  0  0  0  0
  -22.0479  -12.8259   22.0393 N   0  0  0  0  0  0
  -25.4326  -15.1828   20.4029 N   0  0  0  0  0  0
  -31.7917  -14.6572   20.0559 O   0  0  0  0  0  0
  -21.6629   -6.8873   21.4241 O   0  0  0  0  0  0
  -22.3558  -14.5565   20.6681 O   0  0  0  0  0  0
  -24.6110  -31.8704   23.2116 C   0  0  0  0  0  0
  -25.9011  -32.4841   23.8405 C   0  0  1  0  0  0
  -27.2411  -27.4600   20.1013 C   0  0  0  0  0  0
  -25.5872  -33.8639   24.2340 N   0  0  0  0  0  0
  -23.3989  -30.4912   21.5511 C   0  0  2  0  0  0
  -24.8489  -28.9550   20.1196 C   0  0  0  0  0  0
  -22.7390  -29.4671   22.5016 C   0  0  0  0  0  0
  -18.0267  -28.1374   22.8494 C   0  0  0  0  0  0
  -24.1473  -36.7326   23.2630 C   0  0  0  0  0  0
  -25.9233  -30.8421   21.3621 C   0  0  0  0  0  0
  -26.0035  -29.4743   20.7194 C   0  0  0  0  0  0
  -27.2031  -28.7309   20.7162 C   0  0  0  0  0  0
  -26.0782  -26.9522   19.4907 C   0  0  0  0  0  0
  -24.8776  -27.6890   19.5063 C   0  0  0  0  0  0
  -23.6077  -29.8177   20.1673 C   0  0  0  0  0  0
  -25.4094  -36.3129   24.0340 C   0  0  1  0  0  0
  -20.5855  -28.3656   23.1332 C   0  0  2  0  0  0
  -20.6761  -26.9398   22.5423 C   0  0  0  0  0  0
  -19.5741  -26.6382   21.5217 C   0  0  0  0  0  0
  -18.1915  -26.7924   22.1623 C   0  0  0  0  0  0
  -19.1516  -28.8834   23.2909 C   0  0  0  0  0  0
  -18.9446  -30.1442   23.8911 C   0  0  0  0  0  0
  -17.6448  -30.6587   24.0563 C   0  0  0  0  0  0
  -25.9028  -34.9491   23.5147 C   0  0  0  0  0  0
  -16.5338  -29.9089   23.6320 C   0  0  0  0  0  0
  -16.7255  -28.6506   23.0340 C   0  0  0  0  0  0
  -26.4455  -31.6600   25.0711 C   0  0  0  0  0  0
  -25.3732  -31.3685   26.1458 C   0  0  0  0  0  0
  -27.0278  -30.3047   24.6057 C   0  0  0  0  0  0
  -27.6023  -32.4313   25.7491 C   0  0  0  0  0  0
  -27.5591  -37.1809   24.8451 C   0  0  0  0  0  0
  -21.4124  -29.3028   22.3746 N   0  0  0  0  0  0
  -26.4282  -37.3817   23.9424 N   0  0  0  0  0  0
  -24.6623  -31.0822   22.1006 N   0  0  0  0  0  0
  -23.4168  -28.8226   23.3067 O   0  0  0  0  0  0
  -28.3955  -26.7201   20.0389 O   0  0  0  0  0  0
  -26.5599  -34.8937   22.4714 O   0  0  0  0  0  0
  -23.5311  -32.1452   23.7524 O   0  0  0  0  0  0
  -29.9520  -20.7005   22.7278 C   0  0  0  0  0  0
  -29.8461  -22.0653   22.3995 C   0  0  0  0  0  0
  -29.9194  -20.1371   20.3657 C   0  0  0  0  0  0
  -29.9779  -19.7207   21.7143 C   0  0  0  0  0  0
  -29.7543  -22.4849   21.0532 C   0  0  0  0  0  0
  -29.7965  -21.5102   20.0211 C   0  0  0  0  0  0
  -30.8886  -24.7918   21.0921 C   0  0  0  0  0  0
  -30.4173  -26.2470   21.2523 C   0  0  0  0  0  0
  -28.9703  -17.3952   21.3462 C   0  0  0  0  0  0
  -31.3990  -17.5747   21.9390 C   0  0  0  0  0  0
  -28.5013  -24.7398   21.4284 C   0  0  0  0  0  0
  -28.9993  -15.9248   21.8011 C   0  0  0  0  0  0
  -31.3460  -16.0935   22.3954 C   0  0  0  0  0  0
  -30.0179  -18.2365   22.0942 C   0  0  0  0  0  0
  -29.6393  -23.9822   20.7258 C   0  0  2  0  0  0
  -28.8793  -26.2245   21.2876 C   0  0  2  0  0  0
  -29.6823  -20.9917   17.6687 C   0  0  0  0  0  0
  -30.3387  -15.3149   21.6443 N   0  0  0  0  0  0
  -29.7136  -21.9528   18.7166 O   0  0  0  0  0  0
  -31.4644  -12.4418   19.1065 H   0  0  0  0  0  0
  -30.3462  -11.3109   19.7941 H   0  0  0  0  0  0
  -29.7414  -11.8121   17.4159 H   0  0  0  0  0  0
  -29.6410  -13.5169   17.7760 H   0  0  0  0  0  0
  -27.8359  -11.2981   18.8036 H   0  0  0  0  0  0
  -27.3579  -12.6329   17.7879 H   0  0  0  0  0  0
  -27.7083  -14.2268   19.5645 H   0  0  0  0  0  0
  -28.7023  -11.8719   21.2608 H   0  0  0  0  0  0
  -28.4577  -13.4269   21.9293 H   0  0  0  0  0  0
  -25.2736   -9.5703   22.4755 H   0  0  0  0  0  0
  -23.9991   -7.4644   22.7476 H   0  0  0  0  0  0
  -21.0819   -8.8750   19.8947 H   0  0  0  0  0  0
  -22.3651  -10.9666   19.6165 H   0  0  0  0  0  0
  -21.1998   -7.6146   23.9723 H   0  0  0  0  0  0
  -21.1478   -6.0515   25.9077 H   0  0  0  0  0  0
  -22.0599   -2.7611   23.2836 H   0  0  0  0  0  0
  -22.4063  -11.9912   22.4795 H   0  0  0  0  0  0
  -21.1099  -13.1304   22.2579 H   0  0  0  0  0  0
  -24.6659  -15.8374   20.5125 H   0  0  0  0  0  0
  -26.2844  -15.6220   20.0792 H   0  0  0  0  0  0
  -26.7086  -32.5575   23.1181 H   0  0  0  0  0  0
  -25.0005  -33.9802   25.0474 H   0  0  0  0  0  0
  -22.6867  -31.3068   21.4093 H   0  0  0  0  0  0
  -23.3755  -35.9637   23.3264 H   0  0  0  0  0  0
  -24.3583  -36.8971   22.2051 H   0  0  0  0  0  0
  -23.7191  -37.6508   23.6666 H   0  0  0  0  0  0
  -26.0264  -31.6044   20.5885 H   0  0  0  0  0  0
  -26.8149  -30.9046   21.9740 H   0  0  0  0  0  0
  -28.0973  -29.1333   21.1711 H   0  0  0  0  0  0
  -26.1041  -25.9853   19.0084 H   0  0  0  0  0  0
  -23.9909  -27.2822   19.0394 H   0  0  0  0  0  0
  -23.7122  -30.5891   19.4037 H   0  0  0  0  0  0
  -22.7340  -29.2320   19.8751 H   0  0  0  0  0  0
  -25.1270  -36.1999   25.0835 H   0  0  0  0  0  0
  -20.9933  -28.3209   24.1457 H   0  0  0  0  0  0
  -20.5663  -26.2266   23.3605 H   0  0  0  0  0  0
  -21.6632  -26.7447   22.1214 H   0  0  0  0  0  0
  -19.6893  -25.6293   21.1240 H   0  0  0  0  0  0
  -19.6684  -27.3205   20.6758 H   0  0  0  0  0  0
  -17.4192  -26.6681   21.4016 H   0  0  0  0  0  0
  -18.0298  -26.0063   22.9015 H   0  0  0  0  0  0
  -19.7926  -30.7255   24.2278 H   0  0  0  0  0  0
  -17.5006  -31.6267   24.5159 H   0  0  0  0  0  0
  -15.5338  -30.2997   23.7635 H   0  0  0  0  0  0
  -15.8656  -28.0831   22.7037 H   0  0  0  0  0  0
  -24.5895  -30.7050   25.7788 H   0  0  0  0  0  0
  -24.8938  -32.2830   26.4956 H   0  0  0  0  0  0
  -25.8086  -30.8810   27.0186 H   0  0  0  0  0  0
  -26.2818  -29.6831   24.1086 H   0  0  0  0  0  0
  -27.4029  -29.7255   25.4507 H   0  0  0  0  0  0
  -27.8661  -30.4381   23.9214 H   0  0  0  0  0  0
  -27.2634  -33.3600   26.2098 H   0  0  0  0  0  0
  -28.3832  -32.6890   25.0325 H   0  0  0  0  0  0
  -28.0684  -31.8411   26.5391 H   0  0  0  0  0  0
  -28.2566  -38.0154   24.7584 H   0  0  0  0  0  0
  -28.1138  -36.2697   24.6169 H   0  0  0  0  0  0
  -27.2327  -37.1311   25.8852 H   0  0  0  0  0  0
  -20.9272  -29.8749   21.6975 H   0  0  0  0  0  0
  -26.0176  -38.2886   24.1477 H   0  0  0  0  0  0
  -30.0030  -20.4101   23.7685 H   0  0  0  0  0  0
  -29.8320  -22.7933   23.1981 H   0  0  0  0  0  0
  -29.9571  -19.3773   19.5999 H   0  0  0  0  0  0
  -31.2942  -24.4530   22.0463 H   0  0  0  0  0  0
  -31.6799  -24.6824   20.3499 H   0  0  0  0  0  0
  -30.7803  -26.8701   20.4337 H   0  0  0  0  0  0
  -30.8192  -26.6716   22.1735 H   0  0  0  0  0  0
  -27.9760  -17.8105   21.5180 H   0  0  0  0  0  0
  -29.1386  -17.4316   20.2701 H   0  0  0  0  0  0
  -31.7334  -17.6349   20.9023 H   0  0  0  0  0  0
  -32.1374  -18.1146   22.5334 H   0  0  0  0  0  0
  -28.4742  -24.4917   22.4894 H   0  0  0  0  0  0
  -27.5183  -24.5057   21.0176 H   0  0  0  0  0  0
  -28.2259  -15.4293   21.2324 H   0  0  0  0  0  0
  -28.6974  -15.8495   22.8470 H   0  0  0  0  0  0
  -31.0951  -16.0441   23.4561 H   0  0  0  0  0  0
  -32.3388  -15.6459   22.3179 H   0  0  0  0  0  0
  -29.7606  -18.1833   23.1537 H   0  0  0  0  0  0
  -29.4731  -24.1135   19.6563 H   0  0  0  0  0  0
  -28.5022  -26.8039   22.1326 H   0  0  0  0  0  0
  -29.5538  -21.5039   16.7149 H   0  0  0  0  0  0
  -28.8473  -20.2988   17.7818 H   0  0  0  0  0  0
  -30.6148  -20.4286   17.6162 H   0  0  0  0  0  0
  1 25  1  0  0  0
  1 30  2  0  0  0
  1 88  1  0  0  0
  2  3  1  0  0  0
  2 25  1  0  0  0
  2 90  1  0  0  0
  2 91  1  0  0  0
  3  4  1  0  0  0
  3 92  1  0  0  0
  3 93  1  0  0  0
  4  5  1  0  0  0
  4 94  1  0  0  0
  4 95  1  0  0  0
  5  6  1  0  0  0
  5 26  1  0  0  0
  5 96  1  0  0  0
  6 25  1  0  0  0
  6 97  1  0  0  0
  6 98  1  0  0  0
  7  8  2  0  0  0
  7 26  1  0  0  0
  7 29  1  0  0  0
  8  9  1  0  0  0
  8 22  1  0  0  0
  9 10  1  0  0  0
  9 27  2  0  0  0
 10 11  2  0  0  0
 10 15  1  0  0  0
 11 12  1  0  0  0
 11 99  1  0  0  0
 12 13  2  0  0  0
 12100  1  0  0  0
 13 14  1  0  0  0
 13 31  1  0  0  0
 14 15  2  0  0  0
 14101  1  0  0  0
 15102  1  0  0  0
 16 17  2  0  0  0
 16 21  1  0  0  0
 16 31  1  0  0  0
 17 18  1  0  0  0
 17103  1  0  0  0
 18 19  2  0  0  0
 18104  1  0  0  0
 19 20  1  0  0  0
 19 24  1  0  0  0
 20 21  2  0  0  0
 20105  1  0  0  0
 21 23  1  0  0  0
 22 28  1  0  0  0
 22 32  2  0  0  0
 26 27  1  0  0  0
 28106  1  0  0  0
 28107  1  0  0  0
 29108  1  0  0  0
 29109  1  0  0  0
 33 34  1  0  0  0
 33 66  1  0  0  0
 33 70  2  0  0  0
 34 36  1  0  0  0
 34 59  1  0  0  0
 34110  1  0  0  0
 35 44  2  0  0  0
 35 45  1  0  0  0
 35 68  1  0  0  0
 36 56  1  0  0  0
 36111  1  0  0  0
 37 39  1  0  0  0
 37 47  1  0  0  0
 37 66  1  0  0  0
 37112  1  0  0  0
 38 43  2  0  0  0
 38 46  1  0  0  0
 38 47  1  0  0  0
 39 64  1  0  0  0
 39 67  2  0  0  0
 40 52  1  0  0  0
 40 53  2  0  0  0
 40 58  1  0  0  0
 41113  1  0  0  0
 41114  1  0  0  0
 41115  1  0  0  0
 41 48  1  0  0  0
 42 43  1  0  0  0
 42 66  1  0  0  0
 42116  1  0  0  0
 42117  1  0  0  0
 43 44  1  0  0  0
 44118  1  0  0  0
 45 46  2  0  0  0
 45119  1  0  0  0
 46120  1  0  0  0
 47121  1  0  0  0
 47122  1  0  0  0
 48 56  1  0  0  0
 48 65  1  0  0  0
 48123  1  0  0  0
 49 50  1  0  0  0
 49 53  1  0  0  0
 49 64  1  0  0  0
 49124  1  0  0  0
 50 51  1  0  0  0
 50125  1  0  0  0
 50126  1  0  0  0
 51 52  1  0  0  0
 51127  1  0  0  0
 51128  1  0  0  0
 52129  1  0  0  0
 52130  1  0  0  0
 53 54  1  0  0  0
 54 55  2  0  0  0
 54131  1  0  0  0
 55 57  1  0  0  0
 55132  1  0  0  0
 56 69  2  0  0  0
 57 58  2  0  0  0
 57133  1  0  0  0
 58134  1  0  0  0
 59 60  1  0  0  0
 59 61  1  0  0  0
 59 62  1  0  0  0
 60135  1  0  0  0
 60136  1  0  0  0
 60137  1  0  0  0
 61138  1  0  0  0
 61139  1  0  0  0
 61140  1  0  0  0
 62141  1  0  0  0
 62142  1  0  0  0
 62143  1  0  0  0
 63 65  1  0  0  0
 63144  1  0  0  0
 63145  1  0  0  0
 63146  1  0  0  0
 64147  1  0  0  0
 65148  1  0  0  0
 68 86  1  0  0  0
 71 72  2  0  0  0
 71 74  1  0  0  0
 71149  1  0  0  0
 72 75  1  0  0  0
 72150  1  0  0  0
 73 74  2  0  0  0
 73 76  1  0  0  0
 73151  1  0  0  0
 74 84  1  0  0  0
 75 76  2  0  0  0
 75 85  1  0  0  0
 76 89  1  0  0  0
 77 78  1  0  0  0
 77 85  1  0  0  0
 77152  1  0  0  0
 77153  1  0  0  0
 78 86  1  0  0  0
 78154  1  0  0  0
 78155  1  0  0  0
 79 82  1  0  0  0
 79 84  1  0  0  0
 79156  1  0  0  0
 79157  1  0  0  0
 80 83  1  0  0  0
 80 84  1  0  0  0
 80158  1  0  0  0
 80159  1  0  0  0
 81 85  1  0  0  0
 81 86  1  0  0  0
 81160  1  0  0  0
 81161  1  0  0  0
 82 88  1  0  0  0
 82162  1  0  0  0
 82163  1  0  0  0
 83 88  1  0  0  0
 83164  1  0  0  0
 83165  1  0  0  0
 84166  1  0  0  0
 85167  1  0  0  0
 86168  1  0  0  0
 87 89  1  0  0  0
 87169  1  0  0  0
 87170  1  0  0  0
 87171  1  0  0  0
M  ISO  4   1 100  68 101  86 101  88 100
M  END
> <chiral flag>
0

> <version>
0

> <s_m_source_file>
/data/baiqing/PycharmProjects/Reinvent-master-3.2/result/LINK_invent/BTK/process_docking_weight1_custom_sum_contain_oxygen_bond_distance_aromatic_linkinvent_7_9_3/rearranged_h_0158.sdf

> <i_m_source_file_index>
21

> <r_mmod_Potential_Energy-OPLS-2005>
230.313247680664

> <r_mmod_Stretch_Energy-OPLS-2005>
41.5585021972656

> <r_mmod_Bend_Energy-OPLS-2005>
137.32958984375

> <r_mmod_Torsional_Energy-OPLS-2005>
367.029296875

> <r_mmod_Improper_Torsional_Energy-OPLS-2005>
4.91355895996094

> <r_mmod_Van_der_Waal_Energy-OPLS-2005>
166.955703735352

> <r_mmod_Electrostatic_Energy-OPLS-2005>
-299.192932128906

> <r_mmod_Solvation_Energy-OPLS-2005>
-197.215255737305

> <b_mmod_Minimization_Converged-OPLS-2005>
0

> <r_mmod_RMS_Derivative-OPLS-2005>
1.05932569503784

$$$$
21
                    3D
 Structure written by MMmdl.
162171  0  0  1  0            999 V2000
  -30.7348  -14.6890   20.3863 C   0  0  0  0  0  0
  -30.3934  -12.4281   19.4371 C   0  0  0  0  0  0
  -29.4722  -12.4756   18.2057 C   0  0  0  0  0  0
  -27.9985  -12.3234   18.6306 C   0  0  0  0  0  0
  -27.6143  -13.2232   19.8366 C   0  0  2  0  0  0
  -28.6872  -13.2372   20.9465 C   0  0  0  0  0  0
  -25.2406  -13.8146   20.5769 C   0  0  0  0  0  0
  -24.1691  -13.0382   20.9269 C   0  0  0  0  0  0
  -24.6322  -11.6868   20.8828 C   0  0  0  0  0  0
  -23.9022  -10.4239   21.0441 C   0  0  0  0  0  0
  -24.3584   -9.4160   21.9197 C   0  0  0  0  0  0
  -23.6261   -8.2197   22.0756 C   0  0  0  0  0  0
  -22.4247   -8.0237   21.3540 C   0  0  0  0  0  0
  -21.9903   -9.0210   20.4629 C   0  0  0  0  0  0
  -22.7226  -10.2089   20.3056 C   0  0  0  0  0  0
  -21.6832   -6.0720   22.5292 C   0  0  0  0  0  0
  -21.3970   -6.5633   23.8221 C   0  0  0  0  0  0
  -21.3657   -5.6795   24.9188 C   0  0  0  0  0  0
  -21.6056   -4.3062   24.7244 C   0  0  0  0  0  0
  -21.8810   -3.8146   23.4364 C   0  0  0  0  0  0
  -21.9170   -4.6950   22.3418 C   0  0  0  0  0  0
  -22.7719  -13.5191   21.1880 C   0  0  0  0  0  0
  -22.1650   -4.2139   21.0999 F   0  0  0  0  0  0
  -21.5653   -3.4550   25.7765 F   0  0  0  0  0  0
  -29.9768  -13.5419   20.3130 N   0  0  0  0  0  0
  -26.2812  -12.9308   20.3385 N   0  0  0  0  0  0
  -25.9262  -11.6465   20.5880 N   0  0  0  0  0  0
  -22.0351  -12.8159   22.0423 N   0  0  0  0  0  0
  -25.4098  -15.1852   20.4138 N   0  0  0  0  0  0
  -31.9548  -14.5711   20.3277 O   0  0  0  0  0  0
  -21.6589   -6.8848   21.4249 O   0  0  0  0  0  0
  -22.3440  -14.5526   20.6783 O   0  0  0  0  0  0
  -24.6281  -31.8643   23.2086 C   0  0  0  0  0  0
  -25.9131  -32.4790   23.8417 C   0  0  1  0  0  0
  -27.1986  -27.3083   20.1305 C   0  0  0  0  0  0
  -25.5924  -33.8584   24.2332 N   0  0  0  0  0  0
  -23.4202  -30.4928   21.5558 C   0  0  2  0  0  0
  -24.8621  -28.9635   20.1084 C   0  0  0  0  0  0
  -22.7474  -29.4665   22.4989 C   0  0  0  0  0  0
  -18.0284  -28.1392   22.8505 C   0  0  0  0  0  0
  -24.1490  -36.7278   23.2641 C   0  0  0  0  0  0
  -25.9633  -30.7957   21.3831 C   0  0  0  0  0  0
  -26.0360  -29.4259   20.7174 C   0  0  0  0  0  0
  -27.2108  -28.6117   20.7187 C   0  0  0  0  0  0
  -26.0028  -26.9128   19.4854 C   0  0  0  0  0  0
  -24.8491  -27.7121   19.4808 C   0  0  0  0  0  0
  -23.6290  -29.8418   20.1660 C   0  0  0  0  0  0
  -25.4098  -36.3066   24.0340 C   0  0  1  0  0  0
  -20.5895  -28.3715   23.1291 C   0  0  2  0  0  0
  -20.6792  -26.9450   22.5403 C   0  0  0  0  0  0
  -19.5750  -26.6410   21.5213 C   0  0  0  0  0  0
  -18.1924  -26.7952   22.1608 C   0  0  0  0  0  0
  -19.1545  -28.8871   23.2894 C   0  0  0  0  0  0
  -18.9451  -30.1466   23.8918 C   0  0  0  0  0  0
  -17.6456  -30.6610   24.0567 C   0  0  0  0  0  0
  -25.9036  -34.9454   23.5129 C   0  0  0  0  0  0
  -16.5343  -29.9098   23.6360 C   0  0  0  0  0  0
  -16.7259  -28.6506   23.0396 C   0  0  0  0  0  0
  -26.4518  -31.6596   25.0795 C   0  0  0  0  0  0
  -25.3715  -31.3663   26.1486 C   0  0  0  0  0  0
  -27.0446  -30.3044   24.6305 C   0  0  0  0  0  0
  -27.6132  -32.4311   25.7534 C   0  0  0  0  0  0
  -27.5587  -37.1770   24.8476 C   0  0  0  0  0  0
  -21.4194  -29.3058   22.3690 N   0  0  0  0  0  0
  -26.4303  -37.3748   23.9400 N   0  0  0  0  0  0
  -24.6907  -31.0663   22.1051 N   0  0  0  0  0  0
  -23.4185  -28.8188   23.3066 O   0  0  0  0  0  0
  -28.2823  -26.4110   20.2068 O   0  0  0  0  0  0
  -26.5631  -34.8931   22.4711 O   0  0  0  0  0  0
  -23.5433  -32.1511   23.7366 O   0  0  0  0  0  0
  -28.3822  -20.0339   19.8257 C   0  0  0  0  0  0
  -30.1531  -21.0553   21.1048 C   0  0  0  0  0  0
  -28.9709  -18.7412   20.0010 C   0  0  0  0  0  0
  -30.1821  -18.5949   20.7111 C   0  0  0  0  0  0
  -28.9730  -21.2253   20.3438 C   0  0  0  0  0  0
  -30.7550  -19.7700   21.2969 C   0  0  0  0  0  0
  -28.3337  -17.4868   19.4044 C   0  0  0  0  0  0
  -29.3516  -16.3452   19.1232 C   0  0  0  0  0  0
  -30.9439  -17.2204   20.7179 C   0  0  2  0  0  0
  -32.2151  -17.4584   19.8403 C   0  0  0  0  0  0
  -32.7276  -20.7489   22.2823 C   0  0  0  0  0  0
  -27.9470  -24.9657   20.0857 C   0  0  0  0  0  0
  -28.9385  -23.7715   20.4438 C   0  0  0  0  0  0
  -30.1766  -15.9698   20.2965 N   0  0  0  0  0  0
  -31.9079  -19.6062   22.0376 O   0  0  0  0  0  0
  -28.3584  -22.4678   20.0875 O   0  0  0  0  0  0
  -31.4332  -12.5019   19.1200 H   0  0  0  0  0  0
  -30.3063  -11.4731   19.9574 H   0  0  0  0  0  0
  -29.7390  -11.6888   17.4990 H   0  0  0  0  0  0
  -29.6115  -13.4215   17.6778 H   0  0  0  0  0  0
  -27.8346  -11.2766   18.8878 H   0  0  0  0  0  0
  -27.3431  -12.5328   17.7831 H   0  0  0  0  0  0
  -27.5365  -14.2237   19.4373 H   0  0  0  0  0  0
  -28.7278  -12.2743   21.4608 H   0  0  0  0  0  0
  -28.4476  -13.9859   21.7020 H   0  0  0  0  0  0
  -25.2725   -9.5646   22.4764 H   0  0  0  0  0  0
  -23.9944   -7.4603   22.7516 H   0  0  0  0  0  0
  -21.0822   -8.8763   19.8940 H   0  0  0  0  0  0
  -22.3703  -10.9638   19.6166 H   0  0  0  0  0  0
  -21.1924   -7.6136   23.9733 H   0  0  0  0  0  0
  -21.1502   -6.0522   25.9099 H   0  0  0  0  0  0
  -22.0582   -2.7600   23.2898 H   0  0  0  0  0  0
  -22.3948  -11.9812   22.4808 H   0  0  0  0  0  0
  -21.0992  -13.1216   22.2663 H   0  0  0  0  0  0
  -24.6443  -15.8424   20.4993 H   0  0  0  0  0  0
  -26.2721  -15.6219   20.1207 H   0  0  0  0  0  0
  -26.7212  -32.5525   23.1179 H   0  0  0  0  0  0
  -25.0000  -33.9704   25.0452 H   0  0  0  0  0  0
  -22.7146  -31.3149   21.4217 H   0  0  0  0  0  0
  -23.3758  -35.9606   23.3272 H   0  0  0  0  0  0
  -24.3556  -36.8945   22.2056 H   0  0  0  0  0  0
  -23.7283  -37.6475   23.6711 H   0  0  0  0  0  0
  -26.1049  -31.5642   20.6197 H   0  0  0  0  0  0
  -26.8355  -30.8324   22.0209 H   0  0  0  0  0  0
  -28.1089  -28.9535   21.2176 H   0  0  0  0  0  0
  -25.8998  -25.9588   18.9934 H   0  0  0  0  0  0
  -23.9489  -27.3494   19.0027 H   0  0  0  0  0  0
  -23.7422  -30.6283   19.4203 H   0  0  0  0  0  0
  -22.7452  -29.2762   19.8688 H   0  0  0  0  0  0
  -25.1296  -36.1910   25.0841 H   0  0  0  0  0  0
  -20.9992  -28.3299   24.1404 H   0  0  0  0  0  0
  -20.5761  -26.2311   23.3583 H   0  0  0  0  0  0
  -21.6657  -26.7521   22.1153 H   0  0  0  0  0  0
  -19.6931  -25.6326   21.1239 H   0  0  0  0  0  0
  -19.6697  -27.3223   20.6744 H   0  0  0  0  0  0
  -17.4212  -26.6717   21.3999 H   0  0  0  0  0  0
  -18.0306  -26.0106   22.9006 H   0  0  0  0  0  0
  -19.7922  -30.7284   24.2331 H   0  0  0  0  0  0
  -17.4998  -31.6302   24.5120 H   0  0  0  0  0  0
  -15.5350  -30.2975   23.7718 H   0  0  0  0  0  0
  -15.8645  -28.0809   22.7148 H   0  0  0  0  0  0
  -24.5942  -30.7001   25.7720 H   0  0  0  0  0  0
  -24.8836  -32.2780   26.4954 H   0  0  0  0  0  0
  -25.7997  -30.8795   27.0259 H   0  0  0  0  0  0
  -26.3114  -29.6620   24.1422 H   0  0  0  0  0  0
  -27.4275  -29.7456   25.4849 H   0  0  0  0  0  0
  -27.8878  -30.4322   23.9511 H   0  0  0  0  0  0
  -27.2853  -33.3659   26.2078 H   0  0  0  0  0  0
  -28.3924  -32.6735   25.0300 H   0  0  0  0  0  0
  -28.0829  -31.8466   26.5450 H   0  0  0  0  0  0
  -28.2570  -38.0092   24.7552 H   0  0  0  0  0  0
  -28.1128  -36.2635   24.6290 H   0  0  0  0  0  0
  -27.2316  -37.1409   25.8884 H   0  0  0  0  0  0
  -20.9404  -29.8683   21.6795 H   0  0  0  0  0  0
  -26.0179  -38.2832   24.1392 H   0  0  0  0  0  0
  -27.4669  -20.1161   19.2539 H   0  0  0  0  0  0
  -30.5988  -21.9315   21.5430 H   0  0  0  0  0  0
  -27.8230  -17.7550   18.4791 H   0  0  0  0  0  0
  -27.5639  -17.1390   20.0949 H   0  0  0  0  0  0
  -30.0260  -16.6892   18.3398 H   0  0  0  0  0  0
  -28.8711  -15.4997   18.6472 H   0  0  0  0  0  0
  -31.2664  -17.0444   21.7479 H   0  0  0  0  0  0
  -31.9493  -17.7060   18.8122 H   0  0  0  0  0  0
  -32.9090  -16.6263   19.7944 H   0  0  0  0  0  0
  -32.8152  -18.2913   20.2043 H   0  0  0  0  0  0
  -33.6639  -20.4397   22.7493 H   0  0  0  0  0  0
  -32.2486  -21.4547   22.9620 H   0  0  0  0  0  0
  -32.9862  -21.2624   21.3534 H   0  0  0  0  0  0
  -27.0564  -24.7840   20.6910 H   0  0  0  0  0  0
  -27.6639  -24.7912   19.0468 H   0  0  0  0  0  0
  -29.1674  -23.7936   21.5092 H   0  0  0  0  0  0
  -29.8808  -23.8986   19.9090 H   0  0  0  0  0  0
  1 25  1  0  0  0
  1 30  2  0  0  0
  1 84  1  0  0  0
  2  3  1  0  0  0
  2 25  1  0  0  0
  2 87  1  0  0  0
  2 88  1  0  0  0
  3  4  1  0  0  0
  3 89  1  0  0  0
  3 90  1  0  0  0
  4  5  1  0  0  0
  4 91  1  0  0  0
  4 92  1  0  0  0
  5  6  1  0  0  0
  5 26  1  0  0  0
  5 93  1  0  0  0
  6 25  1  0  0  0
  6 94  1  0  0  0
  6 95  1  0  0  0
  7  8  2  0  0  0
  7 26  1  0  0  0
  7 29  1  0  0  0
  8  9  1  0  0  0
  8 22  1  0  0  0
  9 10  1  0  0  0
  9 27  2  0  0  0
 10 11  2  0  0  0
 10 15  1  0  0  0
 11 12  1  0  0  0
 11 96  1  0  0  0
 12 13  2  0  0  0
 12 97  1  0  0  0
 13 14  1  0  0  0
 13 31  1  0  0  0
 14 15  2  0  0  0
 14 98  1  0  0  0
 15 99  1  0  0  0
 16 17  2  0  0  0
 16 21  1  0  0  0
 16 31  1  0  0  0
 17 18  1  0  0  0
 17100  1  0  0  0
 18 19  2  0  0  0
 18101  1  0  0  0
 19 20  1  0  0  0
 19 24  1  0  0  0
 20 21  2  0  0  0
 20102  1  0  0  0
 21 23  1  0  0  0
 22 28  1  0  0  0
 22 32  2  0  0  0
 26 27  1  0  0  0
 28103  1  0  0  0
 28104  1  0  0  0
 29105  1  0  0  0
 29106  1  0  0  0
 33 34  1  0  0  0
 33 66  1  0  0  0
 33 70  2  0  0  0
 34 36  1  0  0  0
 34 59  1  0  0  0
 34107  1  0  0  0
 35 44  2  0  0  0
 35 45  1  0  0  0
 35 68  1  0  0  0
 36 56  1  0  0  0
 36108  1  0  0  0
 37 39  1  0  0  0
 37 47  1  0  0  0
 37 66  1  0  0  0
 37109  1  0  0  0
 38 43  2  0  0  0
 38 46  1  0  0  0
 38 47  1  0  0  0
 39 64  1  0  0  0
 39 67  2  0  0  0
 40 52  1  0  0  0
 40 53  2  0  0  0
 40 58  1  0  0  0
 41110  1  0  0  0
 41111  1  0  0  0
 41112  1  0  0  0
 41 48  1  0  0  0
 42 43  1  0  0  0
 42 66  1  0  0  0
 42113  1  0  0  0
 42114  1  0  0  0
 43 44  1  0  0  0
 44115  1  0  0  0
 45 46  2  0  0  0
 45116  1  0  0  0
 46117  1  0  0  0
 47118  1  0  0  0
 47119  1  0  0  0
 48 56  1  0  0  0
 48 65  1  0  0  0
 48120  1  0  0  0
 49 50  1  0  0  0
 49 53  1  0  0  0
 49 64  1  0  0  0
 49121  1  0  0  0
 50 51  1  0  0  0
 50122  1  0  0  0
 50123  1  0  0  0
 51 52  1  0  0  0
 51124  1  0  0  0
 51125  1  0  0  0
 52126  1  0  0  0
 52127  1  0  0  0
 53 54  1  0  0  0
 54 55  2  0  0  0
 54128  1  0  0  0
 55 57  1  0  0  0
 55129  1  0  0  0
 56 69  2  0  0  0
 57 58  2  0  0  0
 57130  1  0  0  0
 58131  1  0  0  0
 59 60  1  0  0  0
 59 61  1  0  0  0
 59 62  1  0  0  0
 60132  1  0  0  0
 60133  1  0  0  0
 60134  1  0  0  0
 61135  1  0  0  0
 61136  1  0  0  0
 61137  1  0  0  0
 62138  1  0  0  0
 62139  1  0  0  0
 62140  1  0  0  0
 63 65  1  0  0  0
 63141  1  0  0  0
 63142  1  0  0  0
 63143  1  0  0  0
 64144  1  0  0  0
 65145  1  0  0  0
 68 82  1  0  0  0
 71 73  2  0  0  0
 71 75  1  0  0  0
 71146  1  0  0  0
 72 75  2  0  0  0
 72 76  1  0  0  0
 72147  1  0  0  0
 73 74  1  0  0  0
 73 77  1  0  0  0
 74 76  2  0  0  0
 74 79  1  0  0  0
 75 86  1  0  0  0
 76 85  1  0  0  0
 77 78  1  0  0  0
 77148  1  0  0  0
 77149  1  0  0  0
 78 84  1  0  0  0
 78150  1  0  0  0
 78151  1  0  0  0
 79 80  1  0  0  0
 79 84  1  0  0  0
 79152  1  0  0  0
 80153  1  0  0  0
 80154  1  0  0  0
 80155  1  0  0  0
 81 85  1  0  0  0
 81156  1  0  0  0
 81157  1  0  0  0
 81158  1  0  0  0
 82 83  1  0  0  0
 82159  1  0  0  0
 82160  1  0  0  0
 83 86  1  0  0  0
 83161  1  0  0  0
 83162  1  0  0  0
M  ISO  4   1 100  68 101  82 101  84 100
M  END
> <chiral flag>
0

> <version>
0

> <s_m_source_file>
/data/baiqing/PycharmProjects/Reinvent-master-3.2/result/LINK_invent/BTK/process_docking_weight1_custom_sum_contain_oxygen_bond_distance_aromatic_linkinvent_7_9_3/rearranged_h_0158.sdf

> <i_m_source_file_index>
22

> <r_mmod_Potential_Energy-OPLS-2005>
355.194183349609

> <r_mmod_Stretch_Energy-OPLS-2005>
95.6802520751953

> <r_mmod_Bend_Energy-OPLS-2005>
176.777923583984

> <r_mmod_Torsional_Energy-OPLS-2005>
306.799652099609

> <r_mmod_Improper_Torsional_Energy-OPLS-2005>
8.76720905303955

> <r_mmod_Van_der_Waal_Energy-OPLS-2005>
173.164596557617

> <r_mmod_Electrostatic_Energy-OPLS-2005>
-290.028289794922

> <r_mmod_Solvation_Energy-OPLS-2005>
-205.632080078125

> <b_mmod_Minimization_Converged-OPLS-2005>
0

> <r_mmod_RMS_Derivative-OPLS-2005>
4.56542062759399

$$$$
22
                    3D
 Structure written by MMmdl.
171181  0  0  1  0            999 V2000
  -30.6657  -14.5471   20.5236 C   0  0  0  0  0  0
  -30.4111  -12.3279   19.4634 C   0  0  0  0  0  0
  -29.5073  -12.4755   18.2221 C   0  0  0  0  0  0
  -28.0359  -12.2818   18.6386 C   0  0  0  0  0  0
  -27.6444  -13.1856   19.8406 C   0  0  2  0  0  0
  -28.6725  -13.0563   20.9820 C   0  0  0  0  0  0
  -25.2583  -13.8048   20.5597 C   0  0  0  0  0  0
  -24.1833  -13.0410   20.9218 C   0  0  0  0  0  0
  -24.6350  -11.6871   20.8781 C   0  0  0  0  0  0
  -23.9017  -10.4271   21.0443 C   0  0  0  0  0  0
  -24.3573   -9.4173   21.9194 C   0  0  0  0  0  0
  -23.6279   -8.2182   22.0750 C   0  0  0  0  0  0
  -22.4250   -8.0214   21.3544 C   0  0  0  0  0  0
  -21.9885   -9.0190   20.4637 C   0  0  0  0  0  0
  -22.7200  -10.2077   20.3086 C   0  0  0  0  0  0
  -21.6805   -6.0709   22.5282 C   0  0  0  0  0  0
  -21.3948   -6.5616   23.8204 C   0  0  0  0  0  0
  -21.3634   -5.6789   24.9186 C   0  0  0  0  0  0
  -21.6070   -4.3053   24.7254 C   0  0  0  0  0  0
  -21.8835   -3.8132   23.4374 C   0  0  0  0  0  0
  -21.9211   -4.6945   22.3426 C   0  0  0  0  0  0
  -22.7871  -13.5212   21.1892 C   0  0  0  0  0  0
  -22.1703   -4.2139   21.1014 F   0  0  0  0  0  0
  -21.5664   -3.4547   25.7770 F   0  0  0  0  0  0
  -29.9917  -13.3643   20.4234 N   0  0  0  0  0  0
  -26.2930  -12.9176   20.3159 N   0  0  0  0  0  0
  -25.9248  -11.6387   20.5723 N   0  0  0  0  0  0
  -22.0526  -12.8189   22.0421 N   0  0  0  0  0  0
  -25.4454  -15.1722   20.3858 N   0  0  0  0  0  0
  -31.8596  -14.6204   20.2082 O   0  0  0  0  0  0
  -21.6622   -6.8818   21.4224 O   0  0  0  0  0  0
  -22.3567  -14.5531   20.6742 O   0  0  0  0  0  0
  -24.6270  -31.8682   23.2092 C   0  0  0  0  0  0
  -25.9158  -32.4794   23.8387 C   0  0  1  0  0  0
  -27.1773  -27.3655   20.0700 C   0  0  0  0  0  0
  -25.5984  -33.8587   24.2296 N   0  0  0  0  0  0
  -23.4075  -30.5088   21.5554 C   0  0  2  0  0  0
  -24.8273  -28.9797   20.1057 C   0  0  0  0  0  0
  -22.7471  -29.4745   22.4979 C   0  0  0  0  0  0
  -18.0340  -28.1361   22.8577 C   0  0  0  0  0  0
  -24.1512  -36.7360   23.2607 C   0  0  0  0  0  0
  -25.9492  -30.8116   21.3749 C   0  0  0  0  0  0
  -26.0053  -29.4526   20.7009 C   0  0  0  0  0  0
  -27.1860  -28.6541   20.6723 C   0  0  0  0  0  0
  -25.9659  -26.9383   19.4649 C   0  0  0  0  0  0
  -24.8061  -27.7250   19.4888 C   0  0  0  0  0  0
  -23.6031  -29.8660   20.1612 C   0  0  0  0  0  0
  -25.4117  -36.3095   24.0322 C   0  0  1  0  0  0
  -20.5932  -28.3706   23.1241 C   0  0  2  0  0  0
  -20.6811  -26.9446   22.5300 C   0  0  0  0  0  0
  -19.5686  -26.6306   21.5251 C   0  0  0  0  0  0
  -18.1921  -26.7862   22.1801 C   0  0  0  0  0  0
  -19.1585  -28.8866   23.2897 C   0  0  0  0  0  0
  -18.9479  -30.1518   23.8787 C   0  0  0  0  0  0
  -17.6465  -30.6563   24.0554 C   0  0  0  0  0  0
  -25.9058  -34.9451   23.5090 C   0  0  0  0  0  0
  -16.5367  -29.9031   23.6367 C   0  0  0  0  0  0
  -16.7326  -28.6465   23.0409 C   0  0  0  0  0  0
  -26.4511  -31.6594   25.0763 C   0  0  0  0  0  0
  -25.3763  -31.3754   26.1519 C   0  0  0  0  0  0
  -27.0342  -30.3003   24.6249 C   0  0  0  0  0  0
  -27.6056  -32.4314   25.7528 C   0  0  0  0  0  0
  -27.5602  -37.1820   24.8446 C   0  0  0  0  0  0
  -21.4178  -29.3099   22.3670 N   0  0  0  0  0  0
  -26.4316  -37.3779   23.9358 N   0  0  0  0  0  0
  -24.6798  -31.0792   22.0984 N   0  0  0  0  0  0
  -23.4217  -28.8330   23.3095 O   0  0  0  0  0  0
  -28.2961  -26.5308   20.0904 O   0  0  0  0  0  0
  -26.5615  -34.8913   22.4650 O   0  0  0  0  0  0
  -23.5466  -32.1504   23.7502 O   0  0  0  0  0  0
  -26.3798  -18.8048   20.0024 C   0  0  0  0  0  0
  -25.1933  -19.5386   19.8439 C   0  0  0  0  0  0
  -27.5989  -19.4670   20.2836 C   0  0  0  0  0  0
  -25.2571  -20.9310   19.9796 C   0  0  0  0  0  0
  -27.5779  -20.8965   20.2793 C   0  0  0  0  0  0
  -29.3092  -17.8640   19.2870 C   0  0  0  0  0  0
  -28.5669  -17.5301   21.6940 C   0  0  0  0  0  0
  -29.5445  -23.7664   21.3439 C   0  0  0  0  0  0
  -30.3252  -16.7245   19.5450 C   0  0  0  0  0  0
  -29.5974  -16.3653   21.8114 C   0  0  0  0  0  0
  -28.8073  -22.4526   21.6351 C   0  0  0  0  0  0
  -28.8701  -22.7104   19.2907 C   0  0  0  0  0  0
  -28.8381  -18.5798   20.5652 C   0  0  0  0  0  0
  -29.2072  -24.1053   19.8934 C   0  0  1  0  0  0
  -24.0083  -21.7915   19.9792 C   0  0  0  0  0  0
  -28.0588  -25.1386   19.7062 C   0  0  0  0  0  0
  -26.4189  -21.5846   20.1613 N   0  0  0  0  0  0
  -28.7310  -21.7151   20.3756 N   0  0  0  0  0  0
  -29.9116  -15.6970   20.5337 N   0  0  0  0  0  0
  -31.4676  -12.4000   19.2027 H   0  0  0  0  0  0
  -30.2811  -11.3370   19.8965 H   0  0  0  0  0  0
  -29.7849  -11.7527   17.4488 H   0  0  0  0  0  0
  -29.6296  -13.4657   17.7859 H   0  0  0  0  0  0
  -27.9167  -11.2345   18.9219 H   0  0  0  0  0  0
  -27.3766  -12.4556   17.7882 H   0  0  0  0  0  0
  -27.6622  -14.2136   19.4795 H   0  0  0  0  0  0
  -28.6557  -12.0447   21.3936 H   0  0  0  0  0  0
  -28.4148  -13.7206   21.8036 H   0  0  0  0  0  0
  -25.2691   -9.5694   22.4791 H   0  0  0  0  0  0
  -23.9987   -7.4562   22.7453 H   0  0  0  0  0  0
  -21.0822   -8.8731   19.8917 H   0  0  0  0  0  0
  -22.3635  -10.9645   19.6229 H   0  0  0  0  0  0
  -21.1863   -7.6116   23.9675 H   0  0  0  0  0  0
  -21.1442   -6.0553   25.9085 H   0  0  0  0  0  0
  -22.0642   -2.7608   23.2917 H   0  0  0  0  0  0
  -22.4091  -11.9807   22.4784 H   0  0  0  0  0  0
  -21.1117  -13.1212   22.2549 H   0  0  0  0  0  0
  -24.6851  -15.8364   20.4708 H   0  0  0  0  0  0
  -26.2699  -15.5459   19.9373 H   0  0  0  0  0  0
  -26.7253  -32.5419   23.1152 H   0  0  0  0  0  0
  -25.0085  -33.9719   25.0422 H   0  0  0  0  0  0
  -22.7017  -31.3371   21.4303 H   0  0  0  0  0  0
  -23.3748  -35.9736   23.3277 H   0  0  0  0  0  0
  -24.3644  -36.8965   22.2024 H   0  0  0  0  0  0
  -23.7331  -37.6575   23.6651 H   0  0  0  0  0  0
  -26.0942  -31.5936   20.6248 H   0  0  0  0  0  0
  -26.8236  -30.8236   22.0186 H   0  0  0  0  0  0
  -28.0910  -29.0205   21.1334 H   0  0  0  0  0  0
  -25.8575  -25.9867   18.9689 H   0  0  0  0  0  0
  -23.9011  -27.3518   19.0266 H   0  0  0  0  0  0
  -23.7117  -30.6551   19.4121 H   0  0  0  0  0  0
  -22.7142  -29.3013   19.8681 H   0  0  0  0  0  0
  -25.1301  -36.1937   25.0840 H   0  0  0  0  0  0
  -21.0106  -28.3277   24.1316 H   0  0  0  0  0  0
  -21.6601  -26.7471   22.0954 H   0  0  0  0  0  0
  -20.5892  -26.2319   23.3495 H   0  0  0  0  0  0
  -19.6739  -25.6177   21.1332 H   0  0  0  0  0  0
  -19.6501  -27.3038   20.6721 H   0  0  0  0  0  0
  -18.0371  -26.0096   22.9285 H   0  0  0  0  0  0
  -17.4106  -26.6602   21.4296 H   0  0  0  0  0  0
  -19.7967  -30.7464   24.1903 H   0  0  0  0  0  0
  -17.5032  -31.6278   24.5056 H   0  0  0  0  0  0
  -15.5356  -30.2907   23.7594 H   0  0  0  0  0  0
  -15.8785  -28.0732   22.7044 H   0  0  0  0  0  0
  -24.5914  -30.7110   25.7889 H   0  0  0  0  0  0
  -24.9028  -32.2933   26.4991 H   0  0  0  0  0  0
  -25.8123  -30.8900   27.0263 H   0  0  0  0  0  0
  -26.2926  -29.6754   24.1255 H   0  0  0  0  0  0
  -27.3962  -29.7242   25.4774 H   0  0  0  0  0  0
  -27.8838  -30.4241   23.9536 H   0  0  0  0  0  0
  -27.2636  -33.3556   26.2208 H   0  0  0  0  0  0
  -28.3814  -32.6983   25.0336 H   0  0  0  0  0  0
  -28.0830  -31.8416   26.5359 H   0  0  0  0  0  0
  -28.2582  -38.0139   24.7487 H   0  0  0  0  0  0
  -28.1122  -36.2665   24.6271 H   0  0  0  0  0  0
  -27.2329  -37.1463   25.8849 H   0  0  0  0  0  0
  -20.9357  -29.8831   21.6869 H   0  0  0  0  0  0
  -26.0206  -38.2860   24.1309 H   0  0  0  0  0  0
  -26.3304  -17.7291   19.9226 H   0  0  0  0  0  0
  -24.2544  -19.0307   19.6603 H   0  0  0  0  0  0
  -28.4570  -17.4655   18.7390 H   0  0  0  0  0  0
  -29.7636  -18.6110   18.6270 H   0  0  0  0  0  0
  -28.5343  -18.0605   22.6455 H   0  0  0  0  0  0
  -27.5771  -17.0809   21.5946 H   0  0  0  0  0  0
  -30.6185  -23.6056   21.4321 H   0  0  0  0  0  0
  -29.2728  -24.5545   22.0488 H   0  0  0  0  0  0
  -31.2851  -17.1529   19.8456 H   0  0  0  0  0  0
  -30.5155  -16.2354   18.5863 H   0  0  0  0  0  0
  -30.5284  -16.7542   22.2273 H   0  0  0  0  0  0
  -29.2318  -15.6512   22.5552 H   0  0  0  0  0  0
  -27.8163  -22.6672   22.0336 H   0  0  0  0  0  0
  -29.3335  -21.8679   22.3908 H   0  0  0  0  0  0
  -29.6767  -22.3762   18.6370 H   0  0  0  0  0  0
  -27.9878  -22.7726   18.6516 H   0  0  0  0  0  0
  -29.6642  -19.2146   20.8950 H   0  0  0  0  0  0
  -30.0910  -24.5044   19.3945 H   0  0  0  0  0  0
  -24.1457  -22.6903   19.3783 H   0  0  0  0  0  0
  -23.7823  -22.0998   20.9988 H   0  0  0  0  0  0
  -23.1421  -21.2531   19.5928 H   0  0  0  0  0  0
  -27.1872  -24.7392   20.2316 H   0  0  0  0  0  0
  -27.8248  -25.1318   18.6410 H   0  0  0  0  0  0
  1 25  1  0  0  0
  1 30  2  0  0  0
  1 89  1  0  0  0
  2  3  1  0  0  0
  2 25  1  0  0  0
  2 90  1  0  0  0
  2 91  1  0  0  0
  3  4  1  0  0  0
  3 92  1  0  0  0
  3 93  1  0  0  0
  4  5  1  0  0  0
  4 94  1  0  0  0
  4 95  1  0  0  0
  5  6  1  0  0  0
  5 26  1  0  0  0
  5 96  1  0  0  0
  6 25  1  0  0  0
  6 97  1  0  0  0
  6 98  1  0  0  0
  7  8  2  0  0  0
  7 26  1  0  0  0
  7 29  1  0  0  0
  8  9  1  0  0  0
  8 22  1  0  0  0
  9 10  1  0  0  0
  9 27  2  0  0  0
 10 11  2  0  0  0
 10 15  1  0  0  0
 11 12  1  0  0  0
 11 99  1  0  0  0
 12 13  2  0  0  0
 12100  1  0  0  0
 13 14  1  0  0  0
 13 31  1  0  0  0
 14 15  2  0  0  0
 14101  1  0  0  0
 15102  1  0  0  0
 16 17  2  0  0  0
 16 21  1  0  0  0
 16 31  1  0  0  0
 17 18  1  0  0  0
 17103  1  0  0  0
 18 19  2  0  0  0
 18104  1  0  0  0
 19 20  1  0  0  0
 19 24  1  0  0  0
 20 21  2  0  0  0
 20105  1  0  0  0
 21 23  1  0  0  0
 22 28  1  0  0  0
 22 32  2  0  0  0
 26 27  1  0  0  0
 28106  1  0  0  0
 28107  1  0  0  0
 29108  1  0  0  0
 29109  1  0  0  0
 33 34  1  0  0  0
 33 66  1  0  0  0
 33 70  2  0  0  0
 34 36  1  0  0  0
 34 59  1  0  0  0
 34110  1  0  0  0
 35 44  2  0  0  0
 35 45  1  0  0  0
 35 68  1  0  0  0
 36 56  1  0  0  0
 36111  1  0  0  0
 37 39  1  0  0  0
 37 47  1  0  0  0
 37 66  1  0  0  0
 37112  1  0  0  0
 38 43  2  0  0  0
 38 46  1  0  0  0
 38 47  1  0  0  0
 39 64  1  0  0  0
 39 67  2  0  0  0
 40 52  1  0  0  0
 40 53  2  0  0  0
 40 58  1  0  0  0
 41113  1  0  0  0
 41114  1  0  0  0
 41115  1  0  0  0
 41 48  1  0  0  0
 42 43  1  0  0  0
 42 66  1  0  0  0
 42116  1  0  0  0
 42117  1  0  0  0
 43 44  1  0  0  0
 44118  1  0  0  0
 45 46  2  0  0  0
 45119  1  0  0  0
 46120  1  0  0  0
 47121  1  0  0  0
 47122  1  0  0  0
 48 56  1  0  0  0
 48 65  1  0  0  0
 48123  1  0  0  0
 49 50  1  0  0  0
 49 53  1  0  0  0
 49 64  1  0  0  0
 49124  1  0  0  0
 50 51  1  0  0  0
 50125  1  0  0  0
 50126  1  0  0  0
 51 52  1  0  0  0
 51127  1  0  0  0
 51128  1  0  0  0
 52129  1  0  0  0
 52130  1  0  0  0
 53 54  1  0  0  0
 54 55  2  0  0  0
 54131  1  0  0  0
 55 57  1  0  0  0
 55132  1  0  0  0
 56 69  2  0  0  0
 57 58  2  0  0  0
 57133  1  0  0  0
 58134  1  0  0  0
 59 60  1  0  0  0
 59 61  1  0  0  0
 59 62  1  0  0  0
 60135  1  0  0  0
 60136  1  0  0  0
 60137  1  0  0  0
 61138  1  0  0  0
 61139  1  0  0  0
 61140  1  0  0  0
 62141  1  0  0  0
 62142  1  0  0  0
 62143  1  0  0  0
 63 65  1  0  0  0
 63144  1  0  0  0
 63145  1  0  0  0
 63146  1  0  0  0
 64147  1  0  0  0
 65148  1  0  0  0
 68 86  1  0  0  0
 71 72  2  0  0  0
 71 73  1  0  0  0
 71149  1  0  0  0
 72 74  1  0  0  0
 72150  1  0  0  0
 73 75  2  0  0  0
 73 83  1  0  0  0
 74 85  1  0  0  0
 74 87  2  0  0  0
 75 87  1  0  0  0
 75 88  1  0  0  0
 76 79  1  0  0  0
 76 83  1  0  0  0
 76151  1  0  0  0
 76152  1  0  0  0
 77 80  1  0  0  0
 77 83  1  0  0  0
 77153  1  0  0  0
 77154  1  0  0  0
 78 81  1  0  0  0
 78 84  1  0  0  0
 78155  1  0  0  0
 78156  1  0  0  0
 79 89  1  0  0  0
 79157  1  0  0  0
 79158  1  0  0  0
 80 89  1  0  0  0
 80159  1  0  0  0
 80160  1  0  0  0
 81 88  1  0  0  0
 81161  1  0  0  0
 81162  1  0  0  0
 82 84  1  0  0  0
 82 88  1  0  0  0
 82163  1  0  0  0
 82164  1  0  0  0
 83165  1  0  0  0
 84 86  1  0  0  0
 84166  1  0  0  0
 85167  1  0  0  0
 85168  1  0  0  0
 85169  1  0  0  0
 86170  1  0  0  0
 86171  1  0  0  0
M  ISO  4   1 100  68 101  86 101  89 100
M  END
> <chiral flag>
0

> <version>
0

> <s_m_source_file>
/data/baiqing/PycharmProjects/Reinvent-master-3.2/result/LINK_invent/BTK/process_docking_weight1_custom_sum_contain_oxygen_bond_distance_aromatic_linkinvent_7_9_3/rearranged_h_0158.sdf

> <i_m_source_file_index>
23

> <r_mmod_Potential_Energy-OPLS-2005>
137.382064819336

> <r_mmod_Stretch_Energy-OPLS-2005>
55.5534248352051

> <r_mmod_Bend_Energy-OPLS-2005>
146.677291870117

> <r_mmod_Torsional_Energy-OPLS-2005>
410.123199462891

> <r_mmod_Improper_Torsional_Energy-OPLS-2005>
24.2813053131104

> <r_mmod_Van_der_Waal_Energy-OPLS-2005>
164.319839477539

> <r_mmod_Electrostatic_Energy-OPLS-2005>
-492.372100830078

> <r_mmod_Solvation_Energy-OPLS-2005>
-209.333557128906

> <b_mmod_Minimization_Converged-OPLS-2005>
0

> <r_mmod_RMS_Derivative-OPLS-2005>
7.47524118423462

$$$$
23
                    3D
 Structure written by MMmdl.
169179  0  0  1  0            999 V2000
  -30.6819  -14.6304   20.4818 C   0  0  0  0  0  0
  -30.4155  -12.3885   19.4562 C   0  0  0  0  0  0
  -29.4966  -12.4954   18.2225 C   0  0  0  0  0  0
  -28.0220  -12.3402   18.6395 C   0  0  0  0  0  0
  -27.6432  -13.2279   19.8558 C   0  0  2  0  0  0
  -28.6903  -13.1388   20.9870 C   0  0  0  0  0  0
  -25.2524  -13.8199   20.5720 C   0  0  0  0  0  0
  -24.1801  -13.0446   20.9199 C   0  0  0  0  0  0
  -24.6385  -11.6921   20.8747 C   0  0  0  0  0  0
  -23.9061  -10.4298   21.0406 C   0  0  0  0  0  0
  -24.3615   -9.4214   21.9184 C   0  0  0  0  0  0
  -23.6294   -8.2246   22.0753 C   0  0  0  0  0  0
  -22.4276   -8.0280   21.3543 C   0  0  0  0  0  0
  -21.9910   -9.0252   20.4645 C   0  0  0  0  0  0
  -22.7234  -10.2135   20.3055 C   0  0  0  0  0  0
  -21.6854   -6.0736   22.5278 C   0  0  0  0  0  0
  -21.4013   -6.5640   23.8211 C   0  0  0  0  0  0
  -21.3661   -5.6794   24.9173 C   0  0  0  0  0  0
  -21.6043   -4.3056   24.7223 C   0  0  0  0  0  0
  -21.8819   -3.8148   23.4346 C   0  0  0  0  0  0
  -21.9193   -4.6965   22.3401 C   0  0  0  0  0  0
  -22.7825  -13.5229   21.1863 C   0  0  0  0  0  0
  -22.1663   -4.2151   21.0979 F   0  0  0  0  0  0
  -21.5629   -3.4539   25.7737 F   0  0  0  0  0  0
  -29.9994  -13.4453   20.4006 N   0  0  0  0  0  0
  -26.2948  -12.9397   20.3335 N   0  0  0  0  0  0
  -25.9318  -11.6541   20.5776 N   0  0  0  0  0  0
  -22.0472  -12.8214   22.0416 N   0  0  0  0  0  0
  -25.4249  -15.1920   20.4165 N   0  0  0  0  0  0
  -31.8735  -14.6876   20.1621 O   0  0  0  0  0  0
  -21.6641   -6.8878   21.4240 O   0  0  0  0  0  0
  -22.3508  -14.5539   20.6718 O   0  0  0  0  0  0
  -24.6264  -31.8607   23.2053 C   0  0  0  0  0  0
  -25.9118  -32.4781   23.8369 C   0  0  1  0  0  0
  -27.2126  -27.3189   20.1088 C   0  0  0  0  0  0
  -25.5940  -33.8584   24.2296 N   0  0  0  0  0  0
  -23.4183  -30.4879   21.5482 C   0  0  2  0  0  0
  -24.8613  -28.9504   20.1082 C   0  0  0  0  0  0
  -22.7475  -29.4631   22.4941 C   0  0  0  0  0  0
  -18.0284  -28.1385   22.8485 C   0  0  0  0  0  0
  -24.1487  -36.7289   23.2639 C   0  0  0  0  0  0
  -25.9608  -30.7922   21.3762 C   0  0  0  0  0  0
  -26.0322  -29.4219   20.7144 C   0  0  0  0  0  0
  -27.2105  -28.6173   20.7071 C   0  0  0  0  0  0
  -26.0170  -26.9100   19.4698 C   0  0  0  0  0  0
  -24.8561  -27.6999   19.4779 C   0  0  0  0  0  0
  -23.6308  -29.8299   20.1610 C   0  0  0  0  0  0
  -25.4111  -36.3083   24.0333 C   0  0  1  0  0  0
  -20.5885  -28.3686   23.1285 C   0  0  2  0  0  0
  -20.6776  -26.9412   22.5405 C   0  0  0  0  0  0
  -19.5750  -26.6384   21.5210 C   0  0  0  0  0  0
  -18.1928  -26.7927   22.1622 C   0  0  0  0  0  0
  -19.1536  -28.8852   23.2877 C   0  0  0  0  0  0
  -18.9463  -30.1455   23.8893 C   0  0  0  0  0  0
  -17.6465  -30.6588   24.0564 C   0  0  0  0  0  0
  -25.9051  -34.9454   23.5110 C   0  0  0  0  0  0
  -16.5354  -29.9088   23.6334 C   0  0  0  0  0  0
  -16.7271  -28.6506   23.0353 C   0  0  0  0  0  0
  -26.4504  -31.6584   25.0733 C   0  0  0  0  0  0
  -25.3741  -31.3712   26.1462 C   0  0  0  0  0  0
  -27.0349  -30.3012   24.6176 C   0  0  0  0  0  0
  -27.6064  -32.4317   25.7503 C   0  0  0  0  0  0
  -27.5574  -37.1802   24.8467 C   0  0  0  0  0  0
  -21.4188  -29.3045   22.3686 N   0  0  0  0  0  0
  -26.4286  -37.3780   23.9412 N   0  0  0  0  0  0
  -24.6875  -31.0627   22.1000 N   0  0  0  0  0  0
  -23.4203  -28.8160   23.3009 O   0  0  0  0  0  0
  -28.3227  -26.4561   20.1874 O   0  0  0  0  0  0
  -26.5608  -34.8919   22.4669 O   0  0  0  0  0  0
  -23.5431  -32.1410   23.7384 O   0  0  0  0  0  0
  -27.7376  -20.4837   21.4123 C   0  0  0  0  0  0
  -29.5648  -21.5553   20.2044 C   0  0  0  0  0  0
  -28.9736  -20.3508   20.7266 C   0  0  0  0  0  0
  -27.7117  -22.9043   21.0615 C   0  0  0  0  0  0
  -27.1005  -21.7414   21.5917 C   0  0  0  0  0  0
  -28.9212  -22.8237   20.3827 C   0  0  0  0  0  0
  -29.7865  -18.1153   21.8875 C   0  0  0  0  0  0
  -28.9080  -17.9468   19.6300 C   0  0  0  0  0  0
  -30.5233  -16.7403   21.7095 C   0  0  0  0  0  0
  -29.6548  -16.5776   19.4470 C   0  0  0  0  0  0
  -29.6364  -18.9304   20.5765 C   0  0  0  0  0  0
  -27.2143  -24.3478   21.0811 C   0  0  2  0  0  0
  -28.1088  -25.0305   19.9837 C   0  0  2  0  0  0
  -27.4362  -24.9882   22.4651 C   0  0  0  0  0  0
  -25.9648  -21.5799   23.8524 C   0  0  0  0  0  0
  -25.7816  -21.8024   22.3455 C   0  0  0  0  0  0
  -29.2776  -24.1162   19.9268 N   0  0  0  0  0  0
  -29.9811  -15.8068   20.6817 N   0  0  0  0  0  0
  -31.4604  -12.4801   19.1542 H   0  0  0  0  0  0
  -30.3251  -11.4065   19.9230 H   0  0  0  0  0  0
  -29.7593  -11.7330   17.4880 H   0  0  0  0  0  0
  -29.6430  -13.4584   17.7306 H   0  0  0  0  0  0
  -27.8612  -11.2899   18.8855 H   0  0  0  0  0  0
  -27.3657  -12.5567   17.7956 H   0  0  0  0  0  0
  -27.6424  -14.2545   19.4926 H   0  0  0  0  0  0
  -28.6992  -12.1437   21.4340 H   0  0  0  0  0  0
  -28.4483  -13.8374   21.7900 H   0  0  0  0  0  0
  -25.2757   -9.5693   22.4762 H   0  0  0  0  0  0
  -24.0004   -7.4638   22.7473 H   0  0  0  0  0  0
  -21.0842   -8.8767   19.8951 H   0  0  0  0  0  0
  -22.3688  -10.9672   19.6166 H   0  0  0  0  0  0
  -21.2002   -7.6148   23.9713 H   0  0  0  0  0  0
  -21.1483   -6.0524   25.9075 H   0  0  0  0  0  0
  -22.0597   -2.7611   23.2843 H   0  0  0  0  0  0
  -22.4091  -11.9868   22.4790 H   0  0  0  0  0  0
  -21.1091  -13.1237   22.2630 H   0  0  0  0  0  0
  -24.6655  -15.8530   20.5370 H   0  0  0  0  0  0
  -26.2932  -15.6310   20.1376 H   0  0  0  0  0  0
  -26.7182  -32.5448   23.1114 H   0  0  0  0  0  0
  -25.0115  -33.9733   25.0459 H   0  0  0  0  0  0
  -22.7114  -31.3086   21.4089 H   0  0  0  0  0  0
  -23.3754  -35.9618   23.3303 H   0  0  0  0  0  0
  -24.3575  -36.8907   22.2052 H   0  0  0  0  0  0
  -23.7239  -37.6493   23.6657 H   0  0  0  0  0  0
  -26.0922  -31.5577   20.6101 H   0  0  0  0  0  0
  -26.8422  -30.8384   22.0043 H   0  0  0  0  0  0
  -28.1059  -28.9706   21.1992 H   0  0  0  0  0  0
  -25.9292  -25.9609   18.9664 H   0  0  0  0  0  0
  -23.9592  -27.3342   18.9970 H   0  0  0  0  0  0
  -23.7500  -30.6100   19.4083 H   0  0  0  0  0  0
  -22.7500  -29.2614   19.8566 H   0  0  0  0  0  0
  -25.1290  -36.1935   25.0826 H   0  0  0  0  0  0
  -20.9971  -28.3256   24.1407 H   0  0  0  0  0  0
  -20.5685  -26.2294   23.3603 H   0  0  0  0  0  0
  -21.6643  -26.7446   22.1191 H   0  0  0  0  0  0
  -19.6914  -25.6295   21.1238 H   0  0  0  0  0  0
  -19.6688  -27.3194   20.6740 H   0  0  0  0  0  0
  -17.4197  -26.6676   21.4025 H   0  0  0  0  0  0
  -18.0328  -26.0069   22.9017 H   0  0  0  0  0  0
  -19.7940  -30.7271   24.2259 H   0  0  0  0  0  0
  -17.5021  -31.6270   24.5163 H   0  0  0  0  0  0
  -15.5356  -30.2993   23.7664 H   0  0  0  0  0  0
  -15.8668  -28.0829   22.7070 H   0  0  0  0  0  0
  -24.5926  -30.7047   25.7794 H   0  0  0  0  0  0
  -24.8921  -32.2871   26.4889 H   0  0  0  0  0  0
  -25.8075  -30.8895   27.0236 H   0  0  0  0  0  0
  -26.2923  -29.6760   24.1205 H   0  0  0  0  0  0
  -27.4066  -29.7265   25.4668 H   0  0  0  0  0  0
  -27.8782  -30.4310   23.9390 H   0  0  0  0  0  0
  -27.2682  -33.3626   26.2064 H   0  0  0  0  0  0
  -28.3887  -32.6857   25.0338 H   0  0  0  0  0  0
  -28.0717  -31.8449   26.5434 H   0  0  0  0  0  0
  -28.2592  -38.0098   24.7512 H   0  0  0  0  0  0
  -28.1068  -36.2629   24.6296 H   0  0  0  0  0  0
  -27.2289  -37.1453   25.8869 H   0  0  0  0  0  0
  -20.9361  -29.8787   21.6917 H   0  0  0  0  0  0
  -26.0167  -38.2854   24.1415 H   0  0  0  0  0  0
  -27.2625  -19.5997   21.8148 H   0  0  0  0  0  0
  -30.5011  -21.4995   19.6674 H   0  0  0  0  0  0
  -30.3280  -18.7148   22.6206 H   0  0  0  0  0  0
  -28.8044  -17.9299   22.3237 H   0  0  0  0  0  0
  -27.8981  -17.7612   19.9995 H   0  0  0  0  0  0
  -28.7854  -18.4160   18.6530 H   0  0  0  0  0  0
  -30.5322  -16.2235   22.6707 H   0  0  0  0  0  0
  -31.5697  -16.9483   21.4763 H   0  0  0  0  0  0
  -30.5857  -16.7714   18.9095 H   0  0  0  0  0  0
  -29.0642  -15.9460   18.7825 H   0  0  0  0  0  0
  -30.6368  -19.1003   20.1754 H   0  0  0  0  0  0
  -26.1660  -24.4076   20.7872 H   0  0  0  0  0  0
  -27.6618  -24.8994   18.9968 H   0  0  0  0  0  0
  -28.4937  -24.9982   22.7307 H   0  0  0  0  0  0
  -26.9032  -24.4422   23.2418 H   0  0  0  0  0  0
  -27.0746  -26.0151   22.4968 H   0  0  0  0  0  0
  -25.0081  -21.6372   24.3717 H   0  0  0  0  0  0
  -26.6243  -22.3302   24.2881 H   0  0  0  0  0  0
  -26.3950  -20.5998   24.0603 H   0  0  0  0  0  0
  -25.1121  -21.0411   21.9424 H   0  0  0  0  0  0
  -25.2836  -22.7563   22.1746 H   0  0  0  0  0  0
  -29.8224  -24.1395   19.0690 H   0  0  0  0  0  0
  1 25  1  0  0  0
  1 30  2  0  0  0
  1 88  1  0  0  0
  2  3  1  0  0  0
  2 25  1  0  0  0
  2 89  1  0  0  0
  2 90  1  0  0  0
  3  4  1  0  0  0
  3 91  1  0  0  0
  3 92  1  0  0  0
  4  5  1  0  0  0
  4 93  1  0  0  0
  4 94  1  0  0  0
  5  6  1  0  0  0
  5 26  1  0  0  0
  5 95  1  0  0  0
  6 25  1  0  0  0
  6 96  1  0  0  0
  6 97  1  0  0  0
  7  8  2  0  0  0
  7 26  1  0  0  0
  7 29  1  0  0  0
  8  9  1  0  0  0
  8 22  1  0  0  0
  9 10  1  0  0  0
  9 27  2  0  0  0
 10 11  2  0  0  0
 10 15  1  0  0  0
 11 12  1  0  0  0
 11 98  1  0  0  0
 12 13  2  0  0  0
 12 99  1  0  0  0
 13 14  1  0  0  0
 13 31  1  0  0  0
 14 15  2  0  0  0
 14100  1  0  0  0
 15101  1  0  0  0
 16 17  2  0  0  0
 16 21  1  0  0  0
 16 31  1  0  0  0
 17 18  1  0  0  0
 17102  1  0  0  0
 18 19  2  0  0  0
 18103  1  0  0  0
 19 20  1  0  0  0
 19 24  1  0  0  0
 20 21  2  0  0  0
 20104  1  0  0  0
 21 23  1  0  0  0
 22 28  1  0  0  0
 22 32  2  0  0  0
 26 27  1  0  0  0
 28105  1  0  0  0
 28106  1  0  0  0
 29107  1  0  0  0
 29108  1  0  0  0
 33 34  1  0  0  0
 33 66  1  0  0  0
 33 70  2  0  0  0
 34 36  1  0  0  0
 34 59  1  0  0  0
 34109  1  0  0  0
 35 44  2  0  0  0
 35 45  1  0  0  0
 35 68  1  0  0  0
 36 56  1  0  0  0
 36110  1  0  0  0
 37 39  1  0  0  0
 37 47  1  0  0  0
 37 66  1  0  0  0
 37111  1  0  0  0
 38 43  2  0  0  0
 38 46  1  0  0  0
 38 47  1  0  0  0
 39 64  1  0  0  0
 39 67  2  0  0  0
 40 52  1  0  0  0
 40 53  2  0  0  0
 40 58  1  0  0  0
 41112  1  0  0  0
 41113  1  0  0  0
 41114  1  0  0  0
 41 48  1  0  0  0
 42 43  1  0  0  0
 42 66  1  0  0  0
 42115  1  0  0  0
 42116  1  0  0  0
 43 44  1  0  0  0
 44117  1  0  0  0
 45 46  2  0  0  0
 45118  1  0  0  0
 46119  1  0  0  0
 47120  1  0  0  0
 47121  1  0  0  0
 48 56  1  0  0  0
 48 65  1  0  0  0
 48122  1  0  0  0
 49 50  1  0  0  0
 49 53  1  0  0  0
 49 64  1  0  0  0
 49123  1  0  0  0
 50 51  1  0  0  0
 50124  1  0  0  0
 50125  1  0  0  0
 51 52  1  0  0  0
 51126  1  0  0  0
 51127  1  0  0  0
 52128  1  0  0  0
 52129  1  0  0  0
 53 54  1  0  0  0
 54 55  2  0  0  0
 54130  1  0  0  0
 55 57  1  0  0  0
 55131  1  0  0  0
 56 69  2  0  0  0
 57 58  2  0  0  0
 57132  1  0  0  0
 58133  1  0  0  0
 59 60  1  0  0  0
 59 61  1  0  0  0
 59 62  1  0  0  0
 60134  1  0  0  0
 60135  1  0  0  0
 60136  1  0  0  0
 61137  1  0  0  0
 61138  1  0  0  0
 61139  1  0  0  0
 62140  1  0  0  0
 62141  1  0  0  0
 62142  1  0  0  0
 63 65  1  0  0  0
 63143  1  0  0  0
 63144  1  0  0  0
 63145  1  0  0  0
 64146  1  0  0  0
 65147  1  0  0  0
 68 83  1  0  0  0
 71 73  2  0  0  0
 71 75  1  0  0  0
 71148  1  0  0  0
 72 73  1  0  0  0
 72 76  2  0  0  0
 72149  1  0  0  0
 73 81  1  0  0  0
 74 75  2  0  0  0
 74 76  1  0  0  0
 74 82  1  0  0  0
 75 86  1  0  0  0
 76 87  1  0  0  0
 77 79  1  0  0  0
 77 81  1  0  0  0
 77150  1  0  0  0
 77151  1  0  0  0
 78 80  1  0  0  0
 78 81  1  0  0  0
 78152  1  0  0  0
 78153  1  0  0  0
 79 88  1  0  0  0
 79154  1  0  0  0
 79155  1  0  0  0
 80 88  1  0  0  0
 80156  1  0  0  0
 80157  1  0  0  0
 81158  1  0  0  0
 82 83  1  0  0  0
 82 84  1  0  0  0
 82159  1  0  0  0
 83 87  1  0  0  0
 83160  1  0  0  0
 84161  1  0  0  0
 84162  1  0  0  0
 84163  1  0  0  0
 85 86  1  0  0  0
 85164  1  0  0  0
 85165  1  0  0  0
 85166  1  0  0  0
 86167  1  0  0  0
 86168  1  0  0  0
 87169  1  0  0  0
M  ISO  4   1 100  68 101  83 101  88 100
M  END
> <chiral flag>
0

> <version>
0

> <s_m_source_file>
/data/baiqing/PycharmProjects/Reinvent-master-3.2/result/LINK_invent/BTK/process_docking_weight1_custom_sum_contain_oxygen_bond_distance_aromatic_linkinvent_7_9_3/rearranged_h_0158.sdf

> <i_m_source_file_index>
24

> <r_mmod_Potential_Energy-OPLS-2005>
252.213287353516

> <r_mmod_Stretch_Energy-OPLS-2005>
79.4529266357422

> <r_mmod_Bend_Energy-OPLS-2005>
196.694183349609

> <r_mmod_Torsional_Energy-OPLS-2005>
303.122222900391

> <r_mmod_Improper_Torsional_Energy-OPLS-2005>
14.5172071456909

> <r_mmod_Van_der_Waal_Energy-OPLS-2005>
139.63525390625

> <r_mmod_Electrostatic_Energy-OPLS-2005>
-327.531890869141

> <r_mmod_Solvation_Energy-OPLS-2005>
-206.793029785156

> <b_mmod_Minimization_Converged-OPLS-2005>
0

> <r_mmod_RMS_Derivative-OPLS-2005>
0.453343451023102

$$$$
24
                    3D
 Structure written by MMmdl.
176186  0  0  1  0            999 V2000
  -30.7531  -14.4632   20.5613 C   0  0  0  0  0  0
  -30.4174  -12.3259   19.3983 C   0  0  0  0  0  0
  -29.4781  -12.5158   18.1902 C   0  0  0  0  0  0
  -28.0075  -12.3567   18.6203 C   0  0  0  0  0  0
  -27.6519  -13.2103   19.8667 C   0  0  2  0  0  0
  -28.7067  -13.0325   20.9845 C   0  0  0  0  0  0
  -25.2458  -13.8016   20.5728 C   0  0  0  0  0  0
  -24.1753  -13.0306   20.9171 C   0  0  0  0  0  0
  -24.6356  -11.6793   20.8697 C   0  0  0  0  0  0
  -23.9040  -10.4205   21.0350 C   0  0  0  0  0  0
  -24.3591   -9.4144   21.9138 C   0  0  0  0  0  0
  -23.6249   -8.2198   22.0746 C   0  0  0  0  0  0
  -22.4227   -8.0243   21.3553 C   0  0  0  0  0  0
  -21.9839   -9.0204   20.4667 C   0  0  0  0  0  0
  -22.7200  -10.2053   20.3015 C   0  0  0  0  0  0
  -21.6816   -6.0699   22.5277 C   0  0  0  0  0  0
  -21.4019   -6.5618   23.8219 C   0  0  0  0  0  0
  -21.3636   -5.6785   24.9193 C   0  0  0  0  0  0
  -21.6027   -4.3039   24.7254 C   0  0  0  0  0  0
  -21.8838   -3.8124   23.4383 C   0  0  0  0  0  0
  -21.9209   -4.6921   22.3438 C   0  0  0  0  0  0
  -22.7787  -13.5126   21.1844 C   0  0  0  0  0  0
  -22.1665   -4.2097   21.1007 F   0  0  0  0  0  0
  -21.5585   -3.4544   25.7775 F   0  0  0  0  0  0
  -30.0339  -13.3182   20.4153 N   0  0  0  0  0  0
  -26.2983  -12.9284   20.3388 N   0  0  0  0  0  0
  -25.9310  -11.6419   20.5746 N   0  0  0  0  0  0
  -22.0447  -12.8125   22.0410 N   0  0  0  0  0  0
  -25.3998  -15.1709   20.4239 N   0  0  0  0  0  0
  -31.9220  -14.5541   20.1736 O   0  0  0  0  0  0
  -21.6609   -6.8825   21.4238 O   0  0  0  0  0  0
  -22.3511  -14.5464   20.6707 O   0  0  0  0  0  0
  -24.6125  -31.8759   23.2210 C   0  0  0  0  0  0
  -25.9032  -32.4872   23.8479 C   0  0  1  0  0  0
  -27.1892  -27.4463   20.0770 C   0  0  0  0  0  0
  -25.5958  -33.8670   24.2398 N   0  0  0  0  0  0
  -23.3997  -30.5061   21.5609 C   0  0  2  0  0  0
  -24.8356  -29.0044   20.0993 C   0  0  0  0  0  0
  -22.7414  -29.4669   22.4974 C   0  0  0  0  0  0
  -18.0294  -28.1430   22.8478 C   0  0  0  0  0  0
  -24.1502  -36.7306   23.2611 C   0  0  0  0  0  0
  -25.9317  -30.8404   21.3830 C   0  0  0  0  0  0
  -25.9989  -29.4845   20.7167 C   0  0  0  0  0  0
  -27.1791  -28.7057   20.7176 C   0  0  0  0  0  0
  -26.0371  -27.0416   19.3703 C   0  0  0  0  0  0
  -24.8484  -27.7796   19.4244 C   0  0  0  0  0  0
  -23.6016  -29.8699   20.1647 C   0  0  0  0  0  0
  -25.4127  -36.3126   24.0306 C   0  0  1  0  0  0
  -20.5888  -28.3691   23.1332 C   0  0  2  0  0  0
  -20.6786  -26.9425   22.5455 C   0  0  0  0  0  0
  -19.5774  -26.6399   21.5252 C   0  0  0  0  0  0
  -18.1944  -26.7979   22.1624 C   0  0  0  0  0  0
  -19.1539  -28.8875   23.2903 C   0  0  0  0  0  0
  -18.9442  -30.1474   23.8924 C   0  0  0  0  0  0
  -17.6446  -30.6615   24.0576 C   0  0  0  0  0  0
  -25.9034  -34.9488   23.5120 C   0  0  0  0  0  0
  -16.5349  -29.9101   23.6360 C   0  0  0  0  0  0
  -16.7281  -28.6543   23.0344 C   0  0  0  0  0  0
  -26.4489  -31.6624   25.0785 C   0  0  0  0  0  0
  -25.3720  -31.3786   26.1503 C   0  0  0  0  0  0
  -27.0260  -30.3017   24.6191 C   0  0  0  0  0  0
  -27.6161  -32.4269   25.7490 C   0  0  0  0  0  0
  -27.5598  -37.1799   24.8464 C   0  0  0  0  0  0
  -21.4139  -29.3046   22.3695 N   0  0  0  0  0  0
  -26.4332  -37.3789   23.9389 N   0  0  0  0  0  0
  -24.6655  -31.0866   22.1122 N   0  0  0  0  0  0
  -23.4196  -28.8161   23.2970 O   0  0  0  0  0  0
  -28.2831  -26.6153   20.1864 O   0  0  0  0  0  0
  -26.5549  -34.8928   22.4651 O   0  0  0  0  0  0
  -23.5325  -32.1533   23.7601 O   0  0  0  0  0  0
  -26.7310  -19.4117   19.3940 C   0  0  0  0  0  0
  -25.8686  -20.5103   19.5449 C   0  0  0  0  0  0
  -25.7729  -18.3949   21.3709 C   0  0  0  0  0  0
  -26.7648  -18.3855   20.3642 C   0  0  0  0  0  0
  -25.0232  -20.6121   20.6745 C   0  0  0  0  0  0
  -24.9073  -19.4936   21.5345 C   0  0  0  0  0  0
  -29.1935  -17.7873   19.7371 C   0  0  0  0  0  0
  -28.1142  -16.6816   21.7603 C   0  0  0  0  0  0
  -23.9747  -22.8028   19.8288 C   0  0  0  0  0  0
  -30.3175  -16.7212   19.7699 C   0  0  0  0  0  0
  -29.5339  -16.1203   21.9533 C   0  0  0  0  0  0
  -25.1345  -23.8000   19.6590 C   0  0  0  0  0  0
  -25.3508  -22.8432   21.7852 C   0  0  0  0  0  0
  -27.8567  -17.3021   20.3473 C   0  0  0  0  0  0
  -24.3505  -21.9408   21.0374 C   0  0  2  0  0  0
  -23.9027  -19.4641   22.6727 C   0  0  0  0  0  0
  -26.9488  -24.6787   21.1898 C   0  0  0  0  0  0
  -28.0074  -25.1918   20.1514 C   0  0  0  0  0  0
  -30.0246  -15.6004   20.6789 N   0  0  0  0  0  0
  -26.1283  -23.5164   20.7249 N   0  3  2  0  0  0
  -31.4518  -12.4311   19.0692 H   0  0  0  0  0  0
  -30.3344  -11.3187   19.8081 H   0  0  0  0  0  0
  -29.7194  -11.7981   17.4045 H   0  0  0  0  0  0
  -29.6342  -13.5041   17.7485 H   0  0  0  0  0  0
  -27.8381  -11.3020   18.8403 H   0  0  0  0  0  0
  -27.3409  -12.5988   17.7913 H   0  0  0  0  0  0
  -27.6766  -14.2501   19.5466 H   0  0  0  0  0  0
  -28.6931  -12.0133   21.3711 H   0  0  0  0  0  0
  -28.4749  -13.6733   21.8338 H   0  0  0  0  0  0
  -25.2717   -9.5621   22.4722 H   0  0  0  0  0  0
  -23.9932   -7.4587   22.7464 H   0  0  0  0  0  0
  -21.0744   -8.8737   19.8996 H   0  0  0  0  0  0
  -22.3633  -10.9582   19.6131 H   0  0  0  0  0  0
  -21.2004   -7.6122   23.9710 H   0  0  0  0  0  0
  -21.1420   -6.0515   25.9090 H   0  0  0  0  0  0
  -22.0630   -2.7574   23.2929 H   0  0  0  0  0  0
  -22.4081  -11.9777   22.4757 H   0  0  0  0  0  0
  -21.1109  -13.1173   22.2757 H   0  0  0  0  0  0
  -24.6659  -15.8258   20.6620 H   0  0  0  0  0  0
  -26.2901  -15.6176   20.2641 H   0  0  0  0  0  0
  -26.7068  -32.5599   23.1228 H   0  0  0  0  0  0
  -25.0223  -33.9910   25.0602 H   0  0  0  0  0  0
  -22.6887  -31.3239   21.4403 H   0  0  0  0  0  0
  -23.3777  -35.9619   23.3309 H   0  0  0  0  0  0
  -24.3643  -36.8886   22.2031 H   0  0  0  0  0  0
  -23.7230  -37.6509   23.6594 H   0  0  0  0  0  0
  -26.0647  -31.6160   20.6275 H   0  0  0  0  0  0
  -26.8108  -30.8722   22.0124 H   0  0  0  0  0  0
  -28.0668  -29.0533   21.2268 H   0  0  0  0  0  0
  -26.0288  -26.1544   18.7646 H   0  0  0  0  0  0
  -23.9644  -27.4387   18.9054 H   0  0  0  0  0  0
  -23.7097  -30.6677   19.4304 H   0  0  0  0  0  0
  -22.7247  -29.3002   19.8480 H   0  0  0  0  0  0
  -25.1285  -36.2020   25.0792 H   0  0  0  0  0  0
  -20.9992  -28.3283   24.1439 H   0  0  0  0  0  0
  -20.5785  -26.2255   23.3637 H   0  0  0  0  0  0
  -21.6622  -26.7500   22.1179 H   0  0  0  0  0  0
  -19.6926  -25.6297   21.1291 H   0  0  0  0  0  0
  -19.6750  -27.3200   20.6804 H   0  0  0  0  0  0
  -17.4236  -26.6804   21.4000 H   0  0  0  0  0  0
  -18.0298  -26.0124   22.9028 H   0  0  0  0  0  0
  -19.7909  -30.7305   24.2285 H   0  0  0  0  0  0
  -17.4994  -31.6302   24.5159 H   0  0  0  0  0  0
  -15.5346  -30.3014   23.7655 H   0  0  0  0  0  0
  -15.8688  -28.0878   22.7026 H   0  0  0  0  0  0
  -24.6235  -30.6668   25.8011 H   0  0  0  0  0  0
  -24.8474  -32.2877   26.4436 H   0  0  0  0  0  0
  -25.8094  -30.9562   27.0545 H   0  0  0  0  0  0
  -26.2813  -29.6888   24.1096 H   0  0  0  0  0  0
  -27.3809  -29.7180   25.4698 H   0  0  0  0  0  0
  -27.8767  -30.4305   23.9490 H   0  0  0  0  0  0
  -27.2940  -33.3702   26.1901 H   0  0  0  0  0  0
  -28.4027  -32.6543   25.0278 H   0  0  0  0  0  0
  -28.0703  -31.8425   26.5501 H   0  0  0  0  0  0
  -28.2612  -38.0098   24.7497 H   0  0  0  0  0  0
  -28.1094  -36.2624   24.6300 H   0  0  0  0  0  0
  -27.2324  -37.1459   25.8873 H   0  0  0  0  0  0
  -20.9290  -29.8827   21.6965 H   0  0  0  0  0  0
  -26.0230  -38.2851   24.1446 H   0  0  0  0  0  0
  -27.3957  -19.4103   18.5444 H   0  0  0  0  0  0
  -25.9233  -21.2947   18.8027 H   0  0  0  0  0  0
  -25.6991  -17.5780   22.0726 H   0  0  0  0  0  0
  -29.0560  -18.0891   18.6998 H   0  0  0  0  0  0
  -29.5199  -18.6811   20.2718 H   0  0  0  0  0  0
  -27.9792  -17.4364   22.5370 H   0  0  0  0  0  0
  -27.3814  -15.9044   21.9755 H   0  0  0  0  0  0
  -23.7555  -22.2252   18.9312 H   0  0  0  0  0  0
  -23.0718  -23.3697   20.0575 H   0  0  0  0  0  0
  -31.2567  -17.1907   20.0673 H   0  0  0  0  0  0
  -30.4791  -16.3268   18.7642 H   0  0  0  0  0  0
  -29.5751  -15.3998   22.7690 H   0  0  0  0  0  0
  -30.1883  -16.9373   22.2660 H   0  0  0  0  0  0
  -24.7106  -24.7904   19.7975 H   0  0  0  0  0  0
  -25.5863  -23.7573   18.6678 H   0  0  0  0  0  0
  -25.9899  -22.2845   22.4711 H   0  0  0  0  0  0
  -24.8102  -23.5878   22.3720 H   0  0  0  0  0  0
  -27.5090  -16.5166   19.6780 H   0  0  0  0  0  0
  -23.4575  -21.7645   21.6366 H   0  0  0  0  0  0
  -23.9027  -18.5038   23.1881 H   0  0  0  0  0  0
  -22.8921  -19.6267   22.2979 H   0  0  0  0  0  0
  -24.1300  -20.2307   23.4100 H   0  0  0  0  0  0
  -26.2664  -25.4667   21.5129 H   0  0  0  0  0  0
  -27.4839  -24.3798   22.0890 H   0  0  0  0  0  0
  -28.9492  -24.6793   20.3526 H   0  0  0  0  0  0
  -27.7419  -24.9018   19.1331 H   0  0  0  0  0  0
  -26.7541  -22.8043   20.3737 H   0  0  0  0  0  0
  1 25  1  0  0  0
  1 30  2  0  0  0
  1 89  1  0  0  0
  2  3  1  0  0  0
  2 25  1  0  0  0
  2 91  1  0  0  0
  2 92  1  0  0  0
  3  4  1  0  0  0
  3 93  1  0  0  0
  3 94  1  0  0  0
  4  5  1  0  0  0
  4 95  1  0  0  0
  4 96  1  0  0  0
  5  6  1  0  0  0
  5 26  1  0  0  0
  5 97  1  0  0  0
  6 25  1  0  0  0
  6 98  1  0  0  0
  6 99  1  0  0  0
  7  8  2  0  0  0
  7 26  1  0  0  0
  7 29  1  0  0  0
  8  9  1  0  0  0
  8 22  1  0  0  0
  9 10  1  0  0  0
  9 27  2  0  0  0
 10 11  2  0  0  0
 10 15  1  0  0  0
 11 12  1  0  0  0
 11100  1  0  0  0
 12 13  2  0  0  0
 12101  1  0  0  0
 13 14  1  0  0  0
 13 31  1  0  0  0
 14 15  2  0  0  0
 14102  1  0  0  0
 15103  1  0  0  0
 16 17  2  0  0  0
 16 21  1  0  0  0
 16 31  1  0  0  0
 17 18  1  0  0  0
 17104  1  0  0  0
 18 19  2  0  0  0
 18105  1  0  0  0
 19 20  1  0  0  0
 19 24  1  0  0  0
 20 21  2  0  0  0
 20106  1  0  0  0
 21 23  1  0  0  0
 22 28  1  0  0  0
 22 32  2  0  0  0
 26 27  1  0  0  0
 28107  1  0  0  0
 28108  1  0  0  0
 29109  1  0  0  0
 29110  1  0  0  0
 33 34  1  0  0  0
 33 66  1  0  0  0
 33 70  2  0  0  0
 34 36  1  0  0  0
 34 59  1  0  0  0
 34111  1  0  0  0
 35 44  2  0  0  0
 35 45  1  0  0  0
 35 68  1  0  0  0
 36 56  1  0  0  0
 36112  1  0  0  0
 37 39  1  0  0  0
 37 47  1  0  0  0
 37 66  1  0  0  0
 37113  1  0  0  0
 38 43  2  0  0  0
 38 46  1  0  0  0
 38 47  1  0  0  0
 39 64  1  0  0  0
 39 67  2  0  0  0
 40 52  1  0  0  0
 40 53  2  0  0  0
 40 58  1  0  0  0
 41114  1  0  0  0
 41115  1  0  0  0
 41116  1  0  0  0
 41 48  1  0  0  0
 42 43  1  0  0  0
 42 66  1  0  0  0
 42117  1  0  0  0
 42118  1  0  0  0
 43 44  1  0  0  0
 44119  1  0  0  0
 45 46  2  0  0  0
 45120  1  0  0  0
 46121  1  0  0  0
 47122  1  0  0  0
 47123  1  0  0  0
 48 56  1  0  0  0
 48 65  1  0  0  0
 48124  1  0  0  0
 49 50  1  0  0  0
 49 53  1  0  0  0
 49 64  1  0  0  0
 49125  1  0  0  0
 50 51  1  0  0  0
 50126  1  0  0  0
 50127  1  0  0  0
 51 52  1  0  0  0
 51128  1  0  0  0
 51129  1  0  0  0
 52130  1  0  0  0
 52131  1  0  0  0
 53 54  1  0  0  0
 54 55  2  0  0  0
 54132  1  0  0  0
 55 57  1  0  0  0
 55133  1  0  0  0
 56 69  2  0  0  0
 57 58  2  0  0  0
 57134  1  0  0  0
 58135  1  0  0  0
 59 60  1  0  0  0
 59 61  1  0  0  0
 59 62  1  0  0  0
 60136  1  0  0  0
 60137  1  0  0  0
 60138  1  0  0  0
 61139  1  0  0  0
 61140  1  0  0  0
 61141  1  0  0  0
 62142  1  0  0  0
 62143  1  0  0  0
 62144  1  0  0  0
 63 65  1  0  0  0
 63145  1  0  0  0
 63146  1  0  0  0
 63147  1  0  0  0
 64148  1  0  0  0
 65149  1  0  0  0
 68 88  1  0  0  0
 71 72  2  0  0  0
 71 74  1  0  0  0
 71150  1  0  0  0
 72 75  1  0  0  0
 72151  1  0  0  0
 73 74  2  0  0  0
 73 76  1  0  0  0
 73152  1  0  0  0
 74 84  1  0  0  0
 75 76  2  0  0  0
 75 85  1  0  0  0
 76 86  1  0  0  0
 77 80  1  0  0  0
 77 84  1  0  0  0
 77153  1  0  0  0
 77154  1  0  0  0
 78 81  1  0  0  0
 78 84  1  0  0  0
 78155  1  0  0  0
 78156  1  0  0  0
 79 82  1  0  0  0
 79 85  1  0  0  0
 79157  1  0  0  0
 79158  1  0  0  0
 80 89  1  0  0  0
 80159  1  0  0  0
 80160  1  0  0  0
 81 89  1  0  0  0
 81161  1  0  0  0
 81162  1  0  0  0
 82 90  1  0  0  0
 82163  1  0  0  0
 82164  1  0  0  0
 83 85  1  0  0  0
 83 90  1  0  0  0
 83165  1  0  0  0
 83166  1  0  0  0
 84167  1  0  0  0
 85168  1  0  0  0
 86169  1  0  0  0
 86170  1  0  0  0
 86171  1  0  0  0
 87 88  1  0  0  0
 87172  1  0  0  0
 87173  1  0  0  0
 87 90  1  0  0  0
 88174  1  0  0  0
 88175  1  0  0  0
 90176  1  0  0  0
M  CHG  1  90   1
M  ISO  4   1 100  68 101  88 101  89 100
M  END
> <chiral flag>
0

> <version>
0

> <s_m_source_file>
/data/baiqing/PycharmProjects/Reinvent-master-3.2/result/LINK_invent/BTK/process_docking_weight1_custom_sum_contain_oxygen_bond_distance_aromatic_linkinvent_7_9_3/rearranged_h_0158.sdf

> <i_m_source_file_index>
25

> <r_mmod_Potential_Energy-OPLS-2005>
244.735015869141

> <r_mmod_Stretch_Energy-OPLS-2005>
41.7355308532715

> <r_mmod_Bend_Energy-OPLS-2005>
132.525466918945

> <r_mmod_Torsional_Energy-OPLS-2005>
431.961242675781

> <r_mmod_Improper_Torsional_Energy-OPLS-2005>
18.2966327667236

> <r_mmod_Van_der_Waal_Energy-OPLS-2005>
179.905853271484

> <r_mmod_Electrostatic_Energy-OPLS-2005>
-189.70378112793

> <r_mmod_Solvation_Energy-OPLS-2005>
-398.43310546875

> <b_mmod_Minimization_Converged-OPLS-2005>
0

> <r_mmod_RMS_Derivative-OPLS-2005>
5.069016456604

$$$$
25
                    3D
 Structure written by MMmdl.
167176  0  0  1  0            999 V2000
  -30.6743  -14.5974   20.4804 C   0  0  0  0  0  0
  -30.4160  -12.3631   19.4502 C   0  0  0  0  0  0
  -29.4968  -12.4895   18.2180 C   0  0  0  0  0  0
  -28.0195  -12.3446   18.6326 C   0  0  0  0  0  0
  -27.6466  -13.2254   19.8566 C   0  0  2  0  0  0
  -28.6920  -13.1113   20.9873 C   0  0  0  0  0  0
  -25.2538  -13.8202   20.5700 C   0  0  0  0  0  0
  -24.1810  -13.0452   20.9185 C   0  0  0  0  0  0
  -24.6391  -11.6926   20.8742 C   0  0  0  0  0  0
  -23.9068  -10.4303   21.0405 C   0  0  0  0  0  0
  -24.3620   -9.4216   21.9182 C   0  0  0  0  0  0
  -23.6295   -8.2251   22.0755 C   0  0  0  0  0  0
  -22.4278   -8.0285   21.3544 C   0  0  0  0  0  0
  -21.9913   -9.0259   20.4644 C   0  0  0  0  0  0
  -22.7242  -10.2138   20.3054 C   0  0  0  0  0  0
  -21.6854   -6.0736   22.5276 C   0  0  0  0  0  0
  -21.4014   -6.5639   23.8209 C   0  0  0  0  0  0
  -21.3660   -5.6793   24.9171 C   0  0  0  0  0  0
  -21.6045   -4.3057   24.7225 C   0  0  0  0  0  0
  -21.8819   -3.8148   23.4346 C   0  0  0  0  0  0
  -21.9194   -4.6963   22.3401 C   0  0  0  0  0  0
  -22.7832  -13.5235   21.1850 C   0  0  0  0  0  0
  -22.1661   -4.2148   21.0978 F   0  0  0  0  0  0
  -21.5632   -3.4541   25.7738 F   0  0  0  0  0  0
  -30.0034  -13.4096   20.4035 N   0  0  0  0  0  0
  -26.2964  -12.9397   20.3321 N   0  0  0  0  0  0
  -25.9323  -11.6542   20.5771 N   0  0  0  0  0  0
  -22.0484  -12.8217   22.0406 N   0  0  0  0  0  0
  -25.4272  -15.1920   20.4143 N   0  0  0  0  0  0
  -31.8702  -14.6695   20.1800 O   0  0  0  0  0  0
  -21.6644   -6.8880   21.4238 O   0  0  0  0  0  0
  -22.3514  -14.5545   20.6710 O   0  0  0  0  0  0
  -24.6217  -31.8622   23.2049 C   0  0  0  0  0  0
  -25.9083  -32.4788   23.8371 C   0  0  1  0  0  0
  -27.2251  -27.3641   20.1164 C   0  0  0  0  0  0
  -25.5915  -33.8589   24.2303 N   0  0  0  0  0  0
  -23.4140  -30.4842   21.5460 C   0  0  2  0  0  0
  -24.8623  -28.9396   20.1146 C   0  0  0  0  0  0
  -22.7450  -29.4629   22.4956 C   0  0  0  0  0  0
  -18.0280  -28.1382   22.8489 C   0  0  0  0  0  0
  -24.1485  -36.7295   23.2639 C   0  0  0  0  0  0
  -25.9494  -30.8063   21.3690 C   0  0  0  0  0  0
  -26.0265  -29.4341   20.7185 C   0  0  0  0  0  0
  -27.2152  -28.6544   20.7152 C   0  0  0  0  0  0
  -26.0477  -26.9014   19.5006 C   0  0  0  0  0  0
  -24.8708  -27.6753   19.4996 C   0  0  0  0  0  0
  -23.6278  -29.8155   20.1617 C   0  0  0  0  0  0
  -25.4106  -36.3089   24.0336 C   0  0  1  0  0  0
  -20.5876  -28.3679   23.1293 C   0  0  2  0  0  0
  -20.6771  -26.9406   22.5413 C   0  0  0  0  0  0
  -19.5746  -26.6383   21.5213 C   0  0  0  0  0  0
  -18.1924  -26.7928   22.1622 C   0  0  0  0  0  0
  -19.1531  -28.8849   23.2888 C   0  0  0  0  0  0
  -18.9458  -30.1453   23.8902 C   0  0  0  0  0  0
  -17.6458  -30.6588   24.0564 C   0  0  0  0  0  0
  -25.9041  -34.9457   23.5117 C   0  0  0  0  0  0
  -16.5351  -29.9085   23.6330 C   0  0  0  0  0  0
  -16.7269  -28.6502   23.0352 C   0  0  0  0  0  0
  -26.4492  -31.6578   25.0720 C   0  0  0  0  0  0
  -25.3746  -31.3688   26.1458 C   0  0  0  0  0  0
  -27.0332  -30.3011   24.6132 C   0  0  0  0  0  0
  -27.6061  -32.4304   25.7484 C   0  0  0  0  0  0
  -27.5583  -37.1793   24.8461 C   0  0  0  0  0  0
  -21.4169  -29.3036   22.3695 N   0  0  0  0  0  0
  -26.4284  -37.3783   23.9421 N   0  0  0  0  0  0
  -24.6802  -31.0667   22.0978 N   0  0  0  0  0  0
  -23.4189  -28.8176   23.3029 O   0  0  0  0  0  0
  -28.3352  -26.5305   20.1002 O   0  0  0  0  0  0
  -26.5607  -34.8921   22.4681 O   0  0  0  0  0  0
  -23.5393  -32.1409   23.7397 O   0  0  0  0  0  0
  -28.9591  -23.4280   19.8619 C   0  0  0  0  0  0
  -28.3346  -24.0509   20.9707 C   0  0  0  0  0  0
  -28.9550  -22.0123   19.6807 C   0  0  0  0  0  0
  -27.7192  -23.1847   21.9275 C   0  0  0  0  0  0
  -27.6957  -21.7627   21.7383 C   0  0  0  0  0  0
  -28.3254  -21.1503   20.6208 C   0  0  0  0  0  0
  -29.0414  -17.8650   21.7080 C   0  0  0  0  0  0
  -29.0595  -17.8277   19.2598 C   0  0  0  0  0  0
  -29.9932  -16.6155   21.7184 C   0  0  0  0  0  0
  -30.0390  -16.6187   19.3105 C   0  0  0  0  0  0
  -29.1861  -18.7846   20.4656 C   0  0  0  0  0  0
  -29.5905  -21.4332   18.4305 C   0  0  0  0  0  0
  -27.0797  -23.7995   23.1732 C   0  0  0  0  0  0
  -26.9666  -20.8690   22.7383 C   0  0  0  0  0  0
  -28.4404  -25.6007   21.2152 C   0  0  0  0  0  0
  -29.9232  -15.7528   20.5128 N   0  0  0  0  0  0
  -28.1277  -19.7812   20.3891 O   0  0  0  0  0  0
  -31.4619  -12.4539   19.1510 H   0  0  0  0  0  0
  -30.3188  -11.3763   19.9056 H   0  0  0  0  0  0
  -29.7523  -11.7316   17.4761 H   0  0  0  0  0  0
  -29.6517  -13.4554   17.7349 H   0  0  0  0  0  0
  -27.8478  -11.2934   18.8680 H   0  0  0  0  0  0
  -27.3667  -12.5760   17.7900 H   0  0  0  0  0  0
  -27.6580  -14.2572   19.5045 H   0  0  0  0  0  0
  -28.6912  -12.1106   21.4219 H   0  0  0  0  0  0
  -28.4580  -13.8030   21.7985 H   0  0  0  0  0  0
  -25.2763   -9.5694   22.4757 H   0  0  0  0  0  0
  -24.0004   -7.4644   22.7478 H   0  0  0  0  0  0
  -21.0845   -8.8778   19.8950 H   0  0  0  0  0  0
  -22.3701  -10.9677   19.6164 H   0  0  0  0  0  0
  -21.2005   -7.6146   23.9711 H   0  0  0  0  0  0
  -21.1481   -6.0524   25.9073 H   0  0  0  0  0  0
  -22.0598   -2.7610   23.2848 H   0  0  0  0  0  0
  -22.4110  -11.9872   22.4774 H   0  0  0  0  0  0
  -21.1104  -13.1237   22.2626 H   0  0  0  0  0  0
  -24.6689  -15.8539   20.5358 H   0  0  0  0  0  0
  -26.2959  -15.6295   20.1344 H   0  0  0  0  0  0
  -26.7153  -32.5480   23.1128 H   0  0  0  0  0  0
  -25.0084  -33.9746   25.0463 H   0  0  0  0  0  0
  -22.7060  -31.3030   21.4023 H   0  0  0  0  0  0
  -23.3756  -35.9616   23.3283 H   0  0  0  0  0  0
  -24.3590  -36.8933   22.2058 H   0  0  0  0  0  0
  -23.7221  -37.6485   23.6671 H   0  0  0  0  0  0
  -26.0708  -31.5681   20.5976 H   0  0  0  0  0  0
  -26.8333  -30.8609   21.9925 H   0  0  0  0  0  0
  -28.1136  -29.0286   21.1857 H   0  0  0  0  0  0
  -26.0400  -25.9270   19.0325 H   0  0  0  0  0  0
  -23.9778  -27.2889   19.0276 H   0  0  0  0  0  0
  -23.7434  -30.5906   19.4031 H   0  0  0  0  0  0
  -22.7499  -29.2405   19.8617 H   0  0  0  0  0  0
  -25.1281  -36.1941   25.0828 H   0  0  0  0  0  0
  -20.9969  -28.3250   24.1412 H   0  0  0  0  0  0
  -20.5673  -26.2289   23.3609 H   0  0  0  0  0  0
  -21.6641  -26.7440   22.1204 H   0  0  0  0  0  0
  -19.6907  -25.6294   21.1239 H   0  0  0  0  0  0
  -19.6683  -27.3199   20.6748 H   0  0  0  0  0  0
  -17.4196  -26.6685   21.4021 H   0  0  0  0  0  0
  -18.0317  -26.0067   22.9014 H   0  0  0  0  0  0
  -19.7935  -30.7268   24.2271 H   0  0  0  0  0  0
  -17.5013  -31.6269   24.5162 H   0  0  0  0  0  0
  -15.5352  -30.2988   23.7653 H   0  0  0  0  0  0
  -15.8671  -28.0823   22.7062 H   0  0  0  0  0  0
  -24.5925  -30.7032   25.7788 H   0  0  0  0  0  0
  -24.8935  -32.2842   26.4913 H   0  0  0  0  0  0
  -25.8091  -30.8850   27.0214 H   0  0  0  0  0  0
  -26.2889  -29.6752   24.1193 H   0  0  0  0  0  0
  -27.4095  -29.7266   25.4607 H   0  0  0  0  0  0
  -27.8726  -30.4321   23.9301 H   0  0  0  0  0  0
  -27.2687  -33.3611   26.2057 H   0  0  0  0  0  0
  -28.3871  -32.6847   25.0305 H   0  0  0  0  0  0
  -28.0726  -31.8427   26.5401 H   0  0  0  0  0  0
  -28.2568  -38.0123   24.7552 H   0  0  0  0  0  0
  -28.1110  -36.2655   24.6223 H   0  0  0  0  0  0
  -27.2311  -37.1363   25.8866 H   0  0  0  0  0  0
  -20.9342  -29.8761   21.6911 H   0  0  0  0  0  0
  -26.0164  -38.2849   24.1454 H   0  0  0  0  0  0
  -29.4534  -24.0572   19.1346 H   0  0  0  0  0  0
  -29.2039  -18.4540   22.6113 H   0  0  0  0  0  0
  -28.0108  -17.5122   21.7663 H   0  0  0  0  0  0
  -28.0372  -17.4512   19.2032 H   0  0  0  0  0  0
  -29.2235  -18.3834   18.3367 H   0  0  0  0  0  0
  -29.7719  -16.0100   22.5989 H   0  0  0  0  0  0
  -31.0230  -16.9570   21.8404 H   0  0  0  0  0  0
  -31.0614  -16.9955   19.2355 H   0  0  0  0  0  0
  -29.8790  -16.0086   18.4190 H   0  0  0  0  0  0
  -30.1665  -19.2631   20.4665 H   0  0  0  0  0  0
  -29.8613  -22.2138   17.7194 H   0  0  0  0  0  0
  -28.8980  -20.7563   17.9302 H   0  0  0  0  0  0
  -30.4946  -20.8795   18.6826 H   0  0  0  0  0  0
  -27.7925  -24.4441   23.6878 H   0  0  0  0  0  0
  -26.7466  -23.0800   23.9170 H   0  0  0  0  0  0
  -26.2117  -24.3980   22.8946 H   0  0  0  0  0  0
  -25.9421  -21.2113   22.8841 H   0  0  0  0  0  0
  -27.4795  -20.8793   23.7001 H   0  0  0  0  0  0
  -26.9016  -19.8293   22.4223 H   0  0  0  0  0  0
  -29.4213  -25.7695   21.6598 H   0  0  0  0  0  0
  -27.7348  -25.9192   21.9812 H   0  0  0  0  0  0
  1 25  1  0  0  0
  1 30  2  0  0  0
  1 86  1  0  0  0
  2  3  1  0  0  0
  2 25  1  0  0  0
  2 88  1  0  0  0
  2 89  1  0  0  0
  3  4  1  0  0  0
  3 90  1  0  0  0
  3 91  1  0  0  0
  4  5  1  0  0  0
  4 92  1  0  0  0
  4 93  1  0  0  0
  5  6  1  0  0  0
  5 26  1  0  0  0
  5 94  1  0  0  0
  6 25  1  0  0  0
  6 95  1  0  0  0
  6 96  1  0  0  0
  7  8  2  0  0  0
  7 26  1  0  0  0
  7 29  1  0  0  0
  8  9  1  0  0  0
  8 22  1  0  0  0
  9 10  1  0  0  0
  9 27  2  0  0  0
 10 11  2  0  0  0
 10 15  1  0  0  0
 11 12  1  0  0  0
 11 97  1  0  0  0
 12 13  2  0  0  0
 12 98  1  0  0  0
 13 14  1  0  0  0
 13 31  1  0  0  0
 14 15  2  0  0  0
 14 99  1  0  0  0
 15100  1  0  0  0
 16 17  2  0  0  0
 16 21  1  0  0  0
 16 31  1  0  0  0
 17 18  1  0  0  0
 17101  1  0  0  0
 18 19  2  0  0  0
 18102  1  0  0  0
 19 20  1  0  0  0
 19 24  1  0  0  0
 20 21  2  0  0  0
 20103  1  0  0  0
 21 23  1  0  0  0
 22 28  1  0  0  0
 22 32  2  0  0  0
 26 27  1  0  0  0
 28104  1  0  0  0
 28105  1  0  0  0
 29106  1  0  0  0
 29107  1  0  0  0
 33 34  1  0  0  0
 33 66  1  0  0  0
 33 70  2  0  0  0
 34 36  1  0  0  0
 34 59  1  0  0  0
 34108  1  0  0  0
 35 44  2  0  0  0
 35 45  1  0  0  0
 35 68  1  0  0  0
 36 56  1  0  0  0
 36109  1  0  0  0
 37 39  1  0  0  0
 37 47  1  0  0  0
 37 66  1  0  0  0
 37110  1  0  0  0
 38 43  2  0  0  0
 38 46  1  0  0  0
 38 47  1  0  0  0
 39 64  1  0  0  0
 39 67  2  0  0  0
 40 52  1  0  0  0
 40 53  2  0  0  0
 40 58  1  0  0  0
 41111  1  0  0  0
 41112  1  0  0  0
 41113  1  0  0  0
 41 48  1  0  0  0
 42 43  1  0  0  0
 42 66  1  0  0  0
 42114  1  0  0  0
 42115  1  0  0  0
 43 44  1  0  0  0
 44116  1  0  0  0
 45 46  2  0  0  0
 45117  1  0  0  0
 46118  1  0  0  0
 47119  1  0  0  0
 47120  1  0  0  0
 48 56  1  0  0  0
 48 65  1  0  0  0
 48121  1  0  0  0
 49 50  1  0  0  0
 49 53  1  0  0  0
 49 64  1  0  0  0
 49122  1  0  0  0
 50 51  1  0  0  0
 50123  1  0  0  0
 50124  1  0  0  0
 51 52  1  0  0  0
 51125  1  0  0  0
 51126  1  0  0  0
 52127  1  0  0  0
 52128  1  0  0  0
 53 54  1  0  0  0
 54 55  2  0  0  0
 54129  1  0  0  0
 55 57  1  0  0  0
 55130  1  0  0  0
 56 69  2  0  0  0
 57 58  2  0  0  0
 57131  1  0  0  0
 58132  1  0  0  0
 59 60  1  0  0  0
 59 61  1  0  0  0
 59 62  1  0  0  0
 60133  1  0  0  0
 60134  1  0  0  0
 60135  1  0  0  0
 61136  1  0  0  0
 61137  1  0  0  0
 61138  1  0  0  0
 62139  1  0  0  0
 62140  1  0  0  0
 62141  1  0  0  0
 63 65  1  0  0  0
 63142  1  0  0  0
 63143  1  0  0  0
 63144  1  0  0  0
 64145  1  0  0  0
 65146  1  0  0  0
 68 85  1  0  0  0
 71 72  2  0  0  0
 71 73  1  0  0  0
 71147  1  0  0  0
 72 74  1  0  0  0
 72 85  1  0  0  0
 73 76  2  0  0  0
 73 82  1  0  0  0
 74 75  2  0  0  0
 74 83  1  0  0  0
 75 76  1  0  0  0
 75 84  1  0  0  0
 76 87  1  0  0  0
 77 79  1  0  0  0
 77 81  1  0  0  0
 77148  1  0  0  0
 77149  1  0  0  0
 78 80  1  0  0  0
 78 81  1  0  0  0
 78150  1  0  0  0
 78151  1  0  0  0
 79 86  1  0  0  0
 79152  1  0  0  0
 79153  1  0  0  0
 80 86  1  0  0  0
 80154  1  0  0  0
 80155  1  0  0  0
 81 87  1  0  0  0
 81156  1  0  0  0
 82157  1  0  0  0
 82158  1  0  0  0
 82159  1  0  0  0
 83160  1  0  0  0
 83161  1  0  0  0
 83162  1  0  0  0
 84163  1  0  0  0
 84164  1  0  0  0
 84165  1  0  0  0
 85166  1  0  0  0
 85167  1  0  0  0
M  ISO  4   1 100  68 101  85 101  86 100
M  END
> <chiral flag>
0

> <version>
0

> <s_m_source_file>
/data/baiqing/PycharmProjects/Reinvent-master-3.2/result/LINK_invent/BTK/process_docking_weight1_custom_sum_contain_oxygen_bond_distance_aromatic_linkinvent_7_9_3/rearranged_h_0158.sdf

> <i_m_source_file_index>
26

> <r_mmod_Potential_Energy-OPLS-2005>
290.393615722656

> <r_mmod_Stretch_Energy-OPLS-2005>
66.3564529418945

> <r_mmod_Bend_Energy-OPLS-2005>
139.02116394043

> <r_mmod_Torsional_Energy-OPLS-2005>
388.861114501953

> <r_mmod_Improper_Torsional_Energy-OPLS-2005>
16.5174827575684

> <r_mmod_Van_der_Waal_Energy-OPLS-2005>
143.898284912109

> <r_mmod_Electrostatic_Energy-OPLS-2005>
-312.807739257812

> <r_mmod_Solvation_Energy-OPLS-2005>
-189.720092773438

> <b_mmod_Minimization_Converged-OPLS-2005>
0

> <r_mmod_RMS_Derivative-OPLS-2005>
0.56210058927536

$$$$
26
                    3D
 Structure written by MMmdl.
177187  0  0  1  0            999 V2000
  -30.6791  -14.6202   20.5136 C   0  0  0  0  0  0
  -30.4173  -12.3864   19.4540 C   0  0  0  0  0  0
  -29.4954  -12.5005   18.2226 C   0  0  0  0  0  0
  -28.0215  -12.3409   18.6385 C   0  0  0  0  0  0
  -27.6461  -13.2231   19.8590 C   0  0  2  0  0  0
  -28.6912  -13.1146   20.9920 C   0  0  0  0  0  0
  -25.2523  -13.8193   20.5714 C   0  0  0  0  0  0
  -24.1804  -13.0446   20.9207 C   0  0  0  0  0  0
  -24.6387  -11.6920   20.8763 C   0  0  0  0  0  0
  -23.9068  -10.4298   21.0416 C   0  0  0  0  0  0
  -24.3620   -9.4209   21.9189 C   0  0  0  0  0  0
  -23.6296   -8.2244   22.0756 C   0  0  0  0  0  0
  -22.4279   -8.0284   21.3545 C   0  0  0  0  0  0
  -21.9919   -9.0260   20.4645 C   0  0  0  0  0  0
  -22.7246  -10.2139   20.3059 C   0  0  0  0  0  0
  -21.6848   -6.0741   22.5278 C   0  0  0  0  0  0
  -21.4013   -6.5640   23.8216 C   0  0  0  0  0  0
  -21.3664   -5.6793   24.9179 C   0  0  0  0  0  0
  -21.6047   -4.3055   24.7223 C   0  0  0  0  0  0
  -21.8818   -3.8152   23.4343 C   0  0  0  0  0  0
  -21.9191   -4.6970   22.3401 C   0  0  0  0  0  0
  -22.7826  -13.5223   21.1864 C   0  0  0  0  0  0
  -22.1658   -4.2156   21.0978 F   0  0  0  0  0  0
  -21.5635   -3.4539   25.7734 F   0  0  0  0  0  0
  -30.0047  -13.4296   20.4163 N   0  0  0  0  0  0
  -26.2954  -12.9389   20.3332 N   0  0  0  0  0  0
  -25.9317  -11.6536   20.5783 N   0  0  0  0  0  0
  -22.0478  -12.8213   22.0417 N   0  0  0  0  0  0
  -25.4208  -15.1919   20.4138 N   0  0  0  0  0  0
  -31.8395  -14.7142   20.0996 O   0  0  0  0  0  0
  -21.6636   -6.8887   21.4240 O   0  0  0  0  0  0
  -22.3516  -14.5534   20.6712 O   0  0  0  0  0  0
  -24.6244  -31.8611   23.2023 C   0  0  0  0  0  0
  -25.9096  -32.4791   23.8356 C   0  0  1  0  0  0
  -27.2274  -27.3324   20.1054 C   0  0  0  0  0  0
  -25.5905  -33.8591   24.2274 N   0  0  0  0  0  0
  -23.4172  -30.4824   21.5470 C   0  0  2  0  0  0
  -24.8613  -28.9352   20.1150 C   0  0  0  0  0  0
  -22.7457  -29.4633   22.4968 C   0  0  0  0  0  0
  -18.0276  -28.1391   22.8508 C   0  0  0  0  0  0
  -24.1480  -36.7298   23.2639 C   0  0  0  0  0  0
  -25.9568  -30.7933   21.3718 C   0  0  0  0  0  0
  -26.0300  -29.4218   20.7130 C   0  0  0  0  0  0
  -27.2142  -28.6307   20.6991 C   0  0  0  0  0  0
  -26.0331  -26.8901   19.4923 C   0  0  0  0  0  0
  -24.8638  -27.6735   19.4995 C   0  0  0  0  0  0
  -23.6283  -29.8123   20.1646 C   0  0  0  0  0  0
  -25.4113  -36.3090   24.0326 C   0  0  1  0  0  0
  -20.5876  -28.3693   23.1305 C   0  0  2  0  0  0
  -20.6765  -26.9416   22.5426 C   0  0  0  0  0  0
  -19.5739  -26.6391   21.5228 C   0  0  0  0  0  0
  -18.1915  -26.7940   22.1638 C   0  0  0  0  0  0
  -19.1531  -28.8858   23.2901 C   0  0  0  0  0  0
  -18.9456  -30.1465   23.8910 C   0  0  0  0  0  0
  -17.6457  -30.6603   24.0570 C   0  0  0  0  0  0
  -25.9051  -34.9459   23.5103 C   0  0  0  0  0  0
  -16.5346  -29.9103   23.6334 C   0  0  0  0  0  0
  -16.7266  -28.6512   23.0370 C   0  0  0  0  0  0
  -26.4482  -31.6623   25.0740 C   0  0  0  0  0  0
  -25.3703  -31.3754   26.1458 C   0  0  0  0  0  0
  -27.0347  -30.3052   24.6216 C   0  0  0  0  0  0
  -27.6046  -32.4365   25.7500 C   0  0  0  0  0  0
  -27.5593  -37.1779   24.8445 C   0  0  0  0  0  0
  -21.4174  -29.3047   22.3703 N   0  0  0  0  0  0
  -26.4284  -37.3796   23.9421 N   0  0  0  0  0  0
  -24.6849  -31.0618   22.0977 N   0  0  0  0  0  0
  -23.4190  -28.8173   23.3039 O   0  0  0  0  0  0
  -28.3730  -26.5277   20.1482 O   0  0  0  0  0  0
  -26.5638  -34.8924   22.4682 O   0  0  0  0  0  0
  -23.5409  -32.1408   23.7350 O   0  0  0  0  0  0
  -29.5056  -18.1006   20.5846 C   0  0  0  0  0  0
  -30.4119  -18.0566   21.6165 C   0  0  0  0  0  0
  -29.4194  -20.6044   20.7008 C   0  0  0  0  0  0
  -28.9884  -19.3522   20.1087 C   0  0  0  0  0  0
  -30.4152  -20.5111   21.7349 C   0  0  0  0  0  0
  -30.9063  -19.2486   22.1853 C   0  0  0  0  0  0
  -29.2234  -16.6501   20.1527 C   0  0  0  0  0  0
  -29.7918  -22.9304   19.4226 C   0  0  0  0  0  0
  -28.1116  -22.8699   21.3346 C   0  0  0  0  0  0
  -29.7447  -24.4662   19.7569 C   0  0  0  0  0  0
  -27.4755  -24.2180   20.8329 C   0  0  0  0  0  0
  -28.8269  -22.0120   20.2425 C   0  0  2  0  0  0
  -30.7305  -16.6108   21.9916 C   0  0  1  0  0  0
  -28.3220  -25.0824   19.8409 C   0  0  1  0  0  0
  -27.9776  -19.3333   18.9732 C   0  0  0  0  0  0
  -30.9896  -21.7497   22.4160 C   0  0  0  0  0  0
  -30.2734  -16.2802   23.4214 C   0  0  0  0  0  0
  -34.1178  -19.2466   23.9184 C   0  0  0  0  0  0
  -33.1722  -19.0216   22.7378 C   0  0  0  0  0  0
  -30.0306  -15.7253   21.0183 N   0  0  0  0  0  0
  -31.8351  -19.1905   23.1931 O   0  0  0  0  0  0
  -31.4608  -12.4825   19.1490 H   0  0  0  0  0  0
  -30.3315  -11.3988   19.9099 H   0  0  0  0  0  0
  -29.7574  -11.7439   17.4817 H   0  0  0  0  0  0
  -29.6391  -13.4681   17.7386 H   0  0  0  0  0  0
  -27.8583  -11.2896   18.8776 H   0  0  0  0  0  0
  -27.3648  -12.5646   17.7967 H   0  0  0  0  0  0
  -27.6541  -14.2508   19.4991 H   0  0  0  0  0  0
  -28.6991  -12.1109   21.4194 H   0  0  0  0  0  0
  -28.4405  -13.7924   21.8097 H   0  0  0  0  0  0
  -25.2765   -9.5686   22.4766 H   0  0  0  0  0  0
  -24.0005   -7.4638   22.7476 H   0  0  0  0  0  0
  -21.0854   -8.8786   19.8948 H   0  0  0  0  0  0
  -22.3710  -10.9685   19.6173 H   0  0  0  0  0  0
  -21.2001   -7.6147   23.9721 H   0  0  0  0  0  0
  -21.1489   -6.0521   25.9084 H   0  0  0  0  0  0
  -22.0593   -2.7615   23.2838 H   0  0  0  0  0  0
  -22.4091  -11.9865   22.4797 H   0  0  0  0  0  0
  -21.1095  -13.1230   22.2628 H   0  0  0  0  0  0
  -24.6568  -15.8462   20.5409 H   0  0  0  0  0  0
  -26.2757  -15.6362   20.1094 H   0  0  0  0  0  0
  -26.7166  -32.5456   23.1105 H   0  0  0  0  0  0
  -24.9982  -33.9734   25.0367 H   0  0  0  0  0  0
  -22.7113  -31.3030   21.4032 H   0  0  0  0  0  0
  -23.3775  -35.9596   23.3248 H   0  0  0  0  0  0
  -24.3558  -36.8989   22.2061 H   0  0  0  0  0  0
  -23.7187  -37.6458   23.6713 H   0  0  0  0  0  0
  -26.0869  -31.5579   20.6041 H   0  0  0  0  0  0
  -26.8375  -30.8413   22.0012 H   0  0  0  0  0  0
  -28.1147  -29.0008   21.1702 H   0  0  0  0  0  0
  -25.9725  -25.9267   19.0103 H   0  0  0  0  0  0
  -23.9648  -27.2919   19.0341 H   0  0  0  0  0  0
  -23.7411  -30.5852   19.4035 H   0  0  0  0  0  0
  -22.7492  -29.2364   19.8696 H   0  0  0  0  0  0
  -25.1285  -36.1939   25.0817 H   0  0  0  0  0  0
  -20.9972  -28.3270   24.1426 H   0  0  0  0  0  0
  -20.5670  -26.2296   23.3623 H   0  0  0  0  0  0
  -21.6631  -26.7443   22.1217 H   0  0  0  0  0  0
  -19.6884  -25.6305   21.1252 H   0  0  0  0  0  0
  -19.6673  -27.3207   20.6765 H   0  0  0  0  0  0
  -17.4187  -26.6721   21.4032 H   0  0  0  0  0  0
  -18.0280  -26.0078   22.9023 H   0  0  0  0  0  0
  -19.7929  -30.7280   24.2288 H   0  0  0  0  0  0
  -17.5012  -31.6279   24.5186 H   0  0  0  0  0  0
  -15.5347  -30.3015   23.7649 H   0  0  0  0  0  0
  -15.8663  -28.0830   22.7098 H   0  0  0  0  0  0
  -24.5873  -30.7125   25.7760 H   0  0  0  0  0  0
  -24.8897  -32.2922   26.4887 H   0  0  0  0  0  0
  -25.8005  -30.8912   27.0234 H   0  0  0  0  0  0
  -26.2944  -29.6778   24.1245 H   0  0  0  0  0  0
  -27.4051  -29.7334   25.4737 H   0  0  0  0  0  0
  -27.8800  -30.4348   23.9450 H   0  0  0  0  0  0
  -27.2680  -33.3687   26.2049 H   0  0  0  0  0  0
  -28.3859  -32.6900   25.0322 H   0  0  0  0  0  0
  -28.0720  -31.8516   26.5428 H   0  0  0  0  0  0
  -28.2554  -38.0138   24.7611 H   0  0  0  0  0  0
  -28.1152  -36.2676   24.6138 H   0  0  0  0  0  0
  -27.2314  -37.1257   25.8842 H   0  0  0  0  0  0
  -20.9347  -29.8764   21.6912 H   0  0  0  0  0  0
  -26.0166  -38.2855   24.1514 H   0  0  0  0  0  0
  -29.4707  -16.5182   19.0976 H   0  0  0  0  0  0
  -28.1626  -16.4350   20.2819 H   0  0  0  0  0  0
  -30.8196  -22.5878   19.5402 H   0  0  0  0  0  0
  -29.5801  -22.7893   18.3616 H   0  0  0  0  0  0
  -27.3344  -22.2685   21.8072 H   0  0  0  0  0  0
  -28.8025  -23.1240   22.1337 H   0  0  0  0  0  0
  -30.3255  -25.0063   19.0083 H   0  0  0  0  0  0
  -30.2552  -24.6426   20.7038 H   0  0  0  0  0  0
  -27.2265  -24.8193   21.7076 H   0  0  0  0  0  0
  -26.5187  -23.9962   20.3589 H   0  0  0  0  0  0
  -28.0173  -21.7945   19.5495 H   0  0  0  0  0  0
  -31.8093  -16.4717   21.9246 H   0  0  0  0  0  0
  -27.9039  -24.9686   18.8399 H   0  0  0  0  0  0
  -27.7770  -18.3251   18.6127 H   0  0  0  0  0  0
  -28.3480  -19.9138   18.1276 H   0  0  0  0  0  0
  -27.0272  -19.7553   19.3002 H   0  0  0  0  0  0
  -30.9850  -22.6301   21.7818 H   0  0  0  0  0  0
  -32.0303  -21.6061   22.7032 H   0  0  0  0  0  0
  -30.4294  -21.9731   23.3235 H   0  0  0  0  0  0
  -29.1996  -16.4308   23.5387 H   0  0  0  0  0  0
  -30.7761  -16.9153   24.1517 H   0  0  0  0  0  0
  -30.4969  -15.2446   23.6809 H   0  0  0  0  0  0
  -35.1567  -19.1162   23.6163 H   0  0  0  0  0  0
  -33.9132  -18.5414   24.7239 H   0  0  0  0  0  0
  -34.0104  -20.2548   24.3195 H   0  0  0  0  0  0
  -33.3248  -18.0223   22.3328 H   0  0  0  0  0  0
  -33.4010  -19.7297   21.9386 H   0  0  0  0  0  0
  1 25  1  0  0  0
  1 30  2  0  0  0
  1 90  1  0  0  0
  2  3  1  0  0  0
  2 25  1  0  0  0
  2 92  1  0  0  0
  2 93  1  0  0  0
  3  4  1  0  0  0
  3 94  1  0  0  0
  3 95  1  0  0  0
  4  5  1  0  0  0
  4 96  1  0  0  0
  4 97  1  0  0  0
  5  6  1  0  0  0
  5 26  1  0  0  0
  5 98  1  0  0  0
  6 25  1  0  0  0
  6 99  1  0  0  0
  6100  1  0  0  0
  7  8  2  0  0  0
  7 26  1  0  0  0
  7 29  1  0  0  0
  8  9  1  0  0  0
  8 22  1  0  0  0
  9 10  1  0  0  0
  9 27  2  0  0  0
 10 11  2  0  0  0
 10 15  1  0  0  0
 11 12  1  0  0  0
 11101  1  0  0  0
 12 13  2  0  0  0
 12102  1  0  0  0
 13 14  1  0  0  0
 13 31  1  0  0  0
 14 15  2  0  0  0
 14103  1  0  0  0
 15104  1  0  0  0
 16 17  2  0  0  0
 16 21  1  0  0  0
 16 31  1  0  0  0
 17 18  1  0  0  0
 17105  1  0  0  0
 18 19  2  0  0  0
 18106  1  0  0  0
 19 20  1  0  0  0
 19 24  1  0  0  0
 20 21  2  0  0  0
 20107  1  0  0  0
 21 23  1  0  0  0
 22 28  1  0  0  0
 22 32  2  0  0  0
 26 27  1  0  0  0
 28108  1  0  0  0
 28109  1  0  0  0
 29110  1  0  0  0
 29111  1  0  0  0
 33 34  1  0  0  0
 33 66  1  0  0  0
 33 70  2  0  0  0
 34 36  1  0  0  0
 34 59  1  0  0  0
 34112  1  0  0  0
 35 44  2  0  0  0
 35 45  1  0  0  0
 35 68  1  0  0  0
 36 56  1  0  0  0
 36113  1  0  0  0
 37 39  1  0  0  0
 37 47  1  0  0  0
 37 66  1  0  0  0
 37114  1  0  0  0
 38 43  2  0  0  0
 38 46  1  0  0  0
 38 47  1  0  0  0
 39 64  1  0  0  0
 39 67  2  0  0  0
 40 52  1  0  0  0
 40 53  2  0  0  0
 40 58  1  0  0  0
 41115  1  0  0  0
 41116  1  0  0  0
 41117  1  0  0  0
 41 48  1  0  0  0
 42 43  1  0  0  0
 42 66  1  0  0  0
 42118  1  0  0  0
 42119  1  0  0  0
 43 44  1  0  0  0
 44120  1  0  0  0
 45 46  2  0  0  0
 45121  1  0  0  0
 46122  1  0  0  0
 47123  1  0  0  0
 47124  1  0  0  0
 48 56  1  0  0  0
 48 65  1  0  0  0
 48125  1  0  0  0
 49 50  1  0  0  0
 49 53  1  0  0  0
 49 64  1  0  0  0
 49126  1  0  0  0
 50 51  1  0  0  0
 50127  1  0  0  0
 50128  1  0  0  0
 51 52  1  0  0  0
 51129  1  0  0  0
 51130  1  0  0  0
 52131  1  0  0  0
 52132  1  0  0  0
 53 54  1  0  0  0
 54 55  2  0  0  0
 54133  1  0  0  0
 55 57  1  0  0  0
 55134  1  0  0  0
 56 69  2  0  0  0
 57 58  2  0  0  0
 57135  1  0  0  0
 58136  1  0  0  0
 59 60  1  0  0  0
 59 61  1  0  0  0
 59 62  1  0  0  0
 60137  1  0  0  0
 60138  1  0  0  0
 60139  1  0  0  0
 61140  1  0  0  0
 61141  1  0  0  0
 61142  1  0  0  0
 62143  1  0  0  0
 62144  1  0  0  0
 62145  1  0  0  0
 63 65  1  0  0  0
 63146  1  0  0  0
 63147  1  0  0  0
 63148  1  0  0  0
 64149  1  0  0  0
 65150  1  0  0  0
 68 84  1  0  0  0
 71 72  1  0  0  0
 71 74  2  0  0  0
 71 77  1  0  0  0
 72 76  2  0  0  0
 72 83  1  0  0  0
 73 74  1  0  0  0
 73 75  2  0  0  0
 73 82  1  0  0  0
 74 85  1  0  0  0
 75 76  1  0  0  0
 75 86  1  0  0  0
 76 91  1  0  0  0
 77 90  1  0  0  0
 77151  1  0  0  0
 77152  1  0  0  0
 78 80  1  0  0  0
 78 82  1  0  0  0
 78153  1  0  0  0
 78154  1  0  0  0
 79 81  1  0  0  0
 79 82  1  0  0  0
 79155  1  0  0  0
 79156  1  0  0  0
 80 84  1  0  0  0
 80157  1  0  0  0
 80158  1  0  0  0
 81 84  1  0  0  0
 81159  1  0  0  0
 81160  1  0  0  0
 82161  1  0  0  0
 83 87  1  0  0  0
 83 90  1  0  0  0
 83162  1  0  0  0
 84163  1  0  0  0
 85164  1  0  0  0
 85165  1  0  0  0
 85166  1  0  0  0
 86167  1  0  0  0
 86168  1  0  0  0
 86169  1  0  0  0
 87170  1  0  0  0
 87171  1  0  0  0
 87172  1  0  0  0
 88 89  1  0  0  0
 88173  1  0  0  0
 88174  1  0  0  0
 88175  1  0  0  0
 89 91  1  0  0  0
 89176  1  0  0  0
 89177  1  0  0  0
M  ISO  4   1 100  68 101  84 101  90 100
M  END
> <chiral flag>
0

> <version>
0

> <s_m_source_file>
/data/baiqing/PycharmProjects/Reinvent-master-3.2/result/LINK_invent/BTK/process_docking_weight1_custom_sum_contain_oxygen_bond_distance_aromatic_linkinvent_7_9_3/rearranged_h_0158.sdf

> <i_m_source_file_index>
27

> <r_mmod_Potential_Energy-OPLS-2005>
242.048233032227

> <r_mmod_Stretch_Energy-OPLS-2005>
86.8328857421875

> <r_mmod_Bend_Energy-OPLS-2005>
181.744384765625

> <r_mmod_Torsional_Energy-OPLS-2005>
337.342590332031

> <r_mmod_Improper_Torsional_Energy-OPLS-2005>
5.92251539230347

> <r_mmod_Van_der_Waal_Energy-OPLS-2005>
143.025390625

> <r_mmod_Electrostatic_Energy-OPLS-2005>
-363.480590820312

> <r_mmod_Solvation_Energy-OPLS-2005>
-191.201416015625

> <b_mmod_Minimization_Converged-OPLS-2005>
0

> <r_mmod_RMS_Derivative-OPLS-2005>
1.36664545536041

$$$$
27
                    3D
 Structure written by MMmdl.
162171  0  0  1  0            999 V2000
  -30.6108  -14.8650   20.4489 C   0  0  0  0  0  0
  -30.4190  -12.5464   19.4865 C   0  0  0  0  0  0
  -29.5042  -12.5238   18.2454 C   0  0  0  0  0  0
  -28.0341  -12.3241   18.6621 C   0  0  0  0  0  0
  -27.6247  -13.2449   19.8427 C   0  0  2  0  0  0
  -28.6716  -13.2347   20.9769 C   0  0  0  0  0  0
  -25.2411  -13.8226   20.5695 C   0  0  0  0  0  0
  -24.1735  -13.0444   20.9246 C   0  0  0  0  0  0
  -24.6358  -11.6938   20.8783 C   0  0  0  0  0  0
  -23.9053  -10.4307   21.0434 C   0  0  0  0  0  0
  -24.3605   -9.4213   21.9193 C   0  0  0  0  0  0
  -23.6285   -8.2243   22.0753 C   0  0  0  0  0  0
  -22.4267   -8.0287   21.3546 C   0  0  0  0  0  0
  -21.9904   -9.0264   20.4654 C   0  0  0  0  0  0
  -22.7232  -10.2145   20.3079 C   0  0  0  0  0  0
  -21.6847   -6.0753   22.5281 C   0  0  0  0  0  0
  -21.4011   -6.5659   23.8217 C   0  0  0  0  0  0
  -21.3652   -5.6805   24.9174 C   0  0  0  0  0  0
  -21.6036   -4.3069   24.7220 C   0  0  0  0  0  0
  -21.8816   -3.8162   23.4346 C   0  0  0  0  0  0
  -21.9193   -4.6981   22.3403 C   0  0  0  0  0  0
  -22.7763  -13.5223   21.1893 C   0  0  0  0  0  0
  -22.1661   -4.2172   21.0975 F   0  0  0  0  0  0
  -21.5617   -3.4550   25.7732 F   0  0  0  0  0  0
  -29.9386  -13.6497   20.3657 N   0  0  0  0  0  0
  -26.2842  -12.9450   20.3283 N   0  0  0  0  0  0
  -25.9291  -11.6581   20.5793 N   0  0  0  0  0  0
  -22.0412  -12.8219   22.0462 N   0  0  0  0  0  0
  -25.4040  -15.1934   20.4026 N   0  0  0  0  0  0
  -31.8202  -14.8285   20.1924 O   0  0  0  0  0  0
  -21.6630   -6.8889   21.4245 O   0  0  0  0  0  0
  -22.3447  -14.5525   20.6745 O   0  0  0  0  0  0
  -24.6390  -31.8477   23.1911 C   0  0  0  0  0  0
  -25.9184  -32.4711   23.8276 C   0  0  1  0  0  0
  -27.2088  -27.1673   20.1388 C   0  0  0  0  0  0
  -25.5938  -33.8516   24.2197 N   0  0  0  0  0  0
  -23.4391  -30.4674   21.5354 C   0  0  2  0  0  0
  -24.8894  -28.9013   20.1046 C   0  0  0  0  0  0
  -22.7508  -29.4554   22.4857 C   0  0  0  0  0  0
  -18.0279  -28.1383   22.8478 C   0  0  0  0  0  0
  -24.1497  -36.7249   23.2632 C   0  0  0  0  0  0
  -25.9927  -30.7300   21.3858 C   0  0  0  0  0  0
  -26.0611  -29.3430   20.7304 C   0  0  0  0  0  0
  -27.2192  -28.4850   20.7398 C   0  0  0  0  0  0
  -26.0177  -26.8266   19.4613 C   0  0  0  0  0  0
  -24.8804  -27.6589   19.4543 C   0  0  0  0  0  0
  -23.6631  -29.7963   20.1534 C   0  0  0  0  0  0
  -25.4128  -36.3021   24.0304 C   0  0  1  0  0  0
  -20.5879  -28.3717   23.1234 C   0  0  2  0  0  0
  -20.6775  -26.9420   22.5394 C   0  0  0  0  0  0
  -19.5765  -26.6378   21.5194 C   0  0  0  0  0  0
  -18.1935  -26.7919   22.1607 C   0  0  0  0  0  0
  -19.1522  -28.8863   23.2859 C   0  0  0  0  0  0
  -18.9457  -30.1456   23.8901 C   0  0  0  0  0  0
  -17.6464  -30.6593   24.0556 C   0  0  0  0  0  0
  -25.9072  -34.9404   23.5048 C   0  0  0  0  0  0
  -16.5355  -29.9096   23.6330 C   0  0  0  0  0  0
  -16.7262  -28.6496   23.0373 C   0  0  0  0  0  0
  -26.4535  -31.6567   25.0701 C   0  0  0  0  0  0
  -25.3711  -31.3794   26.1394 C   0  0  0  0  0  0
  -27.0398  -30.2963   24.6251 C   0  0  0  0  0  0
  -27.6066  -32.4332   25.7496 C   0  0  0  0  0  0
  -27.5567  -37.1785   24.8455 C   0  0  0  0  0  0
  -21.4192  -29.3059   22.3611 N   0  0  0  0  0  0
  -26.4276  -37.3742   23.9399 N   0  0  0  0  0  0
  -24.7097  -31.0352   22.0932 N   0  0  0  0  0  0
  -23.4171  -28.8074   23.2965 O   0  0  0  0  0  0
  -28.2780  -26.2195   20.2532 O   0  0  0  0  0  0
  -26.5646  -34.8897   22.4624 O   0  0  0  0  0  0
  -23.5527  -32.1333   23.7163 O   0  0  0  0  0  0
  -28.7245  -22.0490   20.2683 C   0  0  0  0  0  0
  -28.6420  -20.8508   21.1295 C   0  0  0  0  0  0
  -28.2711  -23.4084   20.6662 C   0  0  0  0  0  0
  -28.0721  -21.1571   22.3989 C   0  0  0  0  0  0
  -27.7147  -23.4522   21.9606 C   0  0  0  0  0  0
  -28.1855  -18.0805   20.9871 C   0  0  0  0  0  0
  -30.0812  -18.8113   19.7493 C   0  0  0  0  0  0
  -28.8044  -16.6205   21.2491 C   0  0  0  0  0  0
  -30.7526  -17.3582   19.9490 C   0  0  0  0  0  0
  -29.1838  -19.3016   20.9214 C   0  0  0  0  0  0
  -27.8950  -20.1455   23.5233 C   0  0  0  0  0  0
  -27.1342  -24.7176   22.5644 C   0  0  0  0  0  0
  -28.2814  -24.7597   19.7421 C   0  0  0  0  0  0
  -27.6318  -22.3782   22.7688 N   0  0  0  0  0  0
  -29.9692  -16.1459   20.4309 N   0  0  0  0  0  0
  -31.4564  -12.6755   19.1760 H   0  0  0  0  0  0
  -30.3882  -11.5897   20.0124 H   0  0  0  0  0  0
  -29.8138  -11.7367   17.5582 H   0  0  0  0  0  0
  -29.6032  -13.4661   17.7035 H   0  0  0  0  0  0
  -27.9126  -11.2786   18.9493 H   0  0  0  0  0  0
  -27.3730  -12.4819   17.8091 H   0  0  0  0  0  0
  -27.5968  -14.2542   19.4320 H   0  0  0  0  0  0
  -28.7536  -12.2398   21.4163 H   0  0  0  0  0  0
  -28.3911  -13.8934   21.7974 H   0  0  0  0  0  0
  -25.2736   -9.5705   22.4778 H   0  0  0  0  0  0
  -24.0001   -7.4642   22.7469 H   0  0  0  0  0  0
  -21.0841   -8.8801   19.8955 H   0  0  0  0  0  0
  -22.3683  -10.9701   19.6212 H   0  0  0  0  0  0
  -21.2004   -7.6165   23.9734 H   0  0  0  0  0  0
  -21.1468   -6.0528   25.9082 H   0  0  0  0  0  0
  -22.0596   -2.7628   23.2837 H   0  0  0  0  0  0
  -22.3998  -11.9869   22.4848 H   0  0  0  0  0  0
  -21.1052  -13.1296   22.2687 H   0  0  0  0  0  0
  -24.6303  -15.8422   20.5001 H   0  0  0  0  0  0
  -26.2468  -15.6303   20.0518 H   0  0  0  0  0  0
  -26.7243  -32.5350   23.1003 H   0  0  0  0  0  0
  -25.0097  -33.9663   25.0350 H   0  0  0  0  0  0
  -22.7402  -31.2923   21.3810 H   0  0  0  0  0  0
  -23.3750  -35.9588   23.3290 H   0  0  0  0  0  0
  -24.3566  -36.8895   22.2042 H   0  0  0  0  0  0
  -23.7283  -37.6453   23.6692 H   0  0  0  0  0  0
  -26.1382  -31.4854   20.6127 H   0  0  0  0  0  0
  -26.8695  -30.7866   22.0196 H   0  0  0  0  0  0
  -28.1079  -28.8054   21.2672 H   0  0  0  0  0  0
  -25.9179  -25.8847   18.9466 H   0  0  0  0  0  0
  -23.9883  -27.3280   18.9393 H   0  0  0  0  0  0
  -23.7905  -30.5698   19.3963 H   0  0  0  0  0  0
  -22.7833  -29.2289   19.8456 H   0  0  0  0  0  0
  -25.1333  -36.1822   25.0797 H   0  0  0  0  0  0
  -20.9988  -28.3316   24.1347 H   0  0  0  0  0  0
  -20.5650  -26.2317   23.3606 H   0  0  0  0  0  0
  -21.6645  -26.7436   22.1196 H   0  0  0  0  0  0
  -19.6933  -25.6283   21.1250 H   0  0  0  0  0  0
  -19.6709  -27.3165   20.6707 H   0  0  0  0  0  0
  -17.4191  -26.6631   21.4026 H   0  0  0  0  0  0
  -18.0370  -26.0074   22.9018 H   0  0  0  0  0  0
  -19.7936  -30.7247   24.2293 H   0  0  0  0  0  0
  -17.5030  -31.6277   24.5148 H   0  0  0  0  0  0
  -15.5358  -30.3015   23.7669 H   0  0  0  0  0  0
  -15.8642  -28.0819   22.7139 H   0  0  0  0  0  0
  -24.5878  -30.7158   25.7706 H   0  0  0  0  0  0
  -24.8914  -32.3007   26.4718 H   0  0  0  0  0  0
  -25.7953  -30.9025   27.0232 H   0  0  0  0  0  0
  -26.3011  -29.6701   24.1225 H   0  0  0  0  0  0
  -27.3999  -29.7242   25.4811 H   0  0  0  0  0  0
  -27.8928  -30.4213   23.9574 H   0  0  0  0  0  0
  -27.2653  -33.3650   26.2037 H   0  0  0  0  0  0
  -28.3919  -32.6869   25.0352 H   0  0  0  0  0  0
  -28.0692  -31.8475   26.5458 H   0  0  0  0  0  0
  -28.2573  -38.0091   24.7488 H   0  0  0  0  0  0
  -28.1077  -36.2608   24.6305 H   0  0  0  0  0  0
  -27.2267  -37.1463   25.8855 H   0  0  0  0  0  0
  -20.9376  -29.8764   21.6795 H   0  0  0  0  0  0
  -26.0121  -38.2797   24.1420 H   0  0  0  0  0  0
  -29.1543  -21.9245   19.2855 H   0  0  0  0  0  0
  -27.4367  -18.2429   21.7563 H   0  0  0  0  0  0
  -27.6047  -18.0524   20.0628 H   0  0  0  0  0  0
  -30.8846  -19.5323   19.5946 H   0  0  0  0  0  0
  -29.5053  -18.8181   18.8228 H   0  0  0  0  0  0
  -29.1098  -16.5624   22.2936 H   0  0  0  0  0  0
  -27.9888  -15.9094   21.1431 H   0  0  0  0  0  0
  -31.2241  -17.0905   19.0008 H   0  0  0  0  0  0
  -31.5836  -17.4867   20.6462 H   0  0  0  0  0  0
  -29.8472  -19.1859   21.7776 H   0  0  0  0  0  0
  -27.8752  -20.6477   24.4918 H   0  0  0  0  0  0
  -28.6968  -19.4101   23.5849 H   0  0  0  0  0  0
  -26.9387  -19.6328   23.4232 H   0  0  0  0  0  0
  -26.3543  -25.1308   21.9236 H   0  0  0  0  0  0
  -27.9137  -25.4645   22.7081 H   0  0  0  0  0  0
  -26.6881  -24.5331   23.5417 H   0  0  0  0  0  0
  -27.5380  -24.6185   18.9620 H   0  0  0  0  0  0
  -29.2175  -24.6892   19.1899 H   0  0  0  0  0  0
  1 25  1  0  0  0
  1 30  2  0  0  0
  1 85  1  0  0  0
  2  3  1  0  0  0
  2 25  1  0  0  0
  2 86  1  0  0  0
  2 87  1  0  0  0
  3  4  1  0  0  0
  3 88  1  0  0  0
  3 89  1  0  0  0
  4  5  1  0  0  0
  4 90  1  0  0  0
  4 91  1  0  0  0
  5  6  1  0  0  0
  5 26  1  0  0  0
  5 92  1  0  0  0
  6 25  1  0  0  0
  6 93  1  0  0  0
  6 94  1  0  0  0
  7  8  2  0  0  0
  7 26  1  0  0  0
  7 29  1  0  0  0
  8  9  1  0  0  0
  8 22  1  0  0  0
  9 10  1  0  0  0
  9 27  2  0  0  0
 10 11  2  0  0  0
 10 15  1  0  0  0
 11 12  1  0  0  0
 11 95  1  0  0  0
 12 13  2  0  0  0
 12 96  1  0  0  0
 13 14  1  0  0  0
 13 31  1  0  0  0
 14 15  2  0  0  0
 14 97  1  0  0  0
 15 98  1  0  0  0
 16 17  2  0  0  0
 16 21  1  0  0  0
 16 31  1  0  0  0
 17 18  1  0  0  0
 17 99  1  0  0  0
 18 19  2  0  0  0
 18100  1  0  0  0
 19 20  1  0  0  0
 19 24  1  0  0  0
 20 21  2  0  0  0
 20101  1  0  0  0
 21 23  1  0  0  0
 22 28  1  0  0  0
 22 32  2  0  0  0
 26 27  1  0  0  0
 28102  1  0  0  0
 28103  1  0  0  0
 29104  1  0  0  0
 29105  1  0  0  0
 33 34  1  0  0  0
 33 66  1  0  0  0
 33 70  2  0  0  0
 34 36  1  0  0  0
 34 59  1  0  0  0
 34106  1  0  0  0
 35 44  2  0  0  0
 35 45  1  0  0  0
 35 68  1  0  0  0
 36 56  1  0  0  0
 36107  1  0  0  0
 37 39  1  0  0  0
 37 47  1  0  0  0
 37 66  1  0  0  0
 37108  1  0  0  0
 38 43  2  0  0  0
 38 46  1  0  0  0
 38 47  1  0  0  0
 39 64  1  0  0  0
 39 67  2  0  0  0
 40 52  1  0  0  0
 40 53  2  0  0  0
 40 58  1  0  0  0
 41109  1  0  0  0
 41110  1  0  0  0
 41111  1  0  0  0
 41 48  1  0  0  0
 42 43  1  0  0  0
 42 66  1  0  0  0
 42112  1  0  0  0
 42113  1  0  0  0
 43 44  1  0  0  0
 44114  1  0  0  0
 45 46  2  0  0  0
 45115  1  0  0  0
 46116  1  0  0  0
 47117  1  0  0  0
 47118  1  0  0  0
 48 56  1  0  0  0
 48 65  1  0  0  0
 48119  1  0  0  0
 49 50  1  0  0  0
 49 53  1  0  0  0
 49 64  1  0  0  0
 49120  1  0  0  0
 50 51  1  0  0  0
 50121  1  0  0  0
 50122  1  0  0  0
 51 52  1  0  0  0
 51123  1  0  0  0
 51124  1  0  0  0
 52125  1  0  0  0
 52126  1  0  0  0
 53 54  1  0  0  0
 54 55  2  0  0  0
 54127  1  0  0  0
 55 57  1  0  0  0
 55128  1  0  0  0
 56 69  2  0  0  0
 57 58  2  0  0  0
 57129  1  0  0  0
 58130  1  0  0  0
 59 60  1  0  0  0
 59 61  1  0  0  0
 59 62  1  0  0  0
 60131  1  0  0  0
 60132  1  0  0  0
 60133  1  0  0  0
 61134  1  0  0  0
 61135  1  0  0  0
 61136  1  0  0  0
 62137  1  0  0  0
 62138  1  0  0  0
 62139  1  0  0  0
 63 65  1  0  0  0
 63140  1  0  0  0
 63141  1  0  0  0
 63142  1  0  0  0
 64143  1  0  0  0
 65144  1  0  0  0
 68 83  1  0  0  0
 71 72  2  0  0  0
 71 73  1  0  0  0
 71145  1  0  0  0
 72 74  1  0  0  0
 72 80  1  0  0  0
 73 75  2  0  0  0
 73 83  1  0  0  0
 74 81  1  0  0  0
 74 84  2  0  0  0
 75 82  1  0  0  0
 75 84  1  0  0  0
 76 78  1  0  0  0
 76 80  1  0  0  0
 76146  1  0  0  0
 76147  1  0  0  0
 77 79  1  0  0  0
 77 80  1  0  0  0
 77148  1  0  0  0
 77149  1  0  0  0
 78 85  1  0  0  0
 78150  1  0  0  0
 78151  1  0  0  0
 79 85  1  0  0  0
 79152  1  0  0  0
 79153  1  0  0  0
 80154  1  0  0  0
 81155  1  0  0  0
 81156  1  0  0  0
 81157  1  0  0  0
 82158  1  0  0  0
 82159  1  0  0  0
 82160  1  0  0  0
 83161  1  0  0  0
 83162  1  0  0  0
M  ISO  4   1 100  68 101  83 101  85 100
M  END
> <chiral flag>
0

> <version>
0

> <s_m_source_file>
/data/baiqing/PycharmProjects/Reinvent-master-3.2/result/LINK_invent/BTK/process_docking_weight1_custom_sum_contain_oxygen_bond_distance_aromatic_linkinvent_7_9_3/rearranged_h_0158.sdf

> <i_m_source_file_index>
28

> <r_mmod_Potential_Energy-OPLS-2005>
473.981231689453

> <r_mmod_Stretch_Energy-OPLS-2005>
207.45426940918

> <r_mmod_Bend_Energy-OPLS-2005>
288.071868896484

> <r_mmod_Torsional_Energy-OPLS-2005>
306.188903808594

> <r_mmod_Improper_Torsional_Energy-OPLS-2005>
12.3328924179077

> <r_mmod_Van_der_Waal_Energy-OPLS-2005>
146.062530517578

> <r_mmod_Electrostatic_Energy-OPLS-2005>
-426.037139892578

> <r_mmod_Solvation_Energy-OPLS-2005>
-209.976699829102

> <b_mmod_Minimization_Converged-OPLS-2005>
0

> <r_mmod_RMS_Derivative-OPLS-2005>
3.0556972026825

$$$$
28
                    3D
 Structure written by MMmdl.
168177  0  0  1  0            999 V2000
  -30.6842  -14.7809   20.4473 C   0  0  0  0  0  0
  -30.4101  -12.4876   19.4793 C   0  0  0  0  0  0
  -29.4985  -12.5013   18.2368 C   0  0  0  0  0  0
  -28.0304  -12.3111   18.6566 C   0  0  0  0  0  0
  -27.6282  -13.2324   19.8377 C   0  0  2  0  0  0
  -28.6791  -13.2414   20.9731 C   0  0  0  0  0  0
  -25.2451  -13.8181   20.5693 C   0  0  0  0  0  0
  -24.1764  -13.0425   20.9236 C   0  0  0  0  0  0
  -24.6369  -11.6908   20.8776 C   0  0  0  0  0  0
  -23.9053  -10.4285   21.0421 C   0  0  0  0  0  0
  -24.3610   -9.4203   21.9197 C   0  0  0  0  0  0
  -23.6292   -8.2232   22.0753 C   0  0  0  0  0  0
  -22.4278   -8.0267   21.3536 C   0  0  0  0  0  0
  -21.9911   -9.0243   20.4641 C   0  0  0  0  0  0
  -22.7230  -10.2127   20.3063 C   0  0  0  0  0  0
  -21.6847   -6.0728   22.5281 C   0  0  0  0  0  0
  -21.4005   -6.5634   23.8215 C   0  0  0  0  0  0
  -21.3661   -5.6787   24.9178 C   0  0  0  0  0  0
  -21.6051   -4.3051   24.7223 C   0  0  0  0  0  0
  -21.8819   -3.8140   23.4343 C   0  0  0  0  0  0
  -21.9188   -4.6956   22.3403 C   0  0  0  0  0  0
  -22.7791  -13.5219   21.1877 C   0  0  0  0  0  0
  -22.1662   -4.2143   21.0979 F   0  0  0  0  0  0
  -21.5632   -3.4536   25.7734 F   0  0  0  0  0  0
  -29.9667  -13.5970   20.3667 N   0  0  0  0  0  0
  -26.2872  -12.9390   20.3268 N   0  0  0  0  0  0
  -25.9301  -11.6536   20.5789 N   0  0  0  0  0  0
  -22.0418  -12.8228   22.0427 N   0  0  0  0  0  0
  -25.4086  -15.1898   20.4046 N   0  0  0  0  0  0
  -31.8889  -14.7184   20.1822 O   0  0  0  0  0  0
  -21.6636   -6.8870   21.4241 O   0  0  0  0  0  0
  -22.3494  -14.5528   20.6711 O   0  0  0  0  0  0
  -24.6328  -31.8542   23.1994 C   0  0  0  0  0  0
  -25.9155  -32.4741   23.8336 C   0  0  1  0  0  0
  -27.2067  -27.2496   20.1394 C   0  0  0  0  0  0
  -25.5941  -33.8548   24.2248 N   0  0  0  0  0  0
  -23.4305  -30.4786   21.5423 C   0  0  2  0  0  0
  -24.8794  -28.9308   20.1048 C   0  0  0  0  0  0
  -22.7516  -29.4601   22.4903 C   0  0  0  0  0  0
  -18.0292  -28.1388   22.8480 C   0  0  0  0  0  0
  -24.1492  -36.7283   23.2638 C   0  0  0  0  0  0
  -25.9788  -30.7633   21.3846 C   0  0  0  0  0  0
  -26.0520  -29.3872   20.7230 C   0  0  0  0  0  0
  -27.2237  -28.5590   20.7312 C   0  0  0  0  0  0
  -26.0241  -26.8780   19.4663 C   0  0  0  0  0  0
  -24.8720  -27.6846   19.4620 C   0  0  0  0  0  0
  -23.6498  -29.8169   20.1568 C   0  0  0  0  0  0
  -25.4119  -36.3058   24.0322 C   0  0  1  0  0  0
  -20.5899  -28.3703   23.1260 C   0  0  2  0  0  0
  -20.6784  -26.9418   22.5407 C   0  0  0  0  0  0
  -19.5758  -26.6383   21.5211 C   0  0  0  0  0  0
  -18.1938  -26.7934   22.1619 C   0  0  0  0  0  0
  -19.1548  -28.8866   23.2863 C   0  0  0  0  0  0
  -18.9465  -30.1465   23.8877 C   0  0  0  0  0  0
  -17.6465  -30.6589   24.0558 C   0  0  0  0  0  0
  -25.9062  -34.9430   23.5084 C   0  0  0  0  0  0
  -16.5354  -29.9079   23.6337 C   0  0  0  0  0  0
  -16.7280  -28.6500   23.0356 C   0  0  0  0  0  0
  -26.4518  -31.6575   25.0738 C   0  0  0  0  0  0
  -25.3735  -31.3729   26.1453 C   0  0  0  0  0  0
  -27.0381  -30.2982   24.6265 C   0  0  0  0  0  0
  -27.6051  -32.4340   25.7518 C   0  0  0  0  0  0
  -27.5582  -37.1794   24.8460 C   0  0  0  0  0  0
  -21.4220  -29.3044   22.3646 N   0  0  0  0  0  0
  -26.4286  -37.3766   23.9409 N   0  0  0  0  0  0
  -24.6993  -31.0501   22.0977 N   0  0  0  0  0  0
  -23.4211  -28.8142   23.3006 O   0  0  0  0  0  0
  -28.2321  -26.2760   20.2143 O   0  0  0  0  0  0
  -26.5639  -34.8903   22.4654 O   0  0  0  0  0  0
  -23.5476  -32.1371   23.7284 O   0  0  0  0  0  0
  -29.1524  -22.9425   19.7393 C   0  0  0  0  0  0
  -27.9663  -22.5309   21.7906 C   0  0  0  0  0  0
  -28.3714  -23.4977   20.8020 C   0  0  0  0  0  0
  -29.4632  -21.5213   19.6577 C   0  0  0  0  0  0
  -28.3326  -21.1299   21.7456 C   0  0  0  0  0  0
  -29.0681  -20.5581   20.6549 C   0  0  0  0  0  0
  -30.5409  -18.6024   21.3093 C   0  0  0  0  0  0
  -28.3517  -18.0913   20.4606 C   0  0  0  0  0  0
  -31.0754  -17.2153   20.7960 C   0  0  0  0  0  0
  -28.7820  -16.5570   20.2573 C   0  0  0  0  0  0
  -29.6459  -23.8942   18.6549 C   0  0  0  0  0  0
  -27.0943  -23.0099   22.9618 C   0  0  0  0  0  0
  -30.2471  -21.0173   18.4465 C   0  0  0  0  0  0
  -27.9101  -20.2421   22.9185 C   0  0  0  0  0  0
  -27.8270  -25.0205   20.9456 C   0  0  0  0  0  0
  -29.4057  -19.1311   20.5435 N   0  0  0  0  0  0
  -30.1273  -16.0589   20.6790 N   0  0  0  0  0  0
  -31.4524  -12.5747   19.1683 H   0  0  0  0  0  0
  -30.3417  -11.5295   19.9977 H   0  0  0  0  0  0
  -29.7944  -11.7172   17.5384 H   0  0  0  0  0  0
  -29.6127  -13.4467   17.7049 H   0  0  0  0  0  0
  -27.9026  -11.2665   18.9423 H   0  0  0  0  0  0
  -27.3681  -12.4765   17.8056 H   0  0  0  0  0  0
  -27.5925  -14.2293   19.4054 H   0  0  0  0  0  0
  -28.7385  -12.2658   21.4585 H   0  0  0  0  0  0
  -28.4118  -13.9526   21.7547 H   0  0  0  0  0  0
  -25.2740   -9.5690   22.4793 H   0  0  0  0  0  0
  -23.9991   -7.4626   22.7483 H   0  0  0  0  0  0
  -21.0835   -8.8772   19.8957 H   0  0  0  0  0  0
  -22.3681  -10.9678   19.6188 H   0  0  0  0  0  0
  -21.2000   -7.6141   23.9718 H   0  0  0  0  0  0
  -21.1486   -6.0514   25.9084 H   0  0  0  0  0  0
  -22.0598   -2.7600   23.2839 H   0  0  0  0  0  0
  -22.3998  -11.9885   22.4832 H   0  0  0  0  0  0
  -21.1039  -13.1283   22.2613 H   0  0  0  0  0  0
  -24.6362  -15.8378   20.5138 H   0  0  0  0  0  0
  -26.2446  -15.6265   20.0419 H   0  0  0  0  0  0
  -26.7225  -32.5386   23.1076 H   0  0  0  0  0  0
  -25.0070  -33.9681   25.0383 H   0  0  0  0  0  0
  -22.7266  -31.3010   21.3978 H   0  0  0  0  0  0
  -23.3753  -35.9616   23.3283 H   0  0  0  0  0  0
  -24.3580  -36.8932   22.2056 H   0  0  0  0  0  0
  -23.7248  -37.6477   23.6682 H   0  0  0  0  0  0
  -26.1256  -31.5261   20.6187 H   0  0  0  0  0  0
  -26.8530  -30.8058   22.0228 H   0  0  0  0  0  0
  -28.1151  -28.8950   21.2426 H   0  0  0  0  0  0
  -25.9726  -25.9176   18.9718 H   0  0  0  0  0  0
  -23.9779  -27.3331   18.9649 H   0  0  0  0  0  0
  -23.7716  -30.5949   19.4025 H   0  0  0  0  0  0
  -22.7680  -29.2505   19.8517 H   0  0  0  0  0  0
  -25.1301  -36.1896   25.0816 H   0  0  0  0  0  0
  -20.9989  -28.3284   24.1382 H   0  0  0  0  0  0
  -20.5688  -26.2311   23.3615 H   0  0  0  0  0  0
  -21.6649  -26.7447   22.1192 H   0  0  0  0  0  0
  -19.6917  -25.6292   21.1249 H   0  0  0  0  0  0
  -19.6695  -27.3185   20.6734 H   0  0  0  0  0  0
  -17.4213  -26.6687   21.4016 H   0  0  0  0  0  0
  -18.0326  -26.0073   22.9008 H   0  0  0  0  0  0
  -19.7942  -30.7291   24.2232 H   0  0  0  0  0  0
  -17.5017  -31.6267   24.5158 H   0  0  0  0  0  0
  -15.5355  -30.2971   23.7676 H   0  0  0  0  0  0
  -15.8679  -28.0813   22.7079 H   0  0  0  0  0  0
  -24.5898  -30.7095   25.7777 H   0  0  0  0  0  0
  -24.8945  -32.2901   26.4890 H   0  0  0  0  0  0
  -25.8048  -30.8889   27.0227 H   0  0  0  0  0  0
  -26.2983  -29.6710   24.1273 H   0  0  0  0  0  0
  -27.4019  -29.7269   25.4819 H   0  0  0  0  0  0
  -27.8883  -30.4237   23.9552 H   0  0  0  0  0  0
  -27.2628  -33.3635   26.2083 H   0  0  0  0  0  0
  -28.3866  -32.6921   25.0357 H   0  0  0  0  0  0
  -28.0718  -31.8485   26.5450 H   0  0  0  0  0  0
  -28.2580  -38.0109   24.7519 H   0  0  0  0  0  0
  -28.1092  -36.2637   24.6261 H   0  0  0  0  0  0
  -27.2298  -37.1413   25.8861 H   0  0  0  0  0  0
  -20.9412  -29.8753   21.6834 H   0  0  0  0  0  0
  -26.0157  -38.2836   24.1415 H   0  0  0  0  0  0
  -31.3518  -19.3320   21.2764 H   0  0  0  0  0  0
  -30.2776  -18.5018   22.3610 H   0  0  0  0  0  0
  -27.7446  -18.1359   21.3623 H   0  0  0  0  0  0
  -27.6655  -18.3693   19.6589 H   0  0  0  0  0  0
  -31.8930  -16.9276   21.4600 H   0  0  0  0  0  0
  -31.5314  -17.3687   19.8161 H   0  0  0  0  0  0
  -28.6942  -16.3290   19.1935 H   0  0  0  0  0  0
  -28.0302  -15.9552   20.7605 H   0  0  0  0  0  0
  -29.8494  -24.8839   19.0573 H   0  0  0  0  0  0
  -28.8999  -23.9929   17.8665 H   0  0  0  0  0  0
  -30.5842  -23.5717   18.2064 H   0  0  0  0  0  0
  -26.4023  -23.8049   22.6940 H   0  0  0  0  0  0
  -27.7224  -23.3707   23.7768 H   0  0  0  0  0  0
  -26.4418  -22.2340   23.3568 H   0  0  0  0  0  0
  -29.8871  -21.4773   17.5265 H   0  0  0  0  0  0
  -30.1604  -19.9426   18.2945 H   0  0  0  0  0  0
  -31.3053  -21.2510   18.5615 H   0  0  0  0  0  0
  -28.0617  -20.7478   23.8718 H   0  0  0  0  0  0
  -28.4760  -19.3222   23.0051 H   0  0  0  0  0  0
  -26.8573  -19.9724   22.8275 H   0  0  0  0  0  0
  -27.9960  -25.2944   21.9877 H   0  0  0  0  0  0
  -26.7481  -24.9043   20.8562 H   0  0  0  0  0  0
  1 25  1  0  0  0
  1 30  2  0  0  0
  1 87  1  0  0  0
  2  3  1  0  0  0
  2 25  1  0  0  0
  2 88  1  0  0  0
  2 89  1  0  0  0
  3  4  1  0  0  0
  3 90  1  0  0  0
  3 91  1  0  0  0
  4  5  1  0  0  0
  4 92  1  0  0  0
  4 93  1  0  0  0
  5  6  1  0  0  0
  5 26  1  0  0  0
  5 94  1  0  0  0
  6 25  1  0  0  0
  6 95  1  0  0  0
  6 96  1  0  0  0
  7  8  2  0  0  0
  7 26  1  0  0  0
  7 29  1  0  0  0
  8  9  1  0  0  0
  8 22  1  0  0  0
  9 10  1  0  0  0
  9 27  2  0  0  0
 10 11  2  0  0  0
 10 15  1  0  0  0
 11 12  1  0  0  0
 11 97  1  0  0  0
 12 13  2  0  0  0
 12 98  1  0  0  0
 13 14  1  0  0  0
 13 31  1  0  0  0
 14 15  2  0  0  0
 14 99  1  0  0  0
 15100  1  0  0  0
 16 17  2  0  0  0
 16 21  1  0  0  0
 16 31  1  0  0  0
 17 18  1  0  0  0
 17101  1  0  0  0
 18 19  2  0  0  0
 18102  1  0  0  0
 19 20  1  0  0  0
 19 24  1  0  0  0
 20 21  2  0  0  0
 20103  1  0  0  0
 21 23  1  0  0  0
 22 28  1  0  0  0
 22 32  2  0  0  0
 26 27  1  0  0  0
 28104  1  0  0  0
 28105  1  0  0  0
 29106  1  0  0  0
 29107  1  0  0  0
 33 34  1  0  0  0
 33 66  1  0  0  0
 33 70  2  0  0  0
 34 36  1  0  0  0
 34 59  1  0  0  0
 34108  1  0  0  0
 35 44  2  0  0  0
 35 45  1  0  0  0
 35 68  1  0  0  0
 36 56  1  0  0  0
 36109  1  0  0  0
 37 39  1  0  0  0
 37 47  1  0  0  0
 37 66  1  0  0  0
 37110  1  0  0  0
 38 43  2  0  0  0
 38 46  1  0  0  0
 38 47  1  0  0  0
 39 64  1  0  0  0
 39 67  2  0  0  0
 40 52  1  0  0  0
 40 53  2  0  0  0
 40 58  1  0  0  0
 41111  1  0  0  0
 41112  1  0  0  0
 41113  1  0  0  0
 41 48  1  0  0  0
 42 43  1  0  0  0
 42 66  1  0  0  0
 42114  1  0  0  0
 42115  1  0  0  0
 43 44  1  0  0  0
 44116  1  0  0  0
 45 46  2  0  0  0
 45117  1  0  0  0
 46118  1  0  0  0
 47119  1  0  0  0
 47120  1  0  0  0
 48 56  1  0  0  0
 48 65  1  0  0  0
 48121  1  0  0  0
 49 50  1  0  0  0
 49 53  1  0  0  0
 49 64  1  0  0  0
 49122  1  0  0  0
 50 51  1  0  0  0
 50123  1  0  0  0
 50124  1  0  0  0
 51 52  1  0  0  0
 51125  1  0  0  0
 51126  1  0  0  0
 52127  1  0  0  0
 52128  1  0  0  0
 53 54  1  0  0  0
 54 55  2  0  0  0
 54129  1  0  0  0
 55 57  1  0  0  0
 55130  1  0  0  0
 56 69  2  0  0  0
 57 58  2  0  0  0
 57131  1  0  0  0
 58132  1  0  0  0
 59 60  1  0  0  0
 59 61  1  0  0  0
 59 62  1  0  0  0
 60133  1  0  0  0
 60134  1  0  0  0
 60135  1  0  0  0
 61136  1  0  0  0
 61137  1  0  0  0
 61138  1  0  0  0
 62139  1  0  0  0
 62140  1  0  0  0
 62141  1  0  0  0
 63 65  1  0  0  0
 63142  1  0  0  0
 63143  1  0  0  0
 63144  1  0  0  0
 64145  1  0  0  0
 65146  1  0  0  0
 68 85  1  0  0  0
 71 73  2  0  0  0
 71 74  1  0  0  0
 71 81  1  0  0  0
 72 73  1  0  0  0
 72 75  2  0  0  0
 72 82  1  0  0  0
 73 85  1  0  0  0
 74 76  2  0  0  0
 74 83  1  0  0  0
 75 76  1  0  0  0
 75 84  1  0  0  0
 76 86  1  0  0  0
 77 79  1  0  0  0
 77 86  1  0  0  0
 77147  1  0  0  0
 77148  1  0  0  0
 78 80  1  0  0  0
 78 86  1  0  0  0
 78149  1  0  0  0
 78150  1  0  0  0
 79 87  1  0  0  0
 79151  1  0  0  0
 79152  1  0  0  0
 80 87  1  0  0  0
 80153  1  0  0  0
 80154  1  0  0  0
 81155  1  0  0  0
 81156  1  0  0  0
 81157  1  0  0  0
 82158  1  0  0  0
 82159  1  0  0  0
 82160  1  0  0  0
 83161  1  0  0  0
 83162  1  0  0  0
 83163  1  0  0  0
 84164  1  0  0  0
 84165  1  0  0  0
 84166  1  0  0  0
 85167  1  0  0  0
 85168  1  0  0  0
M  ISO  4   1 100  68 101  85 101  87 100
M  END
> <chiral flag>
0

> <version>
0

> <s_m_source_file>
/data/baiqing/PycharmProjects/Reinvent-master-3.2/result/LINK_invent/BTK/process_docking_weight1_custom_sum_contain_oxygen_bond_distance_aromatic_linkinvent_7_9_3/rearranged_h_0158.sdf

> <i_m_source_file_index>
29

> <r_mmod_Potential_Energy-OPLS-2005>
484.810302734375

> <r_mmod_Stretch_Energy-OPLS-2005>
142.623458862305

> <r_mmod_Bend_Energy-OPLS-2005>
236.468170166016

> <r_mmod_Torsional_Energy-OPLS-2005>
382.280303955078

> <r_mmod_Improper_Torsional_Energy-OPLS-2005>
8.2242956161499

> <r_mmod_Van_der_Waal_Energy-OPLS-2005>
176.872909545898

> <r_mmod_Electrostatic_Energy-OPLS-2005>
-368.127777099609

> <r_mmod_Solvation_Energy-OPLS-2005>
-204.880096435547

> <b_mmod_Minimization_Converged-OPLS-2005>
0

> <r_mmod_RMS_Derivative-OPLS-2005>
1.11748886108398

$$$$
29
                    3D
 Structure written by MMmdl.
171180  0  0  1  0            999 V2000
  -28.8945  -16.9942   21.0751 C   0  0  0  0  0  0
  -29.9751  -14.3202   19.8897 C   0  0  0  0  0  0
  -29.5219  -13.2924   18.7022 C   0  0  0  0  0  0
  -28.2858  -12.4787   19.0550 C   0  0  0  0  0  0
  -27.4786  -13.4371   19.9270 C   0  0  2  0  0  0
  -28.1953  -14.1276   21.1459 C   0  0  0  0  0  0
  -25.1391  -13.8351   20.5736 C   0  0  0  0  0  0
  -24.1104  -13.0269   20.9282 C   0  0  0  0  0  0
  -24.6109  -11.6881   20.8739 C   0  0  0  0  0  0
  -23.8969  -10.4198   21.0368 C   0  0  0  0  0  0
  -24.3566   -9.4167   21.9171 C   0  0  0  0  0  0
  -23.6259   -8.2194   22.0744 C   0  0  0  0  0  0
  -22.4266   -8.0201   21.3526 C   0  0  0  0  0  0
  -21.9863   -9.0136   20.4626 C   0  0  0  0  0  0
  -22.7155  -10.2024   20.3010 C   0  0  0  0  0  0
  -21.6838   -6.0708   22.5291 C   0  0  0  0  0  0
  -21.4010   -6.5619   23.8224 C   0  0  0  0  0  0
  -21.3666   -5.6775   24.9187 C   0  0  0  0  0  0
  -21.6045   -4.3038   24.7241 C   0  0  0  0  0  0
  -21.8815   -3.8119   23.4366 C   0  0  0  0  0  0
  -21.9189   -4.6934   22.3417 C   0  0  0  0  0  0
  -22.7192  -13.4931   21.1995 C   0  0  0  0  0  0
  -22.1658   -4.2108   21.0995 F   0  0  0  0  0  0
  -21.5633   -3.4534   25.7761 F   0  0  0  0  0  0
  -28.9149  -15.3726   20.6766 N   0  0  0  0  0  0
  -26.1909  -12.9861   20.3357 N   0  0  0  0  0  0
  -25.9056  -11.6839   20.5648 N   0  0  0  0  0  0
  -21.9974  -12.7906   22.0624 N   0  0  0  0  0  0
  -25.2745  -15.2167   20.4234 N   0  0  0  0  0  0
  -30.1790  -16.9228   20.8473 O   0  0  0  0  0  0
  -21.6628   -6.8831   21.4248 O   0  0  0  0  0  0
  -22.2869  -14.5253   20.6857 O   0  0  0  0  0  0
  -24.8549  -31.7531   23.2479 C   0  0  0  0  0  0
  -26.0323  -32.4689   23.9016 C   0  0  1  0  0  0
  -26.6626  -27.2540   19.7857 C   0  0  0  0  0  0
  -25.6222  -33.8443   24.2364 N   0  0  0  0  0  0
  -24.1484  -29.9315   21.6316 C   0  0  2  0  0  0
  -25.4004  -29.5618   19.7355 C   0  0  0  0  0  0
  -23.9713  -28.1504   21.8418 C   0  0  0  0  0  0
  -18.1141  -27.6056   23.0026 C   0  0  0  0  0  0
  -24.1451  -36.7177   23.2494 C   0  0  0  0  0  0
  -26.4872  -30.5276   21.7361 C   0  0  0  0  0  0
  -26.4476  -29.4700   20.6396 C   0  0  0  0  0  0
  -27.1527  -28.2714   20.6585 C   0  0  0  0  0  0
  -26.2307  -27.6351   18.5574 C   0  0  0  0  0  0
  -25.3113  -28.7044   18.6372 C   0  0  0  0  0  0
  -24.4024  -30.5202   20.2028 C   0  0  0  0  0  0
  -25.4083  -36.2920   24.0189 C   0  0  1  0  0  0
  -20.9138  -26.6709   22.7988 C   0  0  2  0  0  0
  -20.3027  -25.5779   22.1608 C   0  0  0  0  0  0
  -19.0262  -25.9282   21.4732 C   0  0  0  0  0  0
  -17.8824  -26.2875   22.3647 C   0  0  0  0  0  0
  -19.4769  -27.8653   23.4054 C   0  0  0  0  0  0
  -19.3969  -29.2865   23.9476 C   0  0  0  0  0  0
  -18.2461  -30.1825   24.0207 C   0  0  0  0  0  0
  -25.9121  -34.9301   23.5061 C   0  0  0  0  0  0
  -16.9837  -29.7479   23.5875 C   0  0  0  0  0  0
  -16.9393  -28.4319   23.1146 C   0  0  0  0  0  0
  -26.4844  -31.6883   25.1857 C   0  0  0  0  0  0
  -25.3380  -31.4586   26.1957 C   0  0  0  0  0  0
  -27.1068  -30.3070   24.8848 C   0  0  0  0  0  0
  -27.5917  -32.5001   25.8897 C   0  0  0  0  0  0
  -27.5574  -37.1719   24.8481 C   0  0  0  0  0  0
  -22.7003  -26.9919   21.6862 N   0  0  0  0  0  0
  -26.4244  -37.3755   23.9414 N   0  0  0  0  0  0
  -25.1444  -30.7254   22.3680 N   0  0  0  0  0  0
  -24.8227  -28.0811   22.6777 O   0  0  0  0  0  0
  -25.4748  -26.5956   20.1354 O   0  0  0  0  0  0
  -26.5762  -34.8695   22.4697 O   0  0  0  0  0  0
  -23.7126  -32.1000   23.6158 O   0  0  0  0  0  0
  -21.1003  -27.7003   19.9356 C   0  0  0  0  0  0
  -22.4961  -27.8171   19.4115 C   0  0  0  0  0  0
  -20.7255  -28.5436   21.3167 C   0  0  0  0  0  0
  -21.7701  -28.8047   22.6494 C   0  0  0  0  0  0
  -22.3024  -29.1876   19.8009 C   0  0  0  0  0  0
  -22.7343  -26.5317   25.2744 C   0  0  0  0  0  0
  -24.5359  -24.6303   24.9256 C   0  0  0  0  0  0
  -23.1778  -26.6568   23.8426 C   0  0  2  0  0  0
  -23.3134  -25.2200   25.7638 C   0  0  1  0  0  0
  -20.1193  -27.1554   18.8767 C   0  0  0  0  0  0
  -21.6624  -30.0330   18.6382 C   0  0  0  0  0  0
  -23.5324  -25.3992   27.2896 C   0  0  0  0  0  0
  -23.9067  -26.6333   19.4106 C   0  0  0  0  0  0
  -26.9104  -20.7289   22.0952 C   0  0  0  0  0  0
  -25.2081  -22.7169   22.7509 C   0  0  0  0  0  0
  -21.7922  -29.5342   21.2473 N   0  0  0  0  0  0
  -27.7900  -18.5695   21.5553 N   0  0  0  0  0  0
  -24.4700  -24.8145   23.4183 N   0  3  2  0  0  0
  -19.5086  -29.2184   21.2324 F   0  0  0  0  0  0
  -30.7297  -14.9557   19.4086 H   0  0  0  0  0  0
  -30.5815  -13.7815   20.6287 H   0  0  0  0  0  0
  -30.3479  -12.6388   18.4072 H   0  0  0  0  0  0
  -29.2965  -13.8904   17.8163 H   0  0  0  0  0  0
  -28.5608  -11.6034   19.6300 H   0  0  0  0  0  0
  -27.7458  -12.1421   18.1733 H   0  0  0  0  0  0
  -27.2552  -14.2421   19.2202 H   0  0  0  0  0  0
  -28.7862  -13.4283   21.7499 H   0  0  0  0  0  0
  -27.4486  -14.4986   21.8617 H   0  0  0  0  0  0
  -25.2705   -9.5705   22.4769 H   0  0  0  0  0  0
  -23.9976   -7.4606   22.7477 H   0  0  0  0  0  0
  -21.0792   -8.8605   19.8931 H   0  0  0  0  0  0
  -22.3570  -10.9540   19.6103 H   0  0  0  0  0  0
  -21.1998   -7.6123   23.9709 H   0  0  0  0  0  0
  -21.1501   -6.0519   25.9092 H   0  0  0  0  0  0
  -22.0592   -2.7573   23.2880 H   0  0  0  0  0  0
  -22.3645  -11.9565   22.4968 H   0  0  0  0  0  0
  -21.0577  -13.0877   22.2907 H   0  0  0  0  0  0
  -24.4775  -15.8360   20.5136 H   0  0  0  0  0  0
  -26.1003  -15.6804   20.0716 H   0  0  0  0  0  0
  -26.8871  -32.5043   23.2209 H   0  0  0  0  0  0
  -24.9749  -33.9438   25.0084 H   0  0  0  0  0  0
  -23.4111  -30.5155   22.1198 H   0  0  0  0  0  0
  -23.3791  -35.9504   23.3137 H   0  0  0  0  0  0
  -24.3445  -36.8960   22.1949 H   0  0  0  0  0  0
  -23.7120  -37.6277   23.6626 H   0  0  0  0  0  0
  -26.8973  -31.4340   21.2912 H   0  0  0  0  0  0
  -27.2365  -30.1364   22.4176 H   0  0  0  0  0  0
  -27.8325  -28.0240   21.4543 H   0  0  0  0  0  0
  -26.1016  -26.9224   17.7518 H   0  0  0  0  0  0
  -24.5494  -28.8441   17.8808 H   0  0  0  0  0  0
  -24.8933  -31.4941   20.2533 H   0  0  0  0  0  0
  -23.6974  -30.9405   19.5382 H   0  0  0  0  0  0
  -25.1305  -36.1705   25.0737 H   0  0  0  0  0  0
  -21.0093  -26.1042   23.6976 H   0  0  0  0  0  0
  -20.0381  -24.7777   22.8580 H   0  0  0  0  0  0
  -21.0313  -25.1266   21.4856 H   0  0  0  0  0  0
  -18.7248  -25.0669   20.8567 H   0  0  0  0  0  0
  -19.0640  -26.7956   20.8653 H   0  0  0  0  0  0
  -16.9479  -26.3380   21.7778 H   0  0  0  0  0  0
  -17.6727  -25.5252   23.1221 H   0  0  0  0  0  0
  -20.3148  -29.7565   24.2909 H   0  0  0  0  0  0
  -18.3752  -31.1931   24.3883 H   0  0  0  0  0  0
  -16.1011  -30.3563   23.6345 H   0  0  0  0  0  0
  -15.9763  -28.0316   22.8149 H   0  0  0  0  0  0
  -24.5867  -30.7538   25.8365 H   0  0  0  0  0  0
  -24.8180  -32.3917   26.4171 H   0  0  0  0  0  0
  -25.6815  -31.0600   27.1547 H   0  0  0  0  0  0
  -26.4399  -29.6027   24.3865 H   0  0  0  0  0  0
  -27.3651  -29.8153   25.8259 H   0  0  0  0  0  0
  -28.0498  -30.3863   24.3408 H   0  0  0  0  0  0
  -27.2185  -33.4429   26.2983 H   0  0  0  0  0  0
  -28.4062  -32.7563   25.2161 H   0  0  0  0  0  0
  -28.0224  -31.9641   26.7419 H   0  0  0  0  0  0
  -28.2560  -38.0030   24.7763 H   0  0  0  0  0  0
  -28.1042  -36.2641   24.6048 H   0  0  0  0  0  0
  -27.2349  -37.1166   25.8866 H   0  0  0  0  0  0
  -22.4271  -27.0205   20.7134 H   0  0  0  0  0  0
  -26.0025  -38.2813   24.1514 H   0  0  0  0  0  0
  -21.6618  -26.6013   25.4882 H   0  0  0  0  0  0
  -23.0726  -27.4238   25.8405 H   0  0  0  0  0  0
  -24.5110  -23.5694   25.1860 H   0  0  0  0  0  0
  -25.5086  -25.0072   25.2572 H   0  0  0  0  0  0
  -24.0027  -27.1606   24.3213 H   0  0  0  0  0  0
  -22.5276  -24.4613   25.6728 H   0  0  0  0  0  0
  -20.5237  -27.2647   17.8681 H   0  0  0  0  0  0
  -19.1774  -27.6781   18.9344 H   0  0  0  0  0  0
  -19.9639  -26.0708   19.0019 H   0  0  0  0  0  0
  -21.8868  -29.5528   17.6773 H   0  0  0  0  0  0
  -22.0010  -31.0482   18.5112 H   0  0  0  0  0  0
  -20.5850  -30.0902   18.7059 H   0  0  0  0  0  0
  -22.7146  -25.9614   27.7443 H   0  0  0  0  0  0
  -24.4376  -25.9657   27.5015 H   0  0  0  0  0  0
  -23.5738  -24.4120   27.7524 H   0  0  0  0  0  0
  -24.0138  -26.3827   18.3516 H   0  0  0  0  0  0
  -23.5136  -25.6705   19.7540 H   0  0  0  0  0  0
  -27.7261  -21.0368   22.7622 H   0  0  0  0  0  0
  -27.2054  -21.1725   21.1482 H   0  0  0  0  0  0
  -25.1930  -22.3185   23.7638 H   0  0  0  0  0  0
  -24.2700  -22.3654   22.3125 H   0  0  0  0  0  0
  -28.7036  -19.0051   21.6449 H   0  0  0  0  0  0
  -25.3040  -25.3340   23.1529 H   0  0  0  0  0  0
  1 25  1  0  0  0
  1 30  2  0  0  0
  1 87  1  0  0  0
  2  3  1  0  0  0
  2 25  1  0  0  0
  2 90  1  0  0  0
  2 91  1  0  0  0
  3  4  1  0  0  0
  3 92  1  0  0  0
  3 93  1  0  0  0
  4  5  1  0  0  0
  4 94  1  0  0  0
  4 95  1  0  0  0
  5  6  1  0  0  0
  5 26  1  0  0  0
  5 96  1  0  0  0
  6 25  1  0  0  0
  6 97  1  0  0  0
  6 98  1  0  0  0
  7  8  2  0  0  0
  7 26  1  0  0  0
  7 29  1  0  0  0
  8  9  1  0  0  0
  8 22  1  0  0  0
  9 10  1  0  0  0
  9 27  2  0  0  0
 10 11  2  0  0  0
 10 15  1  0  0  0
 11 12  1  0  0  0
 11 99  1  0  0  0
 12 13  2  0  0  0
 12100  1  0  0  0
 13 14  1  0  0  0
 13 31  1  0  0  0
 14 15  2  0  0  0
 14101  1  0  0  0
 15102  1  0  0  0
 16 17  2  0  0  0
 16 21  1  0  0  0
 16 31  1  0  0  0
 17 18  1  0  0  0
 17103  1  0  0  0
 18 19  2  0  0  0
 18104  1  0  0  0
 19 20  1  0  0  0
 19 24  1  0  0  0
 20 21  2  0  0  0
 20105  1  0  0  0
 21 23  1  0  0  0
 22 28  1  0  0  0
 22 32  2  0  0  0
 26 27  1  0  0  0
 28106  1  0  0  0
 28107  1  0  0  0
 29108  1  0  0  0
 29109  1  0  0  0
 33 34  1  0  0  0
 33 66  1  0  0  0
 33 70  2  0  0  0
 34 36  1  0  0  0
 34 59  1  0  0  0
 34110  1  0  0  0
 35 44  2  0  0  0
 35 45  1  0  0  0
 35 68  1  0  0  0
 36 56  1  0  0  0
 36111  1  0  0  0
 37 39  1  0  0  0
 37 47  1  0  0  0
 37 66  1  0  0  0
 37112  1  0  0  0
 38 43  2  0  0  0
 38 46  1  0  0  0
 38 47  1  0  0  0
 39 64  1  0  0  0
 39 67  2  0  0  0
 40 52  1  0  0  0
 40 53  2  0  0  0
 40 58  1  0  0  0
 41113  1  0  0  0
 41114  1  0  0  0
 41115  1  0  0  0
 41 48  1  0  0  0
 42 43  1  0  0  0
 42 66  1  0  0  0
 42116  1  0  0  0
 42117  1  0  0  0
 43 44  1  0  0  0
 44118  1  0  0  0
 45 46  2  0  0  0
 45119  1  0  0  0
 46120  1  0  0  0
 47121  1  0  0  0
 47122  1  0  0  0
 48 56  1  0  0  0
 48 65  1  0  0  0
 48123  1  0  0  0
 49 50  1  0  0  0
 49 53  1  0  0  0
 49 64  1  0  0  0
 49124  1  0  0  0
 50 51  1  0  0  0
 50125  1  0  0  0
 50126  1  0  0  0
 51 52  1  0  0  0
 51127  1  0  0  0
 51128  1  0  0  0
 52129  1  0  0  0
 52130  1  0  0  0
 53 54  1  0  0  0
 54 55  2  0  0  0
 54131  1  0  0  0
 55 57  1  0  0  0
 55132  1  0  0  0
 56 69  2  0  0  0
 57 58  2  0  0  0
 57133  1  0  0  0
 58134  1  0  0  0
 59 60  1  0  0  0
 59 61  1  0  0  0
 59 62  1  0  0  0
 60135  1  0  0  0
 60136  1  0  0  0
 60137  1  0  0  0
 61138  1  0  0  0
 61139  1  0  0  0
 61140  1  0  0  0
 62141  1  0  0  0
 62142  1  0  0  0
 62143  1  0  0  0
 63 65  1  0  0  0
 63144  1  0  0  0
 63145  1  0  0  0
 63146  1  0  0  0
 64147  1  0  0  0
 65148  1  0  0  0
 68 83  1  0  0  0
 71 72  2  0  0  0
 71 73  1  0  0  0
 71 80  1  0  0  0
 72 75  1  0  0  0
 72 83  1  0  0  0
 73 74  2  0  0  0
 73 89  1  0  0  0
 74 86  1  0  0  0
 74 78  1  0  0  0
 75 81  1  0  0  0
 75 86  2  0  0  0
 76 78  1  0  0  0
 76 79  1  0  0  0
 76149  1  0  0  0
 76150  1  0  0  0
 77 79  1  0  0  0
 77 88  1  0  0  0
 77151  1  0  0  0
 77152  1  0  0  0
 78 88  1  0  0  0
 78153  1  0  0  0
 79 82  1  0  0  0
 79154  1  0  0  0
 80155  1  0  0  0
 80156  1  0  0  0
 80157  1  0  0  0
 81158  1  0  0  0
 81159  1  0  0  0
 81160  1  0  0  0
 82161  1  0  0  0
 82162  1  0  0  0
 82163  1  0  0  0
 83164  1  0  0  0
 83165  1  0  0  0
 84 85  1  0  0  0
 84 87  1  0  0  0
 84166  1  0  0  0
 84167  1  0  0  0
 85168  1  0  0  0
 85169  1  0  0  0
 85 88  1  0  0  0
 87170  1  0  0  0
 88171  1  0  0  0
M  CHG  1  88   1
M  ISO  4   1 100  68 101  83 101  87 100
M  END
> <chiral flag>
0

> <version>
0

> <s_m_source_file>
/data/baiqing/PycharmProjects/Reinvent-master-3.2/result/LINK_invent/BTK/process_docking_weight1_custom_sum_contain_oxygen_bond_distance_aromatic_linkinvent_7_9_3/rearranged_h_0158.sdf

> <i_m_source_file_index>
30

> <r_mmod_Potential_Energy-OPLS-2005>
23982.513671875

> <r_mmod_Stretch_Energy-OPLS-2005>
10785.7275390625

> <r_mmod_Bend_Energy-OPLS-2005>
3159.05639648438

> <r_mmod_Torsional_Energy-OPLS-2005>
930.056091308594

> <r_mmod_Improper_Torsional_Energy-OPLS-2005>
140.013061523438

> <r_mmod_Van_der_Waal_Energy-OPLS-2005>
2463.87866210938

> <r_mmod_Electrostatic_Energy-OPLS-2005>
-422.393310546875

> <r_mmod_Solvation_Energy-OPLS-2005>
-438.666107177734

> <b_mmod_Minimization_Converged-OPLS-2005>
0

> <r_mmod_RMS_Derivative-OPLS-2005>
43.942268371582

$$$$
30
                    3D
 Structure written by MMmdl.
170180  0  0  1  0            999 V2000
  -30.7315  -14.4592   20.6058 C   0  0  0  0  0  0
  -30.4233  -12.3107   19.4255 C   0  0  0  0  0  0
  -29.4965  -12.5185   18.2098 C   0  0  0  0  0  0
  -28.0192  -12.3708   18.6214 C   0  0  0  0  0  0
  -27.6660  -13.2082   19.8793 C   0  0  2  0  0  0
  -28.7060  -12.9887   21.0015 C   0  0  0  0  0  0
  -25.2607  -13.8171   20.5682 C   0  0  0  0  0  0
  -24.1853  -13.0447   20.9163 C   0  0  0  0  0  0
  -24.6413  -11.6913   20.8733 C   0  0  0  0  0  0
  -23.9074  -10.4292   21.0410 C   0  0  0  0  0  0
  -24.3629   -9.4208   21.9186 C   0  0  0  0  0  0
  -23.6305   -8.2241   22.0755 C   0  0  0  0  0  0
  -22.4279   -8.0284   21.3551 C   0  0  0  0  0  0
  -21.9922   -9.0256   20.4642 C   0  0  0  0  0  0
  -22.7253  -10.2137   20.3055 C   0  0  0  0  0  0
  -21.6856   -6.0732   22.5278 C   0  0  0  0  0  0
  -21.4017   -6.5637   23.8212 C   0  0  0  0  0  0
  -21.3661   -5.6791   24.9175 C   0  0  0  0  0  0
  -21.6053   -4.3054   24.7231 C   0  0  0  0  0  0
  -21.8818   -3.8143   23.4351 C   0  0  0  0  0  0
  -21.9196   -4.6958   22.3405 C   0  0  0  0  0  0
  -22.7869  -13.5240   21.1825 C   0  0  0  0  0  0
  -22.1655   -4.2150   21.0979 F   0  0  0  0  0  0
  -21.5635   -3.4533   25.7740 F   0  0  0  0  0  0
  -30.0403  -13.2920   20.4551 N   0  0  0  0  0  0
  -26.3047  -12.9347   20.3380 N   0  0  0  0  0  0
  -25.9349  -11.6502   20.5772 N   0  0  0  0  0  0
  -22.0511  -12.8225   22.0381 N   0  0  0  0  0  0
  -25.4348  -15.1887   20.4101 N   0  0  0  0  0  0
  -31.8353  -14.6439   20.0815 O   0  0  0  0  0  0
  -21.6648   -6.8880   21.4240 O   0  0  0  0  0  0
  -22.3539  -14.5540   20.6668 O   0  0  0  0  0  0
  -24.6130  -31.8677   23.2101 C   0  0  0  0  0  0
  -25.9019  -32.4823   23.8400 C   0  0  1  0  0  0
  -27.2336  -27.4278   20.1094 C   0  0  0  0  0  0
  -25.5880  -33.8624   24.2325 N   0  0  0  0  0  0
  -23.4032  -30.4912   21.5494 C   0  0  2  0  0  0
  -24.8523  -28.9630   20.1104 C   0  0  0  0  0  0
  -22.7423  -29.4645   22.4972 C   0  0  0  0  0  0
  -18.0272  -28.1378   22.8494 C   0  0  0  0  0  0
  -24.1482  -36.7314   23.2642 C   0  0  0  0  0  0
  -25.9326  -30.8328   21.3670 C   0  0  0  0  0  0
  -26.0116  -29.4687   20.7121 C   0  0  0  0  0  0
  -27.2047  -28.7103   20.7067 C   0  0  0  0  0  0
  -26.0602  -26.9503   19.4780 C   0  0  0  0  0  0
  -24.8723  -27.7042   19.4887 C   0  0  0  0  0  0
  -23.6133  -29.8284   20.1625 C   0  0  0  0  0  0
  -25.4106  -36.3120   24.0345 C   0  0  1  0  0  0
  -20.5861  -28.3654   23.1303 C   0  0  2  0  0  0
  -20.6770  -26.9378   22.5422 C   0  0  0  0  0  0
  -19.5750  -26.6371   21.5216 C   0  0  0  0  0  0
  -18.1920  -26.7917   22.1622 C   0  0  0  0  0  0
  -19.1524  -28.8831   23.2894 C   0  0  0  0  0  0
  -18.9461  -30.1438   23.8908 C   0  0  0  0  0  0
  -17.6464  -30.6582   24.0565 C   0  0  0  0  0  0
  -25.9037  -34.9481   23.5133 C   0  0  0  0  0  0
  -16.5348  -29.9093   23.6325 C   0  0  0  0  0  0
  -16.7264  -28.6508   23.0343 C   0  0  0  0  0  0
  -26.4458  -31.6610   25.0731 C   0  0  0  0  0  0
  -25.3724  -31.3725   26.1481 C   0  0  0  0  0  0
  -27.0281  -30.3061   24.6097 C   0  0  0  0  0  0
  -27.6025  -32.4324   25.7502 C   0  0  0  0  0  0
  -27.5584  -37.1813   24.8467 C   0  0  0  0  0  0
  -21.4143  -29.3021   22.3721 N   0  0  0  0  0  0
  -26.4304  -37.3796   23.9401 N   0  0  0  0  0  0
  -24.6672  -31.0786   22.0999 N   0  0  0  0  0  0
  -23.4196  -28.8175   23.3009 O   0  0  0  0  0  0
  -28.3919  -26.6736   20.1633 O   0  0  0  0  0  0
  -26.5601  -34.8935   22.4701 O   0  0  0  0  0  0
  -23.5330  -32.1414   23.7507 O   0  0  0  0  0  0
  -30.8256  -23.2460   23.4167 C   0  0  0  0  0  0
  -30.6085  -21.3061   21.9453 C   0  0  0  0  0  0
  -31.8328  -21.1151   24.0429 C   0  0  0  0  0  0
  -30.3547  -22.6790   22.2113 C   0  0  0  0  0  0
  -31.5602  -22.4664   24.3327 C   0  0  0  0  0  0
  -31.3604  -20.5195   22.8546 C   0  0  0  0  0  0
  -28.9941  -24.6864   21.5188 C   0  0  0  0  0  0
  -29.5884  -23.5127   21.2490 C   0  0  0  0  0  0
  -29.4003  -23.1692   19.7888 C   0  0  0  0  0  0
  -28.7543  -24.4302   19.1670 C   0  0  0  0  0  0
  -30.8888  -16.8800   23.0031 C   0  0  0  0  0  0
  -30.8130  -17.8649   20.7030 C   0  0  0  0  0  0
  -29.9157  -15.7665   22.5427 C   0  0  0  0  0  0
  -29.8345  -16.7357   20.3003 C   0  0  0  0  0  0
  -28.2239  -25.2544   20.3509 C   0  0  2  0  0  0
  -30.7095  -18.1923   22.2045 C   0  0  0  0  0  0
  -32.0733  -23.0809   25.6215 C   0  0  0  0  0  0
  -30.0281  -15.5104   21.0988 N   0  0  0  0  0  0
  -31.7103  -19.1765   22.6191 N   0  0  0  0  0  0
  -31.4682  -12.4043   19.1238 H   0  0  0  0  0  0
  -30.3191  -11.2988   19.8174 H   0  0  0  0  0  0
  -29.7397  -11.8051   17.4224 H   0  0  0  0  0  0
  -29.6618  -13.5110   17.7865 H   0  0  0  0  0  0
  -27.8321  -11.3128   18.8138 H   0  0  0  0  0  0
  -27.3684  -12.6460   17.7914 H   0  0  0  0  0  0
  -27.7127  -14.2572   19.5867 H   0  0  0  0  0  0
  -28.6789  -11.9549   21.3479 H   0  0  0  0  0  0
  -28.4589  -13.5949   21.8730 H   0  0  0  0  0  0
  -25.2784   -9.5681   22.4750 H   0  0  0  0  0  0
  -24.0018   -7.4635   22.7485 H   0  0  0  0  0  0
  -21.0850   -8.8787   19.8945 H   0  0  0  0  0  0
  -22.3729  -10.9678   19.6157 H   0  0  0  0  0  0
  -21.2000   -7.6144   23.9720 H   0  0  0  0  0  0
  -21.1483   -6.0515   25.9082 H   0  0  0  0  0  0
  -22.0594   -2.7603   23.2853 H   0  0  0  0  0  0
  -22.4140  -11.9904   22.4784 H   0  0  0  0  0  0
  -21.1119  -13.1230   22.2578 H   0  0  0  0  0  0
  -24.6765  -15.8516   20.5272 H   0  0  0  0  0  0
  -26.3018  -15.6236   20.1196 H   0  0  0  0  0  0
  -26.7095  -32.5549   23.1176 H   0  0  0  0  0  0
  -25.0021  -33.9790   25.0460 H   0  0  0  0  0  0
  -22.6919  -31.3082   21.4104 H   0  0  0  0  0  0
  -23.3754  -35.9635   23.3324 H   0  0  0  0  0  0
  -24.3577  -36.8919   22.2054 H   0  0  0  0  0  0
  -23.7228  -37.6525   23.6647 H   0  0  0  0  0  0
  -26.0479  -31.6014   20.6015 H   0  0  0  0  0  0
  -26.8188  -30.8832   21.9895 H   0  0  0  0  0  0
  -28.0952  -29.0910   21.1861 H   0  0  0  0  0  0
  -26.0501  -25.9940   18.9745 H   0  0  0  0  0  0
  -23.9841  -27.3143   19.0106 H   0  0  0  0  0  0
  -23.7214  -30.6058   19.4042 H   0  0  0  0  0  0
  -22.7385  -29.2495   19.8652 H   0  0  0  0  0  0
  -25.1280  -36.2007   25.0844 H   0  0  0  0  0  0
  -20.9934  -28.3224   24.1426 H   0  0  0  0  0  0
  -20.5664  -26.2259   23.3619 H   0  0  0  0  0  0
  -21.6644  -26.7423   22.1211 H   0  0  0  0  0  0
  -19.6920  -25.6287   21.1237 H   0  0  0  0  0  0
  -19.6708  -27.3196   20.6757 H   0  0  0  0  0  0
  -17.4189  -26.6664   21.4019 H   0  0  0  0  0  0
  -18.0321  -26.0058   22.9024 H   0  0  0  0  0  0
  -19.7944  -30.7237   24.2295 H   0  0  0  0  0  0
  -17.5031  -31.6266   24.5159 H   0  0  0  0  0  0
  -15.5358  -30.3007   23.7643 H   0  0  0  0  0  0
  -15.8663  -28.0844   22.7041 H   0  0  0  0  0  0
  -24.5876  -30.7098   25.7832 H   0  0  0  0  0  0
  -24.8930  -32.2890   26.4941 H   0  0  0  0  0  0
  -25.8060  -30.8890   27.0243 H   0  0  0  0  0  0
  -26.2826  -29.6860   24.1112 H   0  0  0  0  0  0
  -27.4031  -29.7273   25.4547 H   0  0  0  0  0  0
  -27.8672  -30.4405   23.9258 H   0  0  0  0  0  0
  -27.2622  -33.3600   26.2123 H   0  0  0  0  0  0
  -28.3814  -32.6929   25.0321 H   0  0  0  0  0  0
  -28.0713  -31.8424   26.5396 H   0  0  0  0  0  0
  -28.2601  -38.0109   24.7507 H   0  0  0  0  0  0
  -28.1071  -36.2641   24.6289 H   0  0  0  0  0  0
  -27.2296  -37.1466   25.8869 H   0  0  0  0  0  0
  -20.9295  -29.8771   21.6978 H   0  0  0  0  0  0
  -26.0210  -38.2877   24.1416 H   0  0  0  0  0  0
  -30.6409  -24.2868   23.6416 H   0  0  0  0  0  0
  -30.2479  -20.8674   21.0278 H   0  0  0  0  0  0
  -32.4127  -20.5331   24.7470 H   0  0  0  0  0  0
  -28.9660  -25.1719   22.4832 H   0  0  0  0  0  0
  -28.7561  -22.2943   19.6973 H   0  0  0  0  0  0
  -30.3595  -22.9453   19.3203 H   0  0  0  0  0  0
  -27.9738  -24.1962   18.4421 H   0  0  0  0  0  0
  -29.5192  -25.0040   18.6441 H   0  0  0  0  0  0
  -31.9137  -16.5177   22.8953 H   0  0  0  0  0  0
  -30.7449  -17.0677   24.0682 H   0  0  0  0  0  0
  -30.6124  -18.7549   20.1056 H   0  0  0  0  0  0
  -31.8315  -17.5578   20.4590 H   0  0  0  0  0  0
  -28.8879  -16.0568   22.7663 H   0  0  0  0  0  0
  -30.1064  -14.8548   23.1129 H   0  0  0  0  0  0
  -29.9413  -16.5201   19.2348 H   0  0  0  0  0  0
  -28.8057  -17.0759   20.4322 H   0  0  0  0  0  0
  -27.1937  -24.9712   20.5706 H   0  0  0  0  0  0
  -29.7141  -18.5887   22.4173 H   0  0  0  0  0  0
  -31.5897  -24.0347   25.8339 H   0  0  0  0  0  0
  -33.1480  -23.2514   25.5563 H   0  0  0  0  0  0
  -31.8847  -22.4178   26.4663 H   0  0  0  0  0  0
  -32.3793  -18.8095   23.2894 H   0  0  0  0  0  0
  1 25  1  0  0  0
  1 30  2  0  0  0
  1 88  1  0  0  0
  2  3  1  0  0  0
  2 25  1  0  0  0
  2 90  1  0  0  0
  2 91  1  0  0  0
  3  4  1  0  0  0
  3 92  1  0  0  0
  3 93  1  0  0  0
  4  5  1  0  0  0
  4 94  1  0  0  0
  4 95  1  0  0  0
  5  6  1  0  0  0
  5 26  1  0  0  0
  5 96  1  0  0  0
  6 25  1  0  0  0
  6 97  1  0  0  0
  6 98  1  0  0  0
  7  8  2  0  0  0
  7 26  1  0  0  0
  7 29  1  0  0  0
  8  9  1  0  0  0
  8 22  1  0  0  0
  9 10  1  0  0  0
  9 27  2  0  0  0
 10 11  2  0  0  0
 10 15  1  0  0  0
 11 12  1  0  0  0
 11 99  1  0  0  0
 12 13  2  0  0  0
 12100  1  0  0  0
 13 14  1  0  0  0
 13 31  1  0  0  0
 14 15  2  0  0  0
 14101  1  0  0  0
 15102  1  0  0  0
 16 17  2  0  0  0
 16 21  1  0  0  0
 16 31  1  0  0  0
 17 18  1  0  0  0
 17103  1  0  0  0
 18 19  2  0  0  0
 18104  1  0  0  0
 19 20  1  0  0  0
 19 24  1  0  0  0
 20 21  2  0  0  0
 20105  1  0  0  0
 21 23  1  0  0  0
 22 28  1  0  0  0
 22 32  2  0  0  0
 26 27  1  0  0  0
 28106  1  0  0  0
 28107  1  0  0  0
 29108  1  0  0  0
 29109  1  0  0  0
 33 34  1  0  0  0
 33 66  1  0  0  0
 33 70  2  0  0  0
 34 36  1  0  0  0
 34 59  1  0  0  0
 34110  1  0  0  0
 35 44  2  0  0  0
 35 45  1  0  0  0
 35 68  1  0  0  0
 36 56  1  0  0  0
 36111  1  0  0  0
 37 39  1  0  0  0
 37 47  1  0  0  0
 37 66  1  0  0  0
 37112  1  0  0  0
 38 43  2  0  0  0
 38 46  1  0  0  0
 38 47  1  0  0  0
 39 64  1  0  0  0
 39 67  2  0  0  0
 40 52  1  0  0  0
 40 53  2  0  0  0
 40 58  1  0  0  0
 41113  1  0  0  0
 41114  1  0  0  0
 41115  1  0  0  0
 41 48  1  0  0  0
 42 43  1  0  0  0
 42 66  1  0  0  0
 42116  1  0  0  0
 42117  1  0  0  0
 43 44  1  0  0  0
 44118  1  0  0  0
 45 46  2  0  0  0
 45119  1  0  0  0
 46120  1  0  0  0
 47121  1  0  0  0
 47122  1  0  0  0
 48 56  1  0  0  0
 48 65  1  0  0  0
 48123  1  0  0  0
 49 50  1  0  0  0
 49 53  1  0  0  0
 49 64  1  0  0  0
 49124  1  0  0  0
 50 51  1  0  0  0
 50125  1  0  0  0
 50126  1  0  0  0
 51 52  1  0  0  0
 51127  1  0  0  0
 51128  1  0  0  0
 52129  1  0  0  0
 52130  1  0  0  0
 53 54  1  0  0  0
 54 55  2  0  0  0
 54131  1  0  0  0
 55 57  1  0  0  0
 55132  1  0  0  0
 56 69  2  0  0  0
 57 58  2  0  0  0
 57133  1  0  0  0
 58134  1  0  0  0
 59 60  1  0  0  0
 59 61  1  0  0  0
 59 62  1  0  0  0
 60135  1  0  0  0
 60136  1  0  0  0
 60137  1  0  0  0
 61138  1  0  0  0
 61139  1  0  0  0
 61140  1  0  0  0
 62141  1  0  0  0
 62142  1  0  0  0
 62143  1  0  0  0
 63 65  1  0  0  0
 63144  1  0  0  0
 63145  1  0  0  0
 63146  1  0  0  0
 64147  1  0  0  0
 65148  1  0  0  0
 68 85  1  0  0  0
 71 74  2  0  0  0
 71 75  1  0  0  0
 71149  1  0  0  0
 72 74  1  0  0  0
 72 76  2  0  0  0
 72150  1  0  0  0
 73 75  2  0  0  0
 73 76  1  0  0  0
 73151  1  0  0  0
 74 78  1  0  0  0
 75 87  1  0  0  0
 76 89  1  0  0  0
 77 78  2  0  0  0
 77 85  1  0  0  0
 77152  1  0  0  0
 78 79  1  0  0  0
 79 80  1  0  0  0
 79153  1  0  0  0
 79154  1  0  0  0
 80 85  1  0  0  0
 80155  1  0  0  0
 80156  1  0  0  0
 81 83  1  0  0  0
 81 86  1  0  0  0
 81157  1  0  0  0
 81158  1  0  0  0
 82 84  1  0  0  0
 82 86  1  0  0  0
 82159  1  0  0  0
 82160  1  0  0  0
 83 88  1  0  0  0
 83161  1  0  0  0
 83162  1  0  0  0
 84 88  1  0  0  0
 84163  1  0  0  0
 84164  1  0  0  0
 85165  1  0  0  0
 86 89  1  0  0  0
 86166  1  0  0  0
 87167  1  0  0  0
 87168  1  0  0  0
 87169  1  0  0  0
 89170  1  0  0  0
M  ISO  4   1 100  68 101  85 101  88 100
M  END
> <chiral flag>
0

> <version>
0

> <s_m_source_file>
/data/baiqing/PycharmProjects/Reinvent-master-3.2/result/LINK_invent/BTK/process_docking_weight1_custom_sum_contain_oxygen_bond_distance_aromatic_linkinvent_7_9_3/rearranged_h_0158.sdf

> <i_m_source_file_index>
31

> <r_mmod_Potential_Energy-OPLS-2005>
194.115173339844

> <r_mmod_Stretch_Energy-OPLS-2005>
40.7298393249512

> <r_mmod_Bend_Energy-OPLS-2005>
149.638580322266

> <r_mmod_Torsional_Energy-OPLS-2005>
335.446594238281

> <r_mmod_Improper_Torsional_Energy-OPLS-2005>
12.2333393096924

> <r_mmod_Van_der_Waal_Energy-OPLS-2005>
150.822067260742

> <r_mmod_Electrostatic_Energy-OPLS-2005>
-306.925903320312

> <r_mmod_Solvation_Energy-OPLS-2005>
-201.078414916992

> <b_mmod_Minimization_Converged-OPLS-2005>
0

> <r_mmod_RMS_Derivative-OPLS-2005>
2.09303212165833

$$$$
31
                    3D
 Structure written by MMmdl.
165174  0  0  1  0            999 V2000
  -30.5654  -14.8043   20.4894 C   0  0  0  0  0  0
  -30.4339  -12.4919   19.5013 C   0  0  0  0  0  0
  -29.5181  -12.5310   18.2563 C   0  0  0  0  0  0
  -28.0461  -12.3245   18.6639 C   0  0  0  0  0  0
  -27.6365  -13.2301   19.8554 C   0  0  2  0  0  0
  -28.6727  -13.1741   20.9989 C   0  0  0  0  0  0
  -25.2459  -13.8175   20.5674 C   0  0  0  0  0  0
  -24.1759  -13.0434   20.9185 C   0  0  0  0  0  0
  -24.6334  -11.6908   20.8724 C   0  0  0  0  0  0
  -23.9016  -10.4286   21.0384 C   0  0  0  0  0  0
  -24.3572   -9.4215   21.9166 C   0  0  0  0  0  0
  -23.6267   -8.2246   22.0750 C   0  0  0  0  0  0
  -22.4260   -8.0262   21.3533 C   0  0  0  0  0  0
  -21.9875   -9.0222   20.4633 C   0  0  0  0  0  0
  -22.7180  -10.2113   20.3037 C   0  0  0  0  0  0
  -21.6849   -6.0719   22.5270 C   0  0  0  0  0  0
  -21.4025   -6.5629   23.8199 C   0  0  0  0  0  0
  -21.3670   -5.6789   24.9162 C   0  0  0  0  0  0
  -21.6045   -4.3051   24.7220 C   0  0  0  0  0  0
  -21.8815   -3.8128   23.4342 C   0  0  0  0  0  0
  -21.9192   -4.6947   22.3392 C   0  0  0  0  0  0
  -22.7777  -13.5222   21.1864 C   0  0  0  0  0  0
  -22.1656   -4.2129   21.0975 F   0  0  0  0  0  0
  -21.5629   -3.4537   25.7733 F   0  0  0  0  0  0
  -29.9714  -13.5562   20.4283 N   0  0  0  0  0  0
  -26.2882  -12.9375   20.3270 N   0  0  0  0  0  0
  -25.9267  -11.6524   20.5731 N   0  0  0  0  0  0
  -22.0432  -12.8216   22.0427 N   0  0  0  0  0  0
  -25.4157  -15.1905   20.4060 N   0  0  0  0  0  0
  -31.7379  -14.9399   20.1254 O   0  0  0  0  0  0
  -21.6640   -6.8854   21.4225 O   0  0  0  0  0  0
  -22.3474  -14.5527   20.6712 O   0  0  0  0  0  0
  -24.6301  -31.8579   23.1955 C   0  0  0  0  0  0
  -25.9139  -32.4757   23.8310 C   0  0  1  0  0  0
  -27.2142  -27.2370   20.1604 C   0  0  0  0  0  0
  -25.5946  -33.8558   24.2231 N   0  0  0  0  0  0
  -23.4272  -30.4709   21.5457 C   0  0  2  0  0  0
  -24.8756  -28.9047   20.1235 C   0  0  0  0  0  0
  -22.7499  -29.4576   22.4982 C   0  0  0  0  0  0
  -18.0283  -28.1358   22.8483 C   0  0  0  0  0  0
  -24.1511  -36.7285   23.2641 C   0  0  0  0  0  0
  -25.9712  -30.7547   21.3838 C   0  0  0  0  0  0
  -26.0455  -29.3683   20.7433 C   0  0  0  0  0  0
  -27.2185  -28.5431   20.7599 C   0  0  0  0  0  0
  -26.0409  -26.8592   19.4813 C   0  0  0  0  0  0
  -24.8772  -27.6529   19.4862 C   0  0  0  0  0  0
  -23.6453  -29.7938   20.1670 C   0  0  0  0  0  0
  -25.4136  -36.3059   24.0310 C   0  0  1  0  0  0
  -20.5883  -28.3663   23.1288 C   0  0  2  0  0  0
  -20.6803  -26.9402   22.5397 C   0  0  0  0  0  0
  -19.5781  -26.6360   21.5202 C   0  0  0  0  0  0
  -18.1946  -26.7906   22.1596 C   0  0  0  0  0  0
  -19.1534  -28.8830   23.2869 C   0  0  0  0  0  0
  -18.9471  -30.1449   23.8857 C   0  0  0  0  0  0
  -17.6476  -30.6587   24.0530 C   0  0  0  0  0  0
  -25.9069  -34.9440   23.5073 C   0  0  0  0  0  0
  -16.5362  -29.9061   23.6354 C   0  0  0  0  0  0
  -16.7271  -28.6474   23.0372 C   0  0  0  0  0  0
  -26.4485  -31.6594   25.0719 C   0  0  0  0  0  0
  -25.3663  -31.3785   26.1411 C   0  0  0  0  0  0
  -27.0374  -30.3006   24.6250 C   0  0  0  0  0  0
  -27.6011  -32.4368   25.7506 C   0  0  0  0  0  0
  -27.5598  -37.1788   24.8453 C   0  0  0  0  0  0
  -21.4206  -29.3006   22.3694 N   0  0  0  0  0  0
  -26.4313  -37.3755   23.9396 N   0  0  0  0  0  0
  -24.6952  -31.0468   22.0975 N   0  0  0  0  0  0
  -23.4193  -28.8163   23.3126 O   0  0  0  0  0  0
  -28.3112  -26.3544   20.0644 O   0  0  0  0  0  0
  -26.5647  -34.8919   22.4645 O   0  0  0  0  0  0
  -23.5439  -32.1444   23.7213 O   0  0  0  0  0  0
  -26.1233  -22.1450   21.2303 C   0  0  0  0  0  0
  -28.7957  -22.4671   20.6388 C   0  0  0  0  0  0
  -26.6346  -23.4538   21.1885 C   0  0  0  0  0  0
  -26.9081  -20.9917   21.0230 C   0  0  0  0  0  0
  -27.9904  -23.6856   20.8408 C   0  0  0  0  0  0
  -28.3081  -21.0813   20.7618 C   0  0  0  0  0  0
  -28.9373  -18.4763   21.2593 C   0  0  0  0  0  0
  -30.1907  -19.6864   19.6632 C   0  0  0  0  0  0
  -30.0806  -17.4486   20.7971 C   0  0  2  0  0  0
  -30.4019  -18.1401   19.4491 C   0  0  2  0  0  0
  -25.6711  -24.5564   21.6089 C   0  0  0  0  0  0
  -26.1506  -19.6771   21.0743 C   0  0  0  0  0  0
  -28.5801  -25.1818   20.9730 C   0  0  0  0  0  0
  -29.1169  -19.8505   20.6401 N   0  0  0  0  0  0
  -29.7755  -15.9258   20.7581 N   0  0  0  0  0  0
  -31.7371  -17.8031   18.9325 N   0  3  0  0  0  0
  -31.4771  -12.6261   19.2127 H   0  0  0  0  0  0
  -30.3802  -11.5149   19.9846 H   0  0  0  0  0  0
  -29.8201  -11.7721   17.5336 H   0  0  0  0  0  0
  -29.6245  -13.4949   17.7547 H   0  0  0  0  0  0
  -27.9239  -11.2764   18.9395 H   0  0  0  0  0  0
  -27.3862  -12.4919   17.8120 H   0  0  0  0  0  0
  -27.6284  -14.2486   19.4676 H   0  0  0  0  0  0
  -28.7168  -12.1727   21.4287 H   0  0  0  0  0  0
  -28.3858  -13.8407   21.8155 H   0  0  0  0  0  0
  -25.2707   -9.5723   22.4752 H   0  0  0  0  0  0
  -23.9975   -7.4652   22.7485 H   0  0  0  0  0  0
  -21.0801   -8.8705   19.8942 H   0  0  0  0  0  0
  -22.3594  -10.9638   19.6154 H   0  0  0  0  0  0
  -21.2032   -7.6141   23.9690 H   0  0  0  0  0  0
  -21.1502   -6.0529   25.9067 H   0  0  0  0  0  0
  -22.0590   -2.7593   23.2841 H   0  0  0  0  0  0
  -22.4038  -11.9866   22.4811 H   0  0  0  0  0  0
  -21.1049  -13.1237   22.2642 H   0  0  0  0  0  0
  -24.6340  -15.8328   20.4790 H   0  0  0  0  0  0
  -26.2517  -15.6218   20.0364 H   0  0  0  0  0  0
  -26.7211  -32.5398   23.1057 H   0  0  0  0  0  0
  -25.0060  -33.9695   25.0352 H   0  0  0  0  0  0
  -22.7216  -31.2908   21.3965 H   0  0  0  0  0  0
  -23.3778  -35.9615   23.3273 H   0  0  0  0  0  0
  -24.3606  -36.8952   22.2068 H   0  0  0  0  0  0
  -23.7269  -37.6473   23.6690 H   0  0  0  0  0  0
  -26.1006  -31.5091   20.6066 H   0  0  0  0  0  0
  -26.8504  -30.8152   22.0137 H   0  0  0  0  0  0
  -28.1182  -28.8968   21.2446 H   0  0  0  0  0  0
  -26.0213  -25.9093   18.9648 H   0  0  0  0  0  0
  -23.9838  -27.2896   18.9956 H   0  0  0  0  0  0
  -23.7598  -30.5647   19.4046 H   0  0  0  0  0  0
  -22.7657  -29.2187   19.8739 H   0  0  0  0  0  0
  -25.1316  -36.1901   25.0798 H   0  0  0  0  0  0
  -20.9916  -28.3236   24.1426 H   0  0  0  0  0  0
  -20.5759  -26.2261   23.3590 H   0  0  0  0  0  0
  -21.6677  -26.7490   22.1166 H   0  0  0  0  0  0
  -19.6972  -25.6262   21.1264 H   0  0  0  0  0  0
  -19.6736  -27.3163   20.6733 H   0  0  0  0  0  0
  -17.4233  -26.6653   21.3986 H   0  0  0  0  0  0
  -18.0329  -26.0033   22.8977 H   0  0  0  0  0  0
  -19.7956  -30.7269   24.2191 H   0  0  0  0  0  0
  -17.5036  -31.6265   24.5142 H   0  0  0  0  0  0
  -15.5358  -30.2940   23.7722 H   0  0  0  0  0  0
  -15.8663  -28.0782   22.7107 H   0  0  0  0  0  0
  -24.5811  -30.7180   25.7713 H   0  0  0  0  0  0
  -24.8883  -32.2981   26.4793 H   0  0  0  0  0  0
  -25.7909  -30.8965   27.0223 H   0  0  0  0  0  0
  -26.3008  -29.6723   24.1228 H   0  0  0  0  0  0
  -27.4003  -29.7298   25.4812 H   0  0  0  0  0  0
  -27.8887  -30.4281   23.9553 H   0  0  0  0  0  0
  -27.2586  -33.3682   26.2026 H   0  0  0  0  0  0
  -28.3836  -32.6923   25.0348 H   0  0  0  0  0  0
  -28.0653  -31.8541   26.5472 H   0  0  0  0  0  0
  -28.2555  -38.0145   24.7548 H   0  0  0  0  0  0
  -28.1152  -36.2664   24.6213 H   0  0  0  0  0  0
  -27.2304  -37.1349   25.8853 H   0  0  0  0  0  0
  -20.9410  -29.8675   21.6847 H   0  0  0  0  0  0
  -26.0188  -38.2825   24.1402 H   0  0  0  0  0  0
  -25.0749  -22.0214   21.4715 H   0  0  0  0  0  0
  -29.8479  -22.6098   20.4394 H   0  0  0  0  0  0
  -28.9014  -18.5601   22.3482 H   0  0  0  0  0  0
  -27.9978  -18.0337   20.9423 H   0  0  0  0  0  0
  -29.9390  -20.1902   18.7285 H   0  0  0  0  0  0
  -31.0939  -20.1555   20.0550 H   0  0  0  0  0  0
  -30.9285  -17.5878   21.4701 H   0  0  0  0  0  0
  -29.6660  -17.8046   18.7165 H   0  0  0  0  0  0
  -25.0183  -24.8352   20.7836 H   0  0  0  0  0  0
  -26.1609  -25.4467   21.9979 H   0  0  0  0  0  0
  -25.0194  -24.2011   22.4064 H   0  0  0  0  0  0
  -25.0710  -19.8254   21.1078 H   0  0  0  0  0  0
  -26.4194  -19.1135   21.9675 H   0  0  0  0  0  0
  -26.3526  -19.0886   20.1807 H   0  0  0  0  0  0
  -29.6633  -25.0625   20.9299 H   0  0  0  0  0  0
  -28.3952  -25.5231   21.9935 H   0  0  0  0  0  0
  -28.8271  -15.6930   21.0104 H   0  0  0  0  0  0
  -32.4527  -18.0950   19.5733 H   0  0  0  0  0  0
  -31.8963  -18.2521   18.0479 H   0  0  0  0  0  0
  -31.8168  -16.8068   18.8122 H   0  0  0  0  0  0
  1 25  1  0  0  0
  1 30  2  0  0  0
  1 85  1  0  0  0
  2  3  1  0  0  0
  2 25  1  0  0  0
  2 87  1  0  0  0
  2 88  1  0  0  0
  3  4  1  0  0  0
  3 89  1  0  0  0
  3 90  1  0  0  0
  4  5  1  0  0  0
  4 91  1  0  0  0
  4 92  1  0  0  0
  5  6  1  0  0  0
  5 26  1  0  0  0
  5 93  1  0  0  0
  6 25  1  0  0  0
  6 94  1  0  0  0
  6 95  1  0  0  0
  7  8  2  0  0  0
  7 26  1  0  0  0
  7 29  1  0  0  0
  8  9  1  0  0  0
  8 22  1  0  0  0
  9 10  1  0  0  0
  9 27  2  0  0  0
 10 11  2  0  0  0
 10 15  1  0  0  0
 11 12  1  0  0  0
 11 96  1  0  0  0
 12 13  2  0  0  0
 12 97  1  0  0  0
 13 14  1  0  0  0
 13 31  1  0  0  0
 14 15  2  0  0  0
 14 98  1  0  0  0
 15 99  1  0  0  0
 16 17  2  0  0  0
 16 21  1  0  0  0
 16 31  1  0  0  0
 17 18  1  0  0  0
 17100  1  0  0  0
 18 19  2  0  0  0
 18101  1  0  0  0
 19 20  1  0  0  0
 19 24  1  0  0  0
 20 21  2  0  0  0
 20102  1  0  0  0
 21 23  1  0  0  0
 22 28  1  0  0  0
 22 32  2  0  0  0
 26 27  1  0  0  0
 28103  1  0  0  0
 28104  1  0  0  0
 29105  1  0  0  0
 29106  1  0  0  0
 33 34  1  0  0  0
 33 66  1  0  0  0
 33 70  2  0  0  0
 34 36  1  0  0  0
 34 59  1  0  0  0
 34107  1  0  0  0
 35 44  2  0  0  0
 35 45  1  0  0  0
 35 68  1  0  0  0
 36 56  1  0  0  0
 36108  1  0  0  0
 37 39  1  0  0  0
 37 47  1  0  0  0
 37 66  1  0  0  0
 37109  1  0  0  0
 38 43  2  0  0  0
 38 46  1  0  0  0
 38 47  1  0  0  0
 39 64  1  0  0  0
 39 67  2  0  0  0
 40 52  1  0  0  0
 40 53  2  0  0  0
 40 58  1  0  0  0
 41110  1  0  0  0
 41111  1  0  0  0
 41112  1  0  0  0
 41 48  1  0  0  0
 42 43  1  0  0  0
 42 66  1  0  0  0
 42113  1  0  0  0
 42114  1  0  0  0
 43 44  1  0  0  0
 44115  1  0  0  0
 45 46  2  0  0  0
 45116  1  0  0  0
 46117  1  0  0  0
 47118  1  0  0  0
 47119  1  0  0  0
 48 56  1  0  0  0
 48 65  1  0  0  0
 48120  1  0  0  0
 49 50  1  0  0  0
 49 53  1  0  0  0
 49 64  1  0  0  0
 49121  1  0  0  0
 50 51  1  0  0  0
 50122  1  0  0  0
 50123  1  0  0  0
 51 52  1  0  0  0
 51124  1  0  0  0
 51125  1  0  0  0
 52126  1  0  0  0
 52127  1  0  0  0
 53 54  1  0  0  0
 54 55  2  0  0  0
 54128  1  0  0  0
 55 57  1  0  0  0
 55129  1  0  0  0
 56 69  2  0  0  0
 57 58  2  0  0  0
 57130  1  0  0  0
 58131  1  0  0  0
 59 60  1  0  0  0
 59 61  1  0  0  0
 59 62  1  0  0  0
 60132  1  0  0  0
 60133  1  0  0  0
 60134  1  0  0  0
 61135  1  0  0  0
 61136  1  0  0  0
 61137  1  0  0  0
 62138  1  0  0  0
 62139  1  0  0  0
 62140  1  0  0  0
 63 65  1  0  0  0
 63141  1  0  0  0
 63142  1  0  0  0
 63143  1  0  0  0
 64144  1  0  0  0
 65145  1  0  0  0
 68 83  1  0  0  0
 71 73  2  0  0  0
 71 74  1  0  0  0
 71146  1  0  0  0
 72 75  2  0  0  0
 72 76  1  0  0  0
 72147  1  0  0  0
 73 75  1  0  0  0
 73 81  1  0  0  0
 74 76  2  0  0  0
 74 82  1  0  0  0
 75 83  1  0  0  0
 76 84  1  0  0  0
 77 79  1  0  0  0
 77 84  1  0  0  0
 77148  1  0  0  0
 77149  1  0  0  0
 78 80  1  0  0  0
 78 84  1  0  0  0
 78150  1  0  0  0
 78151  1  0  0  0
 79 80  1  0  0  0
 79 85  1  0  0  0
 79152  1  0  0  0
 80 86  1  0  0  0
 80153  1  0  0  0
 81154  1  0  0  0
 81155  1  0  0  0
 81156  1  0  0  0
 82157  1  0  0  0
 82158  1  0  0  0
 82159  1  0  0  0
 83160  1  0  0  0
 83161  1  0  0  0
 85162  1  0  0  0
 86163  1  0  0  0
 86164  1  0  0  0
 86165  1  0  0  0
M  CHG  1  86   1
M  ISO  4   1 100  68 101  83 101  85 100
M  END
> <chiral flag>
0

> <version>
0

> <s_m_source_file>
/data/baiqing/PycharmProjects/Reinvent-master-3.2/result/LINK_invent/BTK/process_docking_weight1_custom_sum_contain_oxygen_bond_distance_aromatic_linkinvent_7_9_3/rearranged_h_0158.sdf

> <i_m_source_file_index>
32

> <r_mmod_Potential_Energy-OPLS-2005>
1.03195381164551

> <r_mmod_Stretch_Energy-OPLS-2005>
150.694580078125

> <r_mmod_Bend_Energy-OPLS-2005>
262.399291992188

> <r_mmod_Torsional_Energy-OPLS-2005>
324.199737548828

> <r_mmod_Improper_Torsional_Energy-OPLS-2005>
7.30908584594727

> <r_mmod_Van_der_Waal_Energy-OPLS-2005>
135.023727416992

> <r_mmod_Electrostatic_Energy-OPLS-2005>
-507.942932128906

> <r_mmod_Solvation_Energy-OPLS-2005>
-473.743225097656

> <b_mmod_Minimization_Converged-OPLS-2005>
0

> <r_mmod_RMS_Derivative-OPLS-2005>
2.83829760551453

$$$$
32
                    3D
 Structure written by MMmdl.
164173  0  0  1  0            999 V2000
  -30.7348  -14.6029   20.5266 C   0  0  0  0  0  0
  -30.4054  -12.3864   19.4565 C   0  0  0  0  0  0
  -29.4934  -12.4914   18.2188 C   0  0  0  0  0  0
  -28.0196  -12.3102   18.6247 C   0  0  0  0  0  0
  -27.6309  -13.2000   19.8300 C   0  0  2  0  0  0
  -28.6781  -13.1492   20.9704 C   0  0  0  0  0  0
  -25.2522  -13.8156   20.5718 C   0  0  0  0  0  0
  -24.1786  -13.0421   20.9214 C   0  0  0  0  0  0
  -24.6342  -11.6888   20.8729 C   0  0  0  0  0  0
  -23.9045  -10.4285   21.0416 C   0  0  0  0  0  0
  -24.3626   -9.4211   21.9191 C   0  0  0  0  0  0
  -23.6320   -8.2232   22.0780 C   0  0  0  0  0  0
  -22.4302   -8.0266   21.3555 C   0  0  0  0  0  0
  -21.9910   -9.0237   20.4657 C   0  0  0  0  0  0
  -22.7231  -10.2116   20.3067 C   0  0  0  0  0  0
  -21.6855   -6.0728   22.5296 C   0  0  0  0  0  0
  -21.4025   -6.5644   23.8235 C   0  0  0  0  0  0
  -21.3658   -5.6790   24.9197 C   0  0  0  0  0  0
  -21.6060   -4.3058   24.7248 C   0  0  0  0  0  0
  -21.8830   -3.8142   23.4365 C   0  0  0  0  0  0
  -21.9214   -4.6954   22.3406 C   0  0  0  0  0  0
  -22.7806  -13.5194   21.1876 C   0  0  0  0  0  0
  -22.1674   -4.2132   21.0979 F   0  0  0  0  0  0
  -21.5615   -3.4538   25.7751 F   0  0  0  0  0  0
  -30.0013  -13.4472   20.4033 N   0  0  0  0  0  0
  -26.2877  -12.9287   20.3185 N   0  0  0  0  0  0
  -25.9248  -11.6464   20.5700 N   0  0  0  0  0  0
  -22.0444  -12.8190   22.0436 N   0  0  0  0  0  0
  -25.4241  -15.1898   20.4256 N   0  0  0  0  0  0
  -31.8911  -14.6497   20.0996 O   0  0  0  0  0  0
  -21.6656   -6.8873   21.4263 O   0  0  0  0  0  0
  -22.3490  -14.5475   20.6674 O   0  0  0  0  0  0
  -24.6266  -31.8678   23.2118 C   0  0  0  0  0  0
  -25.9137  -32.4813   23.8402 C   0  0  1  0  0  0
  -27.1850  -27.3388   20.0804 C   0  0  0  0  0  0
  -25.5982  -33.8609   24.2333 N   0  0  0  0  0  0
  -23.4106  -30.5069   21.5575 C   0  0  2  0  0  0
  -24.8459  -28.9882   20.1087 C   0  0  0  0  0  0
  -22.7444  -29.4705   22.4933 C   0  0  0  0  0  0
  -18.0290  -28.1360   22.8495 C   0  0  0  0  0  0
  -24.1504  -36.7302   23.2614 C   0  0  0  0  0  0
  -25.9576  -30.8045   21.3799 C   0  0  0  0  0  0
  -26.0254  -29.4413   20.7114 C   0  0  0  0  0  0
  -27.2013  -28.6287   20.6968 C   0  0  0  0  0  0
  -25.9679  -26.9606   19.4475 C   0  0  0  0  0  0
  -24.8172  -27.7492   19.4735 C   0  0  0  0  0  0
  -23.6183  -29.8675   20.1662 C   0  0  0  0  0  0
  -25.4110  -36.3086   24.0325 C   0  0  1  0  0  0
  -20.5899  -28.3685   23.1281 C   0  0  2  0  0  0
  -20.6784  -26.9412   22.5401 C   0  0  0  0  0  0
  -19.5754  -26.6369   21.5210 C   0  0  0  0  0  0
  -18.1934  -26.7918   22.1618 C   0  0  0  0  0  0
  -19.1545  -28.8844   23.2894 C   0  0  0  0  0  0
  -18.9463  -30.1440   23.8906 C   0  0  0  0  0  0
  -17.6467  -30.6583   24.0550 C   0  0  0  0  0  0
  -25.9070  -34.9465   23.5126 C   0  0  0  0  0  0
  -16.5354  -29.9077   23.6322 C   0  0  0  0  0  0
  -16.7281  -28.6481   23.0373 C   0  0  0  0  0  0
  -26.4504  -31.6586   25.0752 C   0  0  0  0  0  0
  -25.3755  -31.3732   26.1483 C   0  0  0  0  0  0
  -27.0308  -30.3009   24.6164 C   0  0  0  0  0  0
  -27.6088  -32.4274   25.7525 C   0  0  0  0  0  0
  -27.5614  -37.1759   24.8411 C   0  0  0  0  0  0
  -21.4158  -29.3074   22.3688 N   0  0  0  0  0  0
  -26.4264  -37.3809   23.9454 N   0  0  0  0  0  0
  -24.6851  -31.0723   22.1066 N   0  0  0  0  0  0
  -23.4210  -28.8208   23.2946 O   0  0  0  0  0  0
  -28.2692  -26.4378   20.1218 O   0  0  0  0  0  0
  -26.5604  -34.8918   22.4668 O   0  0  0  0  0  0
  -23.5452  -32.1462   23.7478 O   0  0  0  0  0  0
  -29.4086  -23.3499   21.0946 C   0  0  0  0  0  0
  -28.7252  -22.8755   18.8256 C   0  0  0  0  0  0
  -28.7720  -23.7913   19.9080 C   0  0  0  0  0  0
  -29.9933  -22.0474   21.1756 C   0  0  0  0  0  0
  -29.2958  -21.5830   18.8961 C   0  0  0  0  0  0
  -29.9381  -21.1378   20.0770 C   0  0  0  0  0  0
  -29.2867  -17.8171   20.0281 C   0  0  0  0  0  0
  -31.4489  -17.9398   21.2079 C   0  0  0  0  0  0
  -29.0032  -16.4656   20.7655 C   0  0  0  0  0  0
  -31.0933  -16.6145   21.9464 C   0  0  0  0  0  0
  -30.2008  -18.7711   20.8282 C   0  0  0  0  0  0
  -30.6897  -21.6344   22.4587 C   0  0  0  0  0  0
  -29.1770  -20.6722   17.6839 C   0  0  0  0  0  0
  -27.8745  -25.0540   19.8040 C   0  0  0  0  0  0
  -30.2200  -15.7123   21.1577 N   0  0  0  0  0  0
  -30.6194  -19.9202   20.0500 O   0  0  0  0  0  0
  -31.4512  -12.4561   19.1538 H   0  0  0  0  0  0
  -30.3063  -11.4095   19.9306 H   0  0  0  0  0  0
  -29.7710  -11.7371   17.4808 H   0  0  0  0  0  0
  -29.6310  -13.4615   17.7377 H   0  0  0  0  0  0
  -27.8616  -11.2603   18.8691 H   0  0  0  0  0  0
  -27.3750  -12.5256   17.7728 H   0  0  0  0  0  0
  -27.5934  -14.1908   19.3964 H   0  0  0  0  0  0
  -28.6877  -12.1608   21.4312 H   0  0  0  0  0  0
  -28.4175  -13.8508   21.7613 H   0  0  0  0  0  0
  -25.2798   -9.5716   22.4708 H   0  0  0  0  0  0
  -24.0085   -7.4652   22.7492 H   0  0  0  0  0  0
  -21.0861   -8.8749   19.8931 H   0  0  0  0  0  0
  -22.3725  -10.9655   19.6155 H   0  0  0  0  0  0
  -21.2007   -7.6164   23.9746 H   0  0  0  0  0  0
  -21.1465   -6.0513   25.9112 H   0  0  0  0  0  0
  -22.0603   -2.7596   23.2877 H   0  0  0  0  0  0
  -22.4065  -11.9893   22.4877 H   0  0  0  0  0  0
  -21.1007  -13.1164   22.2488 H   0  0  0  0  0  0
  -24.6609  -15.8404   20.5864 H   0  0  0  0  0  0
  -26.2700  -15.6430   20.1110 H   0  0  0  0  0  0
  -26.7201  -32.5492   23.1147 H   0  0  0  0  0  0
  -25.0121  -33.9763   25.0472 H   0  0  0  0  0  0
  -22.7039  -31.3297   21.4305 H   0  0  0  0  0  0
  -23.3816  -35.9580   23.3127 H   0  0  0  0  0  0
  -24.3637  -36.9084   22.2065 H   0  0  0  0  0  0
  -23.7178  -37.6421   23.6737 H   0  0  0  0  0  0
  -26.0862  -31.5726   20.6157 H   0  0  0  0  0  0
  -26.8409  -30.8476   22.0044 H   0  0  0  0  0  0
  -28.1002  -28.9716   21.1919 H   0  0  0  0  0  0
  -25.8147  -26.0314   18.9228 H   0  0  0  0  0  0
  -23.9109  -27.3956   19.0007 H   0  0  0  0  0  0
  -23.7355  -30.6544   19.4197 H   0  0  0  0  0  0
  -22.7336  -29.3050   19.8611 H   0  0  0  0  0  0
  -25.1266  -36.1913   25.0811 H   0  0  0  0  0  0
  -20.9995  -28.3252   24.1401 H   0  0  0  0  0  0
  -20.5693  -26.2287   23.3581 H   0  0  0  0  0  0
  -21.6648  -26.7445   22.1187 H   0  0  0  0  0  0
  -19.6908  -25.6288   21.1225 H   0  0  0  0  0  0
  -19.6684  -27.3182   20.6749 H   0  0  0  0  0  0
  -17.4204  -26.6693   21.4017 H   0  0  0  0  0  0
  -18.0325  -26.0044   22.8996 H   0  0  0  0  0  0
  -19.7936  -30.7244   24.2289 H   0  0  0  0  0  0
  -17.5023  -31.6268   24.5145 H   0  0  0  0  0  0
  -15.5362  -30.2983   23.7630 H   0  0  0  0  0  0
  -15.8676  -28.0780   22.7119 H   0  0  0  0  0  0
  -24.5923  -30.7080   25.7819 H   0  0  0  0  0  0
  -24.8948  -32.2914   26.4882 H   0  0  0  0  0  0
  -25.8097  -30.8916   27.0261 H   0  0  0  0  0  0
  -26.2864  -29.6777   24.1192 H   0  0  0  0  0  0
  -27.4020  -29.7230   25.4638 H   0  0  0  0  0  0
  -27.8735  -30.4263   23.9360 H   0  0  0  0  0  0
  -27.2744  -33.3608   26.2049 H   0  0  0  0  0  0
  -28.3946  -32.6753   25.0386 H   0  0  0  0  0  0
  -28.0675  -31.8392   26.5480 H   0  0  0  0  0  0
  -28.2447  -38.0234   24.7743 H   0  0  0  0  0  0
  -28.1298  -36.2797   24.5880 H   0  0  0  0  0  0
  -27.2377  -37.0966   25.8802 H   0  0  0  0  0  0
  -20.9307  -29.8834   21.6944 H   0  0  0  0  0  0
  -26.0127  -38.2839   24.1633 H   0  0  0  0  0  0
  -29.4159  -24.0046   21.9582 H   0  0  0  0  0  0
  -28.1914  -23.1451   17.9233 H   0  0  0  0  0  0
  -28.3490  -18.3259   19.8009 H   0  0  0  0  0  0
  -29.7482  -17.6028   19.0638 H   0  0  0  0  0  0
  -32.0141  -17.6981   20.3037 H   0  0  0  0  0  0
  -32.1194  -18.5408   21.8230 H   0  0  0  0  0  0
  -28.3673  -15.8864   20.1190 H   0  0  0  0  0  0
  -28.4230  -16.6588   21.6686 H   0  0  0  0  0  0
  -30.5907  -16.8483   22.8848 H   0  0  0  0  0  0
  -32.0133  -16.1037   22.2369 H   0  0  0  0  0  0
  -29.6846  -19.0871   21.7348 H   0  0  0  0  0  0
  -30.8841  -22.4902   23.1033 H   0  0  0  0  0  0
  -31.6446  -21.1564   22.2366 H   0  0  0  0  0  0
  -30.0706  -20.9326   23.0158 H   0  0  0  0  0  0
  -29.2606  -21.2390   16.7553 H   0  0  0  0  0  0
  -28.2060  -20.1716   17.6842 H   0  0  0  0  0  0
  -29.9484  -19.9035   17.6657 H   0  0  0  0  0  0
  -27.0022  -24.7959   20.4071 H   0  0  0  0  0  0
  -27.5740  -25.0566   18.7567 H   0  0  0  0  0  0
  1 25  1  0  0  0
  1 30  2  0  0  0
  1 85  1  0  0  0
  2  3  1  0  0  0
  2 25  1  0  0  0
  2 87  1  0  0  0
  2 88  1  0  0  0
  3  4  1  0  0  0
  3 89  1  0  0  0
  3 90  1  0  0  0
  4  5  1  0  0  0
  4 91  1  0  0  0
  4 92  1  0  0  0
  5  6  1  0  0  0
  5 26  1  0  0  0
  5 93  1  0  0  0
  6 25  1  0  0  0
  6 94  1  0  0  0
  6 95  1  0  0  0
  7  8  2  0  0  0
  7 26  1  0  0  0
  7 29  1  0  0  0
  8  9  1  0  0  0
  8 22  1  0  0  0
  9 10  1  0  0  0
  9 27  2  0  0  0
 10 11  2  0  0  0
 10 15  1  0  0  0
 11 12  1  0  0  0
 11 96  1  0  0  0
 12 13  2  0  0  0
 12 97  1  0  0  0
 13 14  1  0  0  0
 13 31  1  0  0  0
 14 15  2  0  0  0
 14 98  1  0  0  0
 15 99  1  0  0  0
 16 17  2  0  0  0
 16 21  1  0  0  0
 16 31  1  0  0  0
 17 18  1  0  0  0
 17100  1  0  0  0
 18 19  2  0  0  0
 18101  1  0  0  0
 19 20  1  0  0  0
 19 24  1  0  0  0
 20 21  2  0  0  0
 20102  1  0  0  0
 21 23  1  0  0  0
 22 28  1  0  0  0
 22 32  2  0  0  0
 26 27  1  0  0  0
 28103  1  0  0  0
 28104  1  0  0  0
 29105  1  0  0  0
 29106  1  0  0  0
 33 34  1  0  0  0
 33 66  1  0  0  0
 33 70  2  0  0  0
 34 36  1  0  0  0
 34 59  1  0  0  0
 34107  1  0  0  0
 35 44  2  0  0  0
 35 45  1  0  0  0
 35 68  1  0  0  0
 36 56  1  0  0  0
 36108  1  0  0  0
 37 39  1  0  0  0
 37 47  1  0  0  0
 37 66  1  0  0  0
 37109  1  0  0  0
 38 43  2  0  0  0
 38 46  1  0  0  0
 38 47  1  0  0  0
 39 64  1  0  0  0
 39 67  2  0  0  0
 40 52  1  0  0  0
 40 53  2  0  0  0
 40 58  1  0  0  0
 41110  1  0  0  0
 41111  1  0  0  0
 41112  1  0  0  0
 41 48  1  0  0  0
 42 43  1  0  0  0
 42 66  1  0  0  0
 42113  1  0  0  0
 42114  1  0  0  0
 43 44  1  0  0  0
 44115  1  0  0  0
 45 46  2  0  0  0
 45116  1  0  0  0
 46117  1  0  0  0
 47118  1  0  0  0
 47119  1  0  0  0
 48 56  1  0  0  0
 48 65  1  0  0  0
 48120  1  0  0  0
 49 50  1  0  0  0
 49 53  1  0  0  0
 49 64  1  0  0  0
 49121  1  0  0  0
 50 51  1  0  0  0
 50122  1  0  0  0
 50123  1  0  0  0
 51 52  1  0  0  0
 51124  1  0  0  0
 51125  1  0  0  0
 52126  1  0  0  0
 52127  1  0  0  0
 53 54  1  0  0  0
 54 55  2  0  0  0
 54128  1  0  0  0
 55 57  1  0  0  0
 55129  1  0  0  0
 56 69  2  0  0  0
 57 58  2  0  0  0
 57130  1  0  0  0
 58131  1  0  0  0
 59 60  1  0  0  0
 59 61  1  0  0  0
 59 62  1  0  0  0
 60132  1  0  0  0
 60133  1  0  0  0
 60134  1  0  0  0
 61135  1  0  0  0
 61136  1  0  0  0
 61137  1  0  0  0
 62138  1  0  0  0
 62139  1  0  0  0
 62140  1  0  0  0
 63 65  1  0  0  0
 63141  1  0  0  0
 63142  1  0  0  0
 63143  1  0  0  0
 64144  1  0  0  0
 65145  1  0  0  0
 68 84  1  0  0  0
 71 73  2  0  0  0
 71 74  1  0  0  0
 71146  1  0  0  0
 72 73  1  0  0  0
 72 75  2  0  0  0
 72147  1  0  0  0
 73 84  1  0  0  0
 74 76  2  0  0  0
 74 82  1  0  0  0
 75 76  1  0  0  0
 75 83  1  0  0  0
 76 86  1  0  0  0
 77 79  1  0  0  0
 77 81  1  0  0  0
 77148  1  0  0  0
 77149  1  0  0  0
 78 80  1  0  0  0
 78 81  1  0  0  0
 78150  1  0  0  0
 78151  1  0  0  0
 79 85  1  0  0  0
 79152  1  0  0  0
 79153  1  0  0  0
 80 85  1  0  0  0
 80154  1  0  0  0
 80155  1  0  0  0
 81 86  1  0  0  0
 81156  1  0  0  0
 82157  1  0  0  0
 82158  1  0  0  0
 82159  1  0  0  0
 83160  1  0  0  0
 83161  1  0  0  0
 83162  1  0  0  0
 84163  1  0  0  0
 84164  1  0  0  0
M  ISO  4   1 100  68 101  84 101  85 100
M  END
> <chiral flag>
0

> <version>
0

> <s_m_source_file>
/data/baiqing/PycharmProjects/Reinvent-master-3.2/result/LINK_invent/BTK/process_docking_weight1_custom_sum_contain_oxygen_bond_distance_aromatic_linkinvent_7_9_3/rearranged_h_0158.sdf

> <i_m_source_file_index>
33

> <r_mmod_Potential_Energy-OPLS-2005>
297.333435058594

> <r_mmod_Stretch_Energy-OPLS-2005>
66.3791275024414

> <r_mmod_Bend_Energy-OPLS-2005>
162.955047607422

> <r_mmod_Torsional_Energy-OPLS-2005>
339.39892578125

> <r_mmod_Improper_Torsional_Energy-OPLS-2005>
5.763587474823

> <r_mmod_Van_der_Waal_Energy-OPLS-2005>
168.359085083008

> <r_mmod_Electrostatic_Energy-OPLS-2005>
-294.994934082031

> <r_mmod_Solvation_Energy-OPLS-2005>
-202.230010986328

> <b_mmod_Minimization_Converged-OPLS-2005>
0

> <r_mmod_RMS_Derivative-OPLS-2005>
3.99719262123108

$$$$
33
                    3D
 Structure written by MMmdl.
168177  0  0  1  0            999 V2000
  -30.6706  -14.5991   20.5087 C   0  0  0  0  0  0
  -30.4241  -12.3726   19.4479 C   0  0  0  0  0  0
  -29.4991  -12.5016   18.2185 C   0  0  0  0  0  0
  -28.0203  -12.3507   18.6289 C   0  0  0  0  0  0
  -27.6493  -13.2163   19.8631 C   0  0  2  0  0  0
  -28.6953  -13.0606   20.9881 C   0  0  0  0  0  0
  -25.2528  -13.8167   20.5676 C   0  0  0  0  0  0
  -24.1807  -13.0429   20.9199 C   0  0  0  0  0  0
  -24.6381  -11.6903   20.8752 C   0  0  0  0  0  0
  -23.9053  -10.4287   21.0413 C   0  0  0  0  0  0
  -24.3611   -9.4202   21.9187 C   0  0  0  0  0  0
  -23.6289   -8.2235   22.0752 C   0  0  0  0  0  0
  -22.4269   -8.0276   21.3546 C   0  0  0  0  0  0
  -21.9907   -9.0247   20.4647 C   0  0  0  0  0  0
  -22.7229  -10.2129   20.3058 C   0  0  0  0  0  0
  -21.6850   -6.0734   22.5281 C   0  0  0  0  0  0
  -21.4010   -6.5638   23.8215 C   0  0  0  0  0  0
  -21.3659   -5.6792   24.9177 C   0  0  0  0  0  0
  -21.6044   -4.3056   24.7229 C   0  0  0  0  0  0
  -21.8817   -3.8149   23.4351 C   0  0  0  0  0  0
  -21.9190   -4.6964   22.3406 C   0  0  0  0  0  0
  -22.7830  -13.5221   21.1861 C   0  0  0  0  0  0
  -22.1656   -4.2149   21.0983 F   0  0  0  0  0  0
  -21.5635   -3.4538   25.7741 F   0  0  0  0  0  0
  -30.0044  -13.4041   20.4178 N   0  0  0  0  0  0
  -26.2965  -12.9353   20.3336 N   0  0  0  0  0  0
  -25.9310  -11.6504   20.5780 N   0  0  0  0  0  0
  -22.0475  -12.8215   22.0423 N   0  0  0  0  0  0
  -25.4207  -15.1883   20.4031 N   0  0  0  0  0  0
  -31.8566  -14.6734   20.1707 O   0  0  0  0  0  0
  -21.6637   -6.8874   21.4240 O   0  0  0  0  0  0
  -22.3513  -14.5523   20.6705 O   0  0  0  0  0  0
  -24.6214  -31.8627   23.2047 C   0  0  0  0  0  0
  -25.9080  -32.4791   23.8362 C   0  0  1  0  0  0
  -27.2314  -27.3634   20.0965 C   0  0  0  0  0  0
  -25.5911  -33.8591   24.2290 N   0  0  0  0  0  0
  -23.4122  -30.4861   21.5473 C   0  0  2  0  0  0
  -24.8569  -28.9449   20.1115 C   0  0  0  0  0  0
  -22.7444  -29.4636   22.4962 C   0  0  0  0  0  0
  -18.0277  -28.1380   22.8493 C   0  0  0  0  0  0
  -24.1488  -36.7302   23.2638 C   0  0  0  0  0  0
  -25.9483  -30.8057   21.3684 C   0  0  0  0  0  0
  -26.0218  -29.4356   20.7121 C   0  0  0  0  0  0
  -27.2076  -28.6523   20.7018 C   0  0  0  0  0  0
  -26.0334  -26.8995   19.5037 C   0  0  0  0  0  0
  -24.8615  -27.6789   19.5049 C   0  0  0  0  0  0
  -23.6227  -29.8196   20.1620 C   0  0  0  0  0  0
  -25.4112  -36.3092   24.0329 C   0  0  1  0  0  0
  -20.5875  -28.3674   23.1302 C   0  0  2  0  0  0
  -20.6767  -26.9404   22.5417 C   0  0  0  0  0  0
  -19.5744  -26.6385   21.5216 C   0  0  0  0  0  0
  -18.1923  -26.7925   22.1627 C   0  0  0  0  0  0
  -19.1530  -28.8844   23.2893 C   0  0  0  0  0  0
  -18.9455  -30.1450   23.8903 C   0  0  0  0  0  0
  -17.6456  -30.6584   24.0567 C   0  0  0  0  0  0
  -25.9046  -34.9459   23.5111 C   0  0  0  0  0  0
  -16.5347  -29.9086   23.6330 C   0  0  0  0  0  0
  -16.7266  -28.6504   23.0350 C   0  0  0  0  0  0
  -26.4481  -31.6589   25.0715 C   0  0  0  0  0  0
  -25.3730  -31.3715   26.1453 C   0  0  0  0  0  0
  -27.0313  -30.3018   24.6137 C   0  0  0  0  0  0
  -27.6051  -32.4313   25.7481 C   0  0  0  0  0  0
  -27.5582  -37.1803   24.8461 C   0  0  0  0  0  0
  -21.4165  -29.3034   22.3703 N   0  0  0  0  0  0
  -26.4292  -37.3784   23.9408 N   0  0  0  0  0  0
  -24.6792  -31.0673   22.0976 N   0  0  0  0  0  0
  -23.4189  -28.8181   23.3031 O   0  0  0  0  0  0
  -28.3905  -26.5868   20.1432 O   0  0  0  0  0  0
  -26.5619  -34.8921   22.4680 O   0  0  0  0  0  0
  -23.5390  -32.1409   23.7402 O   0  0  0  0  0  0
  -28.2812  -22.8600   19.2083 C   0  0  0  0  0  0
  -28.5661  -21.5430   19.6621 C   0  0  0  0  0  0
  -29.4533  -23.7891   21.0963 C   0  0  0  0  0  0
  -28.7280  -24.0117   19.9054 C   0  0  0  0  0  0
  -29.7548  -22.4715   21.5589 C   0  0  0  0  0  0
  -29.3298  -21.3158   20.8350 C   0  0  0  0  0  0
  -29.2445  -17.7563   21.9201 C   0  0  0  0  0  0
  -29.0197  -16.2572   21.5311 C   0  0  0  0  0  0
  -30.0637  -16.7248   19.3566 C   0  0  0  0  0  0
  -30.4039  -18.1876   19.7873 C   0  0  2  0  0  0
  -29.3332  -18.7697   20.7475 C   0  0  2  0  0  0
  -30.6179  -19.0693   18.5479 C   0  0  0  0  0  0
  -29.6200  -22.0462   24.0529 C   0  0  0  0  0  0
  -28.5694  -25.4275   19.2739 C   0  0  0  0  0  0
  -30.5466  -22.2883   22.8552 C   0  0  2  0  0  0
  -29.9100  -15.7490   20.4649 N   0  0  0  0  0  0
  -31.3887  -23.3858   23.1674 O   0  0  0  0  0  0
  -29.7060  -20.0545   21.3244 O   0  0  0  0  0  0
  -31.4666  -12.4773   19.1430 H   0  0  0  0  0  0
  -30.3452  -11.3784   19.8901 H   0  0  0  0  0  0
  -29.7573  -11.7513   17.4705 H   0  0  0  0  0  0
  -29.6513  -13.4717   17.7419 H   0  0  0  0  0  0
  -27.8468  -11.2975   18.8519 H   0  0  0  0  0  0
  -27.3683  -12.5929   17.7885 H   0  0  0  0  0  0
  -27.6690  -14.2534   19.5295 H   0  0  0  0  0  0
  -28.7062  -12.0345   21.3581 H   0  0  0  0  0  0
  -28.4432  -13.6747   21.8493 H   0  0  0  0  0  0
  -25.2753   -9.5679   22.4764 H   0  0  0  0  0  0
  -24.0000   -7.4624   22.7465 H   0  0  0  0  0  0
  -21.0841   -8.8757   19.8951 H   0  0  0  0  0  0
  -22.3683  -10.9665   19.6168 H   0  0  0  0  0  0
  -21.1998   -7.6145   23.9721 H   0  0  0  0  0  0
  -21.1485   -6.0523   25.9081 H   0  0  0  0  0  0
  -22.0599   -2.7610   23.2855 H   0  0  0  0  0  0
  -22.4084  -11.9872   22.4809 H   0  0  0  0  0  0
  -21.1094  -13.1245   22.2629 H   0  0  0  0  0  0
  -24.6526  -15.8424   20.5087 H   0  0  0  0  0  0
  -26.2683  -15.6240   20.0643 H   0  0  0  0  0  0
  -26.7147  -32.5472   23.1113 H   0  0  0  0  0  0
  -25.0046  -33.9743   25.0424 H   0  0  0  0  0  0
  -22.7039  -31.3052   21.4062 H   0  0  0  0  0  0
  -23.3749  -35.9637   23.3300 H   0  0  0  0  0  0
  -24.3582  -36.8925   22.2054 H   0  0  0  0  0  0
  -23.7241  -37.6504   23.6659 H   0  0  0  0  0  0
  -26.0718  -31.5704   20.6005 H   0  0  0  0  0  0
  -26.8318  -30.8557   21.9933 H   0  0  0  0  0  0
  -28.1051  -29.0285   21.1725 H   0  0  0  0  0  0
  -25.9605  -25.9175   19.0627 H   0  0  0  0  0  0
  -23.9617  -27.2886   19.0489 H   0  0  0  0  0  0
  -23.7348  -30.5947   19.4030 H   0  0  0  0  0  0
  -22.7442  -29.2441   19.8646 H   0  0  0  0  0  0
  -25.1292  -36.1950   25.0822 H   0  0  0  0  0  0
  -20.9965  -28.3243   24.1424 H   0  0  0  0  0  0
  -20.5671  -26.2282   23.3611 H   0  0  0  0  0  0
  -21.6636  -26.7441   22.1209 H   0  0  0  0  0  0
  -19.6906  -25.6299   21.1239 H   0  0  0  0  0  0
  -19.6684  -27.3204   20.6753 H   0  0  0  0  0  0
  -17.4196  -26.6679   21.4026 H   0  0  0  0  0  0
  -18.0319  -26.0061   22.9017 H   0  0  0  0  0  0
  -19.7930  -30.7266   24.2275 H   0  0  0  0  0  0
  -17.5009  -31.6265   24.5165 H   0  0  0  0  0  0
  -15.5348  -30.2989   23.7647 H   0  0  0  0  0  0
  -15.8666  -28.0825   22.7060 H   0  0  0  0  0  0
  -24.5899  -30.7071   25.7784 H   0  0  0  0  0  0
  -24.8927  -32.2879   26.4894 H   0  0  0  0  0  0
  -25.8066  -30.8882   27.0217 H   0  0  0  0  0  0
  -26.2869  -29.6777   24.1177 H   0  0  0  0  0  0
  -27.4043  -29.7262   25.4619 H   0  0  0  0  0  0
  -27.8725  -30.4312   23.9323 H   0  0  0  0  0  0
  -27.2667  -33.3609   26.2069 H   0  0  0  0  0  0
  -28.3855  -32.6880   25.0304 H   0  0  0  0  0  0
  -28.0722  -31.8429   26.5389 H   0  0  0  0  0  0
  -28.2596  -38.0103   24.7517 H   0  0  0  0  0  0
  -28.1083  -36.2637   24.6276 H   0  0  0  0  0  0
  -27.2302  -37.1437   25.8864 H   0  0  0  0  0  0
  -20.9331  -29.8761   21.6923 H   0  0  0  0  0  0
  -26.0178  -38.2860   24.1414 H   0  0  0  0  0  0
  -27.7379  -22.9814   18.2818 H   0  0  0  0  0  0
  -28.2122  -20.7118   19.0710 H   0  0  0  0  0  0
  -29.8121  -24.6529   21.6366 H   0  0  0  0  0  0
  -30.1680  -17.8198   22.4977 H   0  0  0  0  0  0
  -28.4540  -18.0692   22.6028 H   0  0  0  0  0  0
  -27.9894  -16.1226   21.2041 H   0  0  0  0  0  0
  -29.1388  -15.6591   22.4349 H   0  0  0  0  0  0
  -30.8151  -16.3802   18.6437 H   0  0  0  0  0  0
  -29.1266  -16.7251   18.7982 H   0  0  0  0  0  0
  -31.3538  -18.1573   20.3237 H   0  0  0  0  0  0
  -28.3616  -18.8282   20.2565 H   0  0  0  0  0  0
  -29.7053  -19.1580   17.9584 H   0  0  0  0  0  0
  -31.3913  -18.6561   17.9002 H   0  0  0  0  0  0
  -30.9390  -20.0728   18.8270 H   0  0  0  0  0  0
  -29.0058  -21.1591   23.8937 H   0  0  0  0  0  0
  -28.9445  -22.8863   24.2179 H   0  0  0  0  0  0
  -30.1878  -21.8849   24.9697 H   0  0  0  0  0  0
  -27.8652  -25.3891   18.4456 H   0  0  0  0  0  0
  -29.5195  -25.6107   18.7718 H   0  0  0  0  0  0
  -31.2022  -21.4237   22.7390 H   0  0  0  0  0  0
  -30.8291  -24.1259   23.3759 H   0  0  0  0  0  0
  1 25  1  0  0  0
  1 30  2  0  0  0
  1 86  1  0  0  0
  2  3  1  0  0  0
  2 25  1  0  0  0
  2 89  1  0  0  0
  2 90  1  0  0  0
  3  4  1  0  0  0
  3 91  1  0  0  0
  3 92  1  0  0  0
  4  5  1  0  0  0
  4 93  1  0  0  0
  4 94  1  0  0  0
  5  6  1  0  0  0
  5 26  1  0  0  0
  5 95  1  0  0  0
  6 25  1  0  0  0
  6 96  1  0  0  0
  6 97  1  0  0  0
  7  8  2  0  0  0
  7 26  1  0  0  0
  7 29  1  0  0  0
  8  9  1  0  0  0
  8 22  1  0  0  0
  9 10  1  0  0  0
  9 27  2  0  0  0
 10 11  2  0  0  0
 10 15  1  0  0  0
 11 12  1  0  0  0
 11 98  1  0  0  0
 12 13  2  0  0  0
 12 99  1  0  0  0
 13 14  1  0  0  0
 13 31  1  0  0  0
 14 15  2  0  0  0
 14100  1  0  0  0
 15101  1  0  0  0
 16 17  2  0  0  0
 16 21  1  0  0  0
 16 31  1  0  0  0
 17 18  1  0  0  0
 17102  1  0  0  0
 18 19  2  0  0  0
 18103  1  0  0  0
 19 20  1  0  0  0
 19 24  1  0  0  0
 20 21  2  0  0  0
 20104  1  0  0  0
 21 23  1  0  0  0
 22 28  1  0  0  0
 22 32  2  0  0  0
 26 27  1  0  0  0
 28105  1  0  0  0
 28106  1  0  0  0
 29107  1  0  0  0
 29108  1  0  0  0
 33 34  1  0  0  0
 33 66  1  0  0  0
 33 70  2  0  0  0
 34 36  1  0  0  0
 34 59  1  0  0  0
 34109  1  0  0  0
 35 44  2  0  0  0
 35 45  1  0  0  0
 35 68  1  0  0  0
 36 56  1  0  0  0
 36110  1  0  0  0
 37 39  1  0  0  0
 37 47  1  0  0  0
 37 66  1  0  0  0
 37111  1  0  0  0
 38 43  2  0  0  0
 38 46  1  0  0  0
 38 47  1  0  0  0
 39 64  1  0  0  0
 39 67  2  0  0  0
 40 52  1  0  0  0
 40 53  2  0  0  0
 40 58  1  0  0  0
 41112  1  0  0  0
 41113  1  0  0  0
 41114  1  0  0  0
 41 48  1  0  0  0
 42 43  1  0  0  0
 42 66  1  0  0  0
 42115  1  0  0  0
 42116  1  0  0  0
 43 44  1  0  0  0
 44117  1  0  0  0
 45 46  2  0  0  0
 45118  1  0  0  0
 46119  1  0  0  0
 47120  1  0  0  0
 47121  1  0  0  0
 48 56  1  0  0  0
 48 65  1  0  0  0
 48122  1  0  0  0
 49 50  1  0  0  0
 49 53  1  0  0  0
 49 64  1  0  0  0
 49123  1  0  0  0
 50 51  1  0  0  0
 50124  1  0  0  0
 50125  1  0  0  0
 51 52  1  0  0  0
 51126  1  0  0  0
 51127  1  0  0  0
 52128  1  0  0  0
 52129  1  0  0  0
 53 54  1  0  0  0
 54 55  2  0  0  0
 54130  1  0  0  0
 55 57  1  0  0  0
 55131  1  0  0  0
 56 69  2  0  0  0
 57 58  2  0  0  0
 57132  1  0  0  0
 58133  1  0  0  0
 59 60  1  0  0  0
 59 61  1  0  0  0
 59 62  1  0  0  0
 60134  1  0  0  0
 60135  1  0  0  0
 60136  1  0  0  0
 61137  1  0  0  0
 61138  1  0  0  0
 61139  1  0  0  0
 62140  1  0  0  0
 62141  1  0  0  0
 62142  1  0  0  0
 63 65  1  0  0  0
 63143  1  0  0  0
 63144  1  0  0  0
 63145  1  0  0  0
 64146  1  0  0  0
 65147  1  0  0  0
 68 84  1  0  0  0
 71 72  2  0  0  0
 71 74  1  0  0  0
 71148  1  0  0  0
 72 76  1  0  0  0
 72149  1  0  0  0
 73 74  2  0  0  0
 73 75  1  0  0  0
 73150  1  0  0  0
 74 84  1  0  0  0
 75 76  2  0  0  0
 75 85  1  0  0  0
 76 88  1  0  0  0
 77 78  1  0  0  0
 77 81  1  0  0  0
 77151  1  0  0  0
 77152  1  0  0  0
 78 86  1  0  0  0
 78153  1  0  0  0
 78154  1  0  0  0
 79 80  1  0  0  0
 79 86  1  0  0  0
 79155  1  0  0  0
 79156  1  0  0  0
 80 81  1  0  0  0
 80 82  1  0  0  0
 80157  1  0  0  0
 81 88  1  0  0  0
 81158  1  0  0  0
 82159  1  0  0  0
 82160  1  0  0  0
 82161  1  0  0  0
 83162  1  0  0  0
 83163  1  0  0  0
 83164  1  0  0  0
 83 85  1  0  0  0
 84165  1  0  0  0
 84166  1  0  0  0
 85 87  1  0  0  0
 85167  1  0  0  0
 87168  1  0  0  0
M  ISO  4   1 100  68 101  84 101  86 100
M  END
> <chiral flag>
0

> <version>
0

> <s_m_source_file>
/data/baiqing/PycharmProjects/Reinvent-master-3.2/result/LINK_invent/BTK/process_docking_weight1_custom_sum_contain_oxygen_bond_distance_aromatic_linkinvent_7_9_3/rearranged_h_0158.sdf

> <i_m_source_file_index>
34

> <r_mmod_Potential_Energy-OPLS-2005>
228.901382446289

> <r_mmod_Stretch_Energy-OPLS-2005>
64.4094161987305

> <r_mmod_Bend_Energy-OPLS-2005>
154.599334716797

> <r_mmod_Torsional_Energy-OPLS-2005>
326.955352783203

> <r_mmod_Improper_Torsional_Energy-OPLS-2005>
17.5485515594482

> <r_mmod_Van_der_Waal_Energy-OPLS-2005>
146.168029785156

> <r_mmod_Electrostatic_Energy-OPLS-2005>
-303.951507568359

> <r_mmod_Solvation_Energy-OPLS-2005>
-210.99609375

> <b_mmod_Minimization_Converged-OPLS-2005>
0

> <r_mmod_RMS_Derivative-OPLS-2005>
0.622211933135986

$$$$
34
                    3D
 Structure written by MMmdl.
167176  0  0  1  0            999 V2000
  -30.5991  -14.6469   20.5135 C   0  0  0  0  0  0
  -30.4497  -12.3954   19.4554 C   0  0  0  0  0  0
  -29.5173  -12.5103   18.2258 C   0  0  0  0  0  0
  -28.0357  -12.3552   18.6295 C   0  0  0  0  0  0
  -27.6584  -13.2126   19.8671 C   0  0  2  0  0  0
  -28.7021  -13.0441   20.9955 C   0  0  0  0  0  0
  -25.2581  -13.8160   20.5667 C   0  0  0  0  0  0
  -24.1828  -13.0430   20.9180 C   0  0  0  0  0  0
  -24.6390  -11.6902   20.8730 C   0  0  0  0  0  0
  -23.9043  -10.4285   21.0391 C   0  0  0  0  0  0
  -24.3600   -9.4210   21.9177 C   0  0  0  0  0  0
  -23.6271   -8.2242   22.0754 C   0  0  0  0  0  0
  -22.4262   -8.0272   21.3542 C   0  0  0  0  0  0
  -21.9888   -9.0241   20.4649 C   0  0  0  0  0  0
  -22.7207  -10.2128   20.3049 C   0  0  0  0  0  0
  -21.6851   -6.0729   22.5269 C   0  0  0  0  0  0
  -21.4013   -6.5632   23.8204 C   0  0  0  0  0  0
  -21.3660   -5.6790   24.9172 C   0  0  0  0  0  0
  -21.6046   -4.3050   24.7224 C   0  0  0  0  0  0
  -21.8815   -3.8141   23.4345 C   0  0  0  0  0  0
  -21.9189   -4.6955   22.3401 C   0  0  0  0  0  0
  -22.7855  -13.5244   21.1840 C   0  0  0  0  0  0
  -22.1663   -4.2145   21.0975 F   0  0  0  0  0  0
  -21.5638   -3.4527   25.7733 F   0  0  0  0  0  0
  -30.0201  -13.4048   20.4426 N   0  0  0  0  0  0
  -26.3010  -12.9330   20.3305 N   0  0  0  0  0  0
  -25.9317  -11.6486   20.5722 N   0  0  0  0  0  0
  -22.0489  -12.8253   22.0417 N   0  0  0  0  0  0
  -25.4302  -15.1876   20.4109 N   0  0  0  0  0  0
  -31.7417  -14.8563   20.0963 O   0  0  0  0  0  0
  -21.6641   -6.8864   21.4229 O   0  0  0  0  0  0
  -22.3536  -14.5544   20.6683 O   0  0  0  0  0  0
  -24.6263  -31.8592   23.2029 C   0  0  0  0  0  0
  -25.9114  -32.4766   23.8347 C   0  0  1  0  0  0
  -27.2163  -27.2914   20.1160 C   0  0  0  0  0  0
  -25.5930  -33.8570   24.2274 N   0  0  0  0  0  0
  -23.4205  -30.4833   21.5458 C   0  0  2  0  0  0
  -24.8649  -28.9371   20.1128 C   0  0  0  0  0  0
  -22.7483  -29.4620   22.4928 C   0  0  0  0  0  0
  -18.0306  -28.1367   22.8488 C   0  0  0  0  0  0
  -24.1498  -36.7280   23.2635 C   0  0  0  0  0  0
  -25.9648  -30.7765   21.3845 C   0  0  0  0  0  0
  -26.0338  -29.4041   20.7238 C   0  0  0  0  0  0
  -27.2067  -28.5897   20.7219 C   0  0  0  0  0  0
  -26.0239  -26.8947   19.4664 C   0  0  0  0  0  0
  -24.8627  -27.6876   19.4795 C   0  0  0  0  0  0
  -23.6366  -29.8209   20.1609 C   0  0  0  0  0  0
  -25.4121  -36.3066   24.0325 C   0  0  1  0  0  0
  -20.5899  -28.3682   23.1259 C   0  0  2  0  0  0
  -20.6803  -26.9404   22.5372 C   0  0  0  0  0  0
  -19.5746  -26.6337   21.5220 C   0  0  0  0  0  0
  -18.1954  -26.7876   22.1686 C   0  0  0  0  0  0
  -19.1553  -28.8843   23.2867 C   0  0  0  0  0  0
  -18.9477  -30.1460   23.8853 C   0  0  0  0  0  0
  -17.6474  -30.6575   24.0538 C   0  0  0  0  0  0
  -25.9056  -34.9440   23.5098 C   0  0  0  0  0  0
  -16.5365  -29.9061   23.6318 C   0  0  0  0  0  0
  -16.7296  -28.6475   23.0357 C   0  0  0  0  0  0
  -26.4487  -31.6599   25.0740 C   0  0  0  0  0  0
  -25.3711  -31.3757   26.1466 C   0  0  0  0  0  0
  -27.0328  -30.3003   24.6245 C   0  0  0  0  0  0
  -27.6039  -32.4343   25.7516 C   0  0  0  0  0  0
  -27.5583  -37.1795   24.8460 C   0  0  0  0  0  0
  -21.4195  -29.3046   22.3669 N   0  0  0  0  0  0
  -26.4295  -37.3763   23.9403 N   0  0  0  0  0  0
  -24.6887  -31.0569   22.1003 N   0  0  0  0  0  0
  -23.4195  -28.8164   23.3018 O   0  0  0  0  0  0
  -28.3401  -26.4445   20.2031 O   0  0  0  0  0  0
  -26.5616  -34.8909   22.4660 O   0  0  0  0  0  0
  -23.5423  -32.1436   23.7334 O   0  0  0  0  0  0
  -26.7314  -20.6211   20.5137 C   0  0  0  0  0  0
  -25.7400  -21.6044   20.7033 C   0  0  0  0  0  0
  -27.9811  -21.1800   20.5451 C   0  0  0  0  0  0
  -26.3973  -22.7842   20.8858 C   0  0  0  0  0  0
  -29.2008  -19.2381   19.2966 C   0  0  0  0  0  0
  -29.3566  -19.4434   21.8579 C   0  0  0  0  0  0
  -29.9468  -17.8556   19.4116 C   0  0  0  0  0  0
  -30.1336  -18.0772   21.8573 C   0  0  0  0  0  0
  -29.2404  -20.2585   20.5108 C   0  0  2  0  0  0
  -29.6143  -17.1460   20.7412 C   0  0  2  0  0  0
  -24.2512  -21.3698   20.7415 C   0  0  0  0  0  0
  -25.7533  -24.0804   21.2772 C   0  0  0  0  0  0
  -28.7183  -23.7826   20.6691 C   0  0  0  0  0  0
  -28.3576  -25.0306   19.7135 C   0  0  0  0  0  0
  -27.7738  -22.6058   20.6596 N   0  0  0  0  0  0
  -29.7442  -15.6470   20.8914 N   0  0  0  0  0  0
  -31.4902  -12.5330   19.1578 H   0  0  0  0  0  0
  -30.3920  -11.3968   19.8892 H   0  0  0  0  0  0
  -29.7810  -11.7592   17.4798 H   0  0  0  0  0  0
  -29.6643  -13.4787   17.7458 H   0  0  0  0  0  0
  -27.8562  -11.2996   18.8396 H   0  0  0  0  0  0
  -27.3917  -12.6100   17.7866 H   0  0  0  0  0  0
  -27.6813  -14.2518   19.5392 H   0  0  0  0  0  0
  -28.7159  -12.0111   21.3488 H   0  0  0  0  0  0
  -28.4418  -13.6454   21.8682 H   0  0  0  0  0  0
  -25.2750   -9.5697   22.4753 H   0  0  0  0  0  0
  -23.9977   -7.4646   22.7478 H   0  0  0  0  0  0
  -21.0808   -8.8756   19.8962 H   0  0  0  0  0  0
  -22.3647  -10.9665   19.6168 H   0  0  0  0  0  0
  -21.2009   -7.6142   23.9707 H   0  0  0  0  0  0
  -21.1489   -6.0521   25.9078 H   0  0  0  0  0  0
  -22.0598   -2.7599   23.2841 H   0  0  0  0  0  0
  -22.4083  -11.9904   22.4809 H   0  0  0  0  0  0
  -21.1113  -13.1307   22.2622 H   0  0  0  0  0  0
  -24.6634  -15.8415   20.5214 H   0  0  0  0  0  0
  -26.2773  -15.6271   20.0751 H   0  0  0  0  0  0
  -26.7174  -32.5409   23.1085 H   0  0  0  0  0  0
  -25.0089  -33.9731   25.0423 H   0  0  0  0  0  0
  -22.7141  -31.3032   21.4032 H   0  0  0  0  0  0
  -23.3761  -35.9615   23.3305 H   0  0  0  0  0  0
  -24.3574  -36.8894   22.2045 H   0  0  0  0  0  0
  -23.7258  -37.6484   23.6657 H   0  0  0  0  0  0
  -26.1080  -31.5392   20.6180 H   0  0  0  0  0  0
  -26.8405  -30.8153   22.0216 H   0  0  0  0  0  0
  -28.0985  -28.9396   21.2230 H   0  0  0  0  0  0
  -25.9256  -25.9555   18.9496 H   0  0  0  0  0  0
  -23.9663  -27.3252   18.9962 H   0  0  0  0  0  0
  -23.7601  -30.5994   19.4076 H   0  0  0  0  0  0
  -22.7556  -29.2531   19.8555 H   0  0  0  0  0  0
  -25.1307  -36.1909   25.0815 H   0  0  0  0  0  0
  -20.9988  -28.3250   24.1383 H   0  0  0  0  0  0
  -20.5756  -26.2275   23.3566 H   0  0  0  0  0  0
  -21.6658  -26.7453   22.1119 H   0  0  0  0  0  0
  -19.6907  -25.6231   21.1301 H   0  0  0  0  0  0
  -19.6638  -27.3112   20.6713 H   0  0  0  0  0  0
  -17.4184  -26.6551   21.4143 H   0  0  0  0  0  0
  -18.0424  -26.0057   22.9144 H   0  0  0  0  0  0
  -19.7957  -30.7296   24.2179 H   0  0  0  0  0  0
  -17.5026  -31.6267   24.5120 H   0  0  0  0  0  0
  -15.5361  -30.2946   23.7655 H   0  0  0  0  0  0
  -15.8703  -28.0777   22.7087 H   0  0  0  0  0  0
  -24.5884  -30.7105   25.7812 H   0  0  0  0  0  0
  -24.8911  -32.2934   26.4866 H   0  0  0  0  0  0
  -25.8024  -30.8959   27.0262 H   0  0  0  0  0  0
  -26.2928  -29.6758   24.1232 H   0  0  0  0  0  0
  -27.3950  -29.7249   25.4775 H   0  0  0  0  0  0
  -27.8830  -30.4260   23.9543 H   0  0  0  0  0  0
  -27.2632  -33.3640   26.2093 H   0  0  0  0  0  0
  -28.3848  -32.6916   25.0348 H   0  0  0  0  0  0
  -28.0719  -31.8480   26.5441 H   0  0  0  0  0  0
  -28.2594  -38.0098   24.7500 H   0  0  0  0  0  0
  -28.1087  -36.2622   24.6300 H   0  0  0  0  0  0
  -27.2295  -37.1457   25.8862 H   0  0  0  0  0  0
  -20.9370  -29.8794   21.6904 H   0  0  0  0  0  0
  -26.0172  -38.2836   24.1399 H   0  0  0  0  0  0
  -26.5341  -19.5634   20.4047 H   0  0  0  0  0  0
  -28.1664  -18.9682   19.0930 H   0  0  0  0  0  0
  -29.5238  -19.7543   18.3916 H   0  0  0  0  0  0
  -29.7584  -20.0964   22.6334 H   0  0  0  0  0  0
  -28.3480  -19.2032   22.1939 H   0  0  0  0  0  0
  -31.0245  -17.9990   19.3165 H   0  0  0  0  0  0
  -29.6511  -17.2233   18.5733 H   0  0  0  0  0  0
  -30.0105  -17.5984   22.8301 H   0  0  0  0  0  0
  -31.2039  -18.2510   21.7375 H   0  0  0  0  0  0
  -30.1392  -20.8661   20.4048 H   0  0  0  0  0  0
  -28.5281  -17.2130   20.8173 H   0  0  0  0  0  0
  -24.0220  -20.3095   20.6317 H   0  0  0  0  0  0
  -23.7640  -21.9047   19.9252 H   0  0  0  0  0  0
  -23.8270  -21.7162   21.6838 H   0  0  0  0  0  0
  -25.1194  -24.4523   20.4743 H   0  0  0  0  0  0
  -26.4610  -24.8537   21.5646 H   0  0  0  0  0  0
  -25.1062  -23.9269   22.1414 H   0  0  0  0  0  0
  -28.7935  -24.1308   21.6997 H   0  0  0  0  0  0
  -29.7125  -23.4148   20.4161 H   0  0  0  0  0  0
  -27.4953  -24.7536   19.1202 H   0  0  0  0  0  0
  -29.1453  -25.0417   18.9604 H   0  0  0  0  0  0
  -28.8901  -15.2409   21.2437 H   0  0  0  0  0  0
  1 25  1  0  0  0
  1 30  2  0  0  0
  1 86  1  0  0  0
  2  3  1  0  0  0
  2 25  1  0  0  0
  2 87  1  0  0  0
  2 88  1  0  0  0
  3  4  1  0  0  0
  3 89  1  0  0  0
  3 90  1  0  0  0
  4  5  1  0  0  0
  4 91  1  0  0  0
  4 92  1  0  0  0
  5  6  1  0  0  0
  5 26  1  0  0  0
  5 93  1  0  0  0
  6 25  1  0  0  0
  6 94  1  0  0  0
  6 95  1  0  0  0
  7  8  2  0  0  0
  7 26  1  0  0  0
  7 29  1  0  0  0
  8  9  1  0  0  0
  8 22  1  0  0  0
  9 10  1  0  0  0
  9 27  2  0  0  0
 10 11  2  0  0  0
 10 15  1  0  0  0
 11 12  1  0  0  0
 11 96  1  0  0  0
 12 13  2  0  0  0
 12 97  1  0  0  0
 13 14  1  0  0  0
 13 31  1  0  0  0
 14 15  2  0  0  0
 14 98  1  0  0  0
 15 99  1  0  0  0
 16 17  2  0  0  0
 16 21  1  0  0  0
 16 31  1  0  0  0
 17 18  1  0  0  0
 17100  1  0  0  0
 18 19  2  0  0  0
 18101  1  0  0  0
 19 20  1  0  0  0
 19 24  1  0  0  0
 20 21  2  0  0  0
 20102  1  0  0  0
 21 23  1  0  0  0
 22 28  1  0  0  0
 22 32  2  0  0  0
 26 27  1  0  0  0
 28103  1  0  0  0
 28104  1  0  0  0
 29105  1  0  0  0
 29106  1  0  0  0
 33 34  1  0  0  0
 33 66  1  0  0  0
 33 70  2  0  0  0
 34 36  1  0  0  0
 34 59  1  0  0  0
 34107  1  0  0  0
 35 44  2  0  0  0
 35 45  1  0  0  0
 35 68  1  0  0  0
 36 56  1  0  0  0
 36108  1  0  0  0
 37 39  1  0  0  0
 37 47  1  0  0  0
 37 66  1  0  0  0
 37109  1  0  0  0
 38 43  2  0  0  0
 38 46  1  0  0  0
 38 47  1  0  0  0
 39 64  1  0  0  0
 39 67  2  0  0  0
 40 52  1  0  0  0
 40 53  2  0  0  0
 40 58  1  0  0  0
 41110  1  0  0  0
 41111  1  0  0  0
 41112  1  0  0  0
 41 48  1  0  0  0
 42 43  1  0  0  0
 42 66  1  0  0  0
 42113  1  0  0  0
 42114  1  0  0  0
 43 44  1  0  0  0
 44115  1  0  0  0
 45 46  2  0  0  0
 45116  1  0  0  0
 46117  1  0  0  0
 47118  1  0  0  0
 47119  1  0  0  0
 48 56  1  0  0  0
 48 65  1  0  0  0
 48120  1  0  0  0
 49 50  1  0  0  0
 49 53  1  0  0  0
 49 64  1  0  0  0
 49121  1  0  0  0
 50 51  1  0  0  0
 50122  1  0  0  0
 50123  1  0  0  0
 51 52  1  0  0  0
 51124  1  0  0  0
 51125  1  0  0  0
 52126  1  0  0  0
 52127  1  0  0  0
 53 54  1  0  0  0
 54 55  2  0  0  0
 54128  1  0  0  0
 55 57  1  0  0  0
 55129  1  0  0  0
 56 69  2  0  0  0
 57 58  2  0  0  0
 57130  1  0  0  0
 58131  1  0  0  0
 59 60  1  0  0  0
 59 61  1  0  0  0
 59 62  1  0  0  0
 60132  1  0  0  0
 60133  1  0  0  0
 60134  1  0  0  0
 61135  1  0  0  0
 61136  1  0  0  0
 61137  1  0  0  0
 62138  1  0  0  0
 62139  1  0  0  0
 62140  1  0  0  0
 63 65  1  0  0  0
 63141  1  0  0  0
 63142  1  0  0  0
 63143  1  0  0  0
 64144  1  0  0  0
 65145  1  0  0  0
 68 84  1  0  0  0
 71 72  1  0  0  0
 71 73  2  0  0  0
 71146  1  0  0  0
 72 74  2  0  0  0
 72 81  1  0  0  0
 73 85  1  0  0  0
 73 79  1  0  0  0
 74 82  1  0  0  0
 74 85  1  0  0  0
 75 77  1  0  0  0
 75 79  1  0  0  0
 75147  1  0  0  0
 75148  1  0  0  0
 76 78  1  0  0  0
 76 79  1  0  0  0
 76149  1  0  0  0
 76150  1  0  0  0
 77 80  1  0  0  0
 77151  1  0  0  0
 77152  1  0  0  0
 78 80  1  0  0  0
 78153  1  0  0  0
 78154  1  0  0  0
 79155  1  0  0  0
 80 86  1  0  0  0
 80156  1  0  0  0
 81157  1  0  0  0
 81158  1  0  0  0
 81159  1  0  0  0
 82160  1  0  0  0
 82161  1  0  0  0
 82162  1  0  0  0
 83 84  1  0  0  0
 83 85  1  0  0  0
 83163  1  0  0  0
 83164  1  0  0  0
 84165  1  0  0  0
 84166  1  0  0  0
 86167  1  0  0  0
M  ISO  4   1 100  68 101  84 101  86 100
M  END
> <chiral flag>
0

> <version>
0

> <s_m_source_file>
/data/baiqing/PycharmProjects/Reinvent-master-3.2/result/LINK_invent/BTK/process_docking_weight1_custom_sum_contain_oxygen_bond_distance_aromatic_linkinvent_7_9_3/rearranged_h_0158.sdf

> <i_m_source_file_index>
35

> <r_mmod_Potential_Energy-OPLS-2005>
156.976226806641

> <r_mmod_Stretch_Energy-OPLS-2005>
98.0114135742188

> <r_mmod_Bend_Energy-OPLS-2005>
230.512237548828

> <r_mmod_Torsional_Energy-OPLS-2005>
257.408325195312

> <r_mmod_Improper_Torsional_Energy-OPLS-2005>
5.3485803604126

> <r_mmod_Van_der_Waal_Energy-OPLS-2005>
124.270523071289

> <r_mmod_Electrostatic_Energy-OPLS-2005>
-408.468688964844

> <r_mmod_Solvation_Energy-OPLS-2005>
-206.269683837891

> <b_mmod_Minimization_Converged-OPLS-2005>
0

> <r_mmod_RMS_Derivative-OPLS-2005>
2.20670914649963

$$$$
35
                    3D
 Structure written by MMmdl.
172181  0  0  1  0            999 V2000
  -30.7366  -14.5867   20.5023 C   0  0  0  0  0  0
  -30.4058  -12.3632   19.4696 C   0  0  0  0  0  0
  -29.5033  -12.4966   18.2280 C   0  0  0  0  0  0
  -28.0267  -12.3377   18.6334 C   0  0  0  0  0  0
  -27.6456  -13.2211   19.8542 C   0  0  2  0  0  0
  -28.6899  -13.1478   20.9934 C   0  0  0  0  0  0
  -25.2546  -13.8169   20.5672 C   0  0  0  0  0  0
  -24.1818  -13.0416   20.9209 C   0  0  0  0  0  0
  -24.6398  -11.6897   20.8749 C   0  0  0  0  0  0
  -23.9073  -10.4281   21.0408 C   0  0  0  0  0  0
  -24.3624   -9.4194   21.9183 C   0  0  0  0  0  0
  -23.6298   -8.2234   22.0744 C   0  0  0  0  0  0
  -22.4290   -8.0264   21.3532 C   0  0  0  0  0  0
  -21.9930   -9.0244   20.4642 C   0  0  0  0  0  0
  -22.7256  -10.2121   20.3063 C   0  0  0  0  0  0
  -21.6856   -6.0751   22.5280 C   0  0  0  0  0  0
  -21.4007   -6.5644   23.8218 C   0  0  0  0  0  0
  -21.3665   -5.6787   24.9171 C   0  0  0  0  0  0
  -21.6048   -4.3052   24.7229 C   0  0  0  0  0  0
  -21.8817   -3.8157   23.4347 C   0  0  0  0  0  0
  -21.9187   -4.6978   22.3407 C   0  0  0  0  0  0
  -22.7839  -13.5220   21.1861 C   0  0  0  0  0  0
  -22.1647   -4.2168   21.0978 F   0  0  0  0  0  0
  -21.5655   -3.4529   25.7739 F   0  0  0  0  0  0
  -30.0123  -13.4266   20.4188 N   0  0  0  0  0  0
  -26.2955  -12.9346   20.3299 N   0  0  0  0  0  0
  -25.9330  -11.6504   20.5783 N   0  0  0  0  0  0
  -22.0460  -12.8214   22.0406 N   0  0  0  0  0  0
  -25.4315  -15.1877   20.4064 N   0  0  0  0  0  0
  -31.8915  -14.6332   20.0695 O   0  0  0  0  0  0
  -21.6630   -6.8881   21.4237 O   0  0  0  0  0  0
  -22.3550  -14.5528   20.6709 O   0  0  0  0  0  0
  -24.6201  -31.8651   23.2124 C   0  0  0  0  0  0
  -25.9083  -32.4793   23.8411 C   0  0  1  0  0  0
  -27.2215  -27.3878   20.0753 C   0  0  0  0  0  0
  -25.5947  -33.8600   24.2341 N   0  0  0  0  0  0
  -23.4066  -30.4950   21.5545 C   0  0  2  0  0  0
  -24.8481  -28.9689   20.1096 C   0  0  0  0  0  0
  -22.7420  -29.4661   22.4994 C   0  0  0  0  0  0
  -18.0274  -28.1377   22.8502 C   0  0  0  0  0  0
  -24.1488  -36.7295   23.2634 C   0  0  0  0  0  0
  -25.9436  -30.8117   21.3781 C   0  0  0  0  0  0
  -26.0128  -29.4469   20.7190 C   0  0  0  0  0  0
  -27.1944  -28.6593   20.7128 C   0  0  0  0  0  0
  -26.0354  -26.9678   19.4252 C   0  0  0  0  0  0
  -24.8566  -27.7279   19.4627 C   0  0  0  0  0  0
  -23.6131  -29.8381   20.1661 C   0  0  0  0  0  0
  -25.4111  -36.3092   24.0335 C   0  0  1  0  0  0
  -20.5859  -28.3670   23.1302 C   0  0  2  0  0  0
  -20.6768  -26.9403   22.5413 C   0  0  0  0  0  0
  -19.5743  -26.6380   21.5214 C   0  0  0  0  0  0
  -18.1922  -26.7927   22.1622 C   0  0  0  0  0  0
  -19.1526  -28.8838   23.2901 C   0  0  0  0  0  0
  -18.9450  -30.1448   23.8916 C   0  0  0  0  0  0
  -17.6449  -30.6588   24.0557 C   0  0  0  0  0  0
  -25.9046  -34.9455   23.5136 C   0  0  0  0  0  0
  -16.5337  -29.9084   23.6328 C   0  0  0  0  0  0
  -16.7260  -28.6495   23.0363 C   0  0  0  0  0  0
  -26.4500  -31.6562   25.0744 C   0  0  0  0  0  0
  -25.3748  -31.3648   26.1478 C   0  0  0  0  0  0
  -27.0319  -30.2994   24.6150 C   0  0  0  0  0  0
  -27.6068  -32.4265   25.7523 C   0  0  0  0  0  0
  -27.5587  -37.1810   24.8452 C   0  0  0  0  0  0
  -21.4149  -29.3045   22.3728 N   0  0  0  0  0  0
  -26.4286  -37.3792   23.9412 N   0  0  0  0  0  0
  -24.6747  -31.0725   22.1049 N   0  0  0  0  0  0
  -23.4184  -28.8187   23.3042 O   0  0  0  0  0  0
  -28.3762  -26.6054   20.1352 O   0  0  0  0  0  0
  -26.5606  -34.8908   22.4685 O   0  0  0  0  0  0
  -23.5390  -32.1426   23.7500 O   0  0  0  0  0  0
  -27.8037  -21.8385   20.8989 C   0  0  0  0  0  0
  -30.2138  -22.2163   20.9541 C   0  0  0  0  0  0
  -27.6127  -23.1692   20.4177 C   0  0  0  0  0  0
  -30.0188  -23.5396   20.4433 C   0  0  0  0  0  0
  -29.1067  -21.3482   21.2077 C   0  0  0  0  0  0
  -28.7152  -24.0241   20.1315 C   0  0  0  0  0  0
  -29.5094  -16.6533   19.9962 C   0  0  0  0  0  0
  -31.0763  -16.5723   21.8122 C   0  0  0  0  0  0
  -28.8563  -17.9438   20.6071 C   0  0  0  0  0  0
  -30.4844  -17.8880   22.3884 C   0  0  0  0  0  0
  -26.5705  -20.9587   21.1056 C   0  0  0  0  0  0
  -31.6341  -21.7396   21.2630 C   0  0  0  0  0  0
  -26.1981  -23.7097   20.2505 C   0  0  0  0  0  0
  -31.2193  -24.4691   20.2493 C   0  0  0  0  0  0
  -29.2903  -20.0225   22.0253 C   0  0  0  0  0  0
  -28.5156  -25.3753   19.3642 C   0  0  0  0  0  0
  -30.1660  -15.7464   20.9779 N   0  0  0  0  0  0
  -29.8299  -18.7663   21.3769 N   0  3  0  0  0  0
  -31.4575  -12.4156   19.1792 H   0  0  0  0  0  0
  -30.2781  -11.3844   19.9350 H   0  0  0  0  0  0
  -29.7739  -11.7468   17.4831 H   0  0  0  0  0  0
  -29.6570  -13.4697   17.7591 H   0  0  0  0  0  0
  -27.8610  -11.2839   18.8637 H   0  0  0  0  0  0
  -27.3771  -12.5623   17.7853 H   0  0  0  0  0  0
  -27.6418  -14.2439   19.4856 H   0  0  0  0  0  0
  -28.6861  -12.1656   21.4655 H   0  0  0  0  0  0
  -28.4409  -13.8678   21.7746 H   0  0  0  0  0  0
  -25.2766   -9.5660   22.4764 H   0  0  0  0  0  0
  -24.0010   -7.4621   22.7463 H   0  0  0  0  0  0
  -21.0873   -8.8756   19.8952 H   0  0  0  0  0  0
  -22.3710  -10.9660   19.6176 H   0  0  0  0  0  0
  -21.1980   -7.6145   23.9739 H   0  0  0  0  0  0
  -21.1493   -6.0507   25.9075 H   0  0  0  0  0  0
  -22.0599   -2.7624   23.2844 H   0  0  0  0  0  0
  -22.4035  -11.9850   22.4778 H   0  0  0  0  0  0
  -21.1088  -13.1264   22.2573 H   0  0  0  0  0  0
  -24.6725  -15.8508   20.5173 H   0  0  0  0  0  0
  -26.2895  -15.6127   20.0809 H   0  0  0  0  0  0
  -26.7155  -32.5479   23.1168 H   0  0  0  0  0  0
  -25.0106  -33.9756   25.0494 H   0  0  0  0  0  0
  -22.6966  -31.3142   21.4211 H   0  0  0  0  0  0
  -23.3759  -35.9613   23.3250 H   0  0  0  0  0  0
  -24.3607  -36.8956   22.2057 H   0  0  0  0  0  0
  -23.7204  -37.6476   23.6672 H   0  0  0  0  0  0
  -26.0713  -31.5808   20.6148 H   0  0  0  0  0  0
  -26.8255  -30.8563   22.0048 H   0  0  0  0  0  0
  -28.0855  -29.0209   21.2057 H   0  0  0  0  0  0
  -25.9555  -26.0435   18.8818 H   0  0  0  0  0  0
  -23.9654  -27.3615   18.9731 H   0  0  0  0  0  0
  -23.7195  -30.6170   19.4099 H   0  0  0  0  0  0
  -22.7349  -29.2615   19.8685 H   0  0  0  0  0  0
  -25.1289  -36.1957   25.0830 H   0  0  0  0  0  0
  -20.9960  -28.3246   24.1411 H   0  0  0  0  0  0
  -20.5677  -26.2283   23.3615 H   0  0  0  0  0  0
  -21.6640  -26.7463   22.1192 H   0  0  0  0  0  0
  -19.6900  -25.6291   21.1243 H   0  0  0  0  0  0
  -19.6677  -27.3195   20.6747 H   0  0  0  0  0  0
  -17.4198  -26.6702   21.4009 H   0  0  0  0  0  0
  -18.0308  -26.0053   22.9001 H   0  0  0  0  0  0
  -19.7917  -30.7266   24.2307 H   0  0  0  0  0  0
  -17.4987  -31.6273   24.5135 H   0  0  0  0  0  0
  -15.5340  -30.2981   23.7634 H   0  0  0  0  0  0
  -15.8662  -28.0797   22.7090 H   0  0  0  0  0  0
  -24.5958  -30.6968   25.7793 H   0  0  0  0  0  0
  -24.8923  -32.2787   26.4939 H   0  0  0  0  0  0
  -25.8111  -30.8798   27.0226 H   0  0  0  0  0  0
  -26.2879  -29.6758   24.1182 H   0  0  0  0  0  0
  -27.4037  -29.7224   25.4635 H   0  0  0  0  0  0
  -27.8751  -30.4286   23.9350 H   0  0  0  0  0  0
  -27.2708  -33.3564   26.2111 H   0  0  0  0  0  0
  -28.3902  -32.6799   25.0363 H   0  0  0  0  0  0
  -28.0708  -31.8359   26.5437 H   0  0  0  0  0  0
  -28.2563  -38.0153   24.7572 H   0  0  0  0  0  0
  -28.1137  -36.2690   24.6195 H   0  0  0  0  0  0
  -27.2318  -37.1344   25.8858 H   0  0  0  0  0  0
  -20.9311  -29.8769   21.6947 H   0  0  0  0  0  0
  -26.0163  -38.2861   24.1446 H   0  0  0  0  0  0
  -30.2525  -16.9666   19.2600 H   0  0  0  0  0  0
  -28.7600  -16.1110   19.4222 H   0  0  0  0  0  0
  -31.4472  -15.9731   22.6452 H   0  0  0  0  0  0
  -31.9589  -16.8440   21.2287 H   0  0  0  0  0  0
  -28.0355  -17.6524   21.2651 H   0  0  0  0  0  0
  -28.4150  -18.5568   19.8195 H   0  0  0  0  0  0
  -31.2931  -18.4389   22.8719 H   0  0  0  0  0  0
  -29.7646  -17.6506   23.1737 H   0  0  0  0  0  0
  -25.8869  -21.0564   20.2613 H   0  0  0  0  0  0
  -26.0373  -21.2563   22.0088 H   0  0  0  0  0  0
  -26.7849  -19.8968   21.1700 H   0  0  0  0  0  0
  -32.3623  -22.1497   20.5647 H   0  0  0  0  0  0
  -31.7471  -20.6616   21.1783 H   0  0  0  0  0  0
  -31.9270  -22.0331   22.2717 H   0  0  0  0  0  0
  -25.4556  -23.2048   20.8657 H   0  0  0  0  0  0
  -25.8712  -23.6649   19.2110 H   0  0  0  0  0  0
  -26.1632  -24.7317   20.6109 H   0  0  0  0  0  0
  -31.9920  -24.3065   21.0003 H   0  0  0  0  0  0
  -30.9461  -25.5182   20.3551 H   0  0  0  0  0  0
  -31.6651  -24.3311   19.2638 H   0  0  0  0  0  0
  -28.3917  -19.7778   22.5909 H   0  0  0  0  0  0
  -29.9830  -20.3019   22.8205 H   0  0  0  0  0  0
  -27.7633  -25.2331   18.5958 H   0  0  0  0  0  0
  -29.3933  -25.5370   18.7380 H   0  0  0  0  0  0
  -30.5445  -19.0705   20.7328 H   0  0  0  0  0  0
  1 25  1  0  0  0
  1 30  2  0  0  0
  1 87  1  0  0  0
  2  3  1  0  0  0
  2 25  1  0  0  0
  2 89  1  0  0  0
  2 90  1  0  0  0
  3  4  1  0  0  0
  3 91  1  0  0  0
  3 92  1  0  0  0
  4  5  1  0  0  0
  4 93  1  0  0  0
  4 94  1  0  0  0
  5  6  1  0  0  0
  5 26  1  0  0  0
  5 95  1  0  0  0
  6 25  1  0  0  0
  6 96  1  0  0  0
  6 97  1  0  0  0
  7  8  2  0  0  0
  7 26  1  0  0  0
  7 29  1  0  0  0
  8  9  1  0  0  0
  8 22  1  0  0  0
  9 10  1  0  0  0
  9 27  2  0  0  0
 10 11  2  0  0  0
 10 15  1  0  0  0
 11 12  1  0  0  0
 11 98  1  0  0  0
 12 13  2  0  0  0
 12 99  1  0  0  0
 13 14  1  0  0  0
 13 31  1  0  0  0
 14 15  2  0  0  0
 14100  1  0  0  0
 15101  1  0  0  0
 16 17  2  0  0  0
 16 21  1  0  0  0
 16 31  1  0  0  0
 17 18  1  0  0  0
 17102  1  0  0  0
 18 19  2  0  0  0
 18103  1  0  0  0
 19 20  1  0  0  0
 19 24  1  0  0  0
 20 21  2  0  0  0
 20104  1  0  0  0
 21 23  1  0  0  0
 22 28  1  0  0  0
 22 32  2  0  0  0
 26 27  1  0  0  0
 28105  1  0  0  0
 28106  1  0  0  0
 29107  1  0  0  0
 29108  1  0  0  0
 33 34  1  0  0  0
 33 66  1  0  0  0
 33 70  2  0  0  0
 34 36  1  0  0  0
 34 59  1  0  0  0
 34109  1  0  0  0
 35 44  2  0  0  0
 35 45  1  0  0  0
 35 68  1  0  0  0
 36 56  1  0  0  0
 36110  1  0  0  0
 37 39  1  0  0  0
 37 47  1  0  0  0
 37 66  1  0  0  0
 37111  1  0  0  0
 38 43  2  0  0  0
 38 46  1  0  0  0
 38 47  1  0  0  0
 39 64  1  0  0  0
 39 67  2  0  0  0
 40 52  1  0  0  0
 40 53  2  0  0  0
 40 58  1  0  0  0
 41112  1  0  0  0
 41113  1  0  0  0
 41114  1  0  0  0
 41 48  1  0  0  0
 42 43  1  0  0  0
 42 66  1  0  0  0
 42115  1  0  0  0
 42116  1  0  0  0
 43 44  1  0  0  0
 44117  1  0  0  0
 45 46  2  0  0  0
 45118  1  0  0  0
 46119  1  0  0  0
 47120  1  0  0  0
 47121  1  0  0  0
 48 56  1  0  0  0
 48 65  1  0  0  0
 48122  1  0  0  0
 49 50  1  0  0  0
 49 53  1  0  0  0
 49 64  1  0  0  0
 49123  1  0  0  0
 50 51  1  0  0  0
 50124  1  0  0  0
 50125  1  0  0  0
 51 52  1  0  0  0
 51126  1  0  0  0
 51127  1  0  0  0
 52128  1  0  0  0
 52129  1  0  0  0
 53 54  1  0  0  0
 54 55  2  0  0  0
 54130  1  0  0  0
 55 57  1  0  0  0
 55131  1  0  0  0
 56 69  2  0  0  0
 57 58  2  0  0  0
 57132  1  0  0  0
 58133  1  0  0  0
 59 60  1  0  0  0
 59 61  1  0  0  0
 59 62  1  0  0  0
 60134  1  0  0  0
 60135  1  0  0  0
 60136  1  0  0  0
 61137  1  0  0  0
 61138  1  0  0  0
 61139  1  0  0  0
 62140  1  0  0  0
 62141  1  0  0  0
 62142  1  0  0  0
 63 65  1  0  0  0
 63143  1  0  0  0
 63144  1  0  0  0
 63145  1  0  0  0
 64146  1  0  0  0
 65147  1  0  0  0
 68 86  1  0  0  0
 71 73  2  0  0  0
 71 75  1  0  0  0
 71 81  1  0  0  0
 72 74  1  0  0  0
 72 75  2  0  0  0
 72 82  1  0  0  0
 73 76  1  0  0  0
 73 83  1  0  0  0
 74 76  2  0  0  0
 74 84  1  0  0  0
 75 85  1  0  0  0
 76 86  1  0  0  0
 77 79  1  0  0  0
 77 87  1  0  0  0
 77148  1  0  0  0
 77149  1  0  0  0
 78 80  1  0  0  0
 78 87  1  0  0  0
 78150  1  0  0  0
 78151  1  0  0  0
 79 88  1  0  0  0
 79152  1  0  0  0
 79153  1  0  0  0
 80 88  1  0  0  0
 80154  1  0  0  0
 80155  1  0  0  0
 81156  1  0  0  0
 81157  1  0  0  0
 81158  1  0  0  0
 82159  1  0  0  0
 82160  1  0  0  0
 82161  1  0  0  0
 83162  1  0  0  0
 83163  1  0  0  0
 83164  1  0  0  0
 84165  1  0  0  0
 84166  1  0  0  0
 84167  1  0  0  0
 85168  1  0  0  0
 85169  1  0  0  0
 85 88  1  0  0  0
 86170  1  0  0  0
 86171  1  0  0  0
 88172  1  0  0  0
M  CHG  1  88   1
M  ISO  4   1 100  68 101  86 101  87 100
M  END
> <chiral flag>
0

> <version>
0

> <s_m_source_file>
/data/baiqing/PycharmProjects/Reinvent-master-3.2/result/LINK_invent/BTK/process_docking_weight1_custom_sum_contain_oxygen_bond_distance_aromatic_linkinvent_7_9_3/rearranged_h_0158.sdf

> <i_m_source_file_index>
36

> <r_mmod_Potential_Energy-OPLS-2005>
174.396545410156

> <r_mmod_Stretch_Energy-OPLS-2005>
70.5801544189453

> <r_mmod_Bend_Energy-OPLS-2005>
161.644409179688

> <r_mmod_Torsional_Energy-OPLS-2005>
382.312103271484

> <r_mmod_Improper_Torsional_Energy-OPLS-2005>
9.22233295440674

> <r_mmod_Van_der_Waal_Energy-OPLS-2005>
182.670684814453

> <r_mmod_Electrostatic_Energy-OPLS-2005>
-236.138793945312

> <r_mmod_Solvation_Energy-OPLS-2005>
-431.185302734375

> <b_mmod_Minimization_Converged-OPLS-2005>
0

> <r_mmod_RMS_Derivative-OPLS-2005>
3.06094169616699

$$$$
36
                    3D
 Structure written by MMmdl.
177186  0  0  1  0            999 V2000
  -30.7202  -14.6508   20.4903 C   0  0  0  0  0  0
  -30.4095  -12.4010   19.4757 C   0  0  0  0  0  0
  -29.4999  -12.4740   18.2337 C   0  0  0  0  0  0
  -28.0313  -12.2994   18.6549 C   0  0  0  0  0  0
  -27.6428  -13.2242   19.8416 C   0  0  2  0  0  0
  -28.6860  -13.1654   20.9775 C   0  0  0  0  0  0
  -25.2555  -13.8191   20.5649 C   0  0  0  0  0  0
  -24.1879  -13.0456   20.9226 C   0  0  0  0  0  0
  -24.6453  -11.6918   20.8736 C   0  0  0  0  0  0
  -23.9135  -10.4308   21.0369 C   0  0  0  0  0  0
  -24.3659   -9.4199   21.9142 C   0  0  0  0  0  0
  -23.6304   -8.2254   22.0746 C   0  0  0  0  0  0
  -22.4282   -8.0306   21.3552 C   0  0  0  0  0  0
  -21.9927   -9.0283   20.4653 C   0  0  0  0  0  0
  -22.7305  -10.2142   20.3018 C   0  0  0  0  0  0
  -21.6869   -6.0744   22.5281 C   0  0  0  0  0  0
  -21.4055   -6.5619   23.8240 C   0  0  0  0  0  0
  -21.3653   -5.6750   24.9175 C   0  0  0  0  0  0
  -21.6023   -4.3014   24.7215 C   0  0  0  0  0  0
  -21.8824   -3.8134   23.4333 C   0  0  0  0  0  0
  -21.9213   -4.6962   22.3401 C   0  0  0  0  0  0
  -22.7893  -13.5245   21.1864 C   0  0  0  0  0  0
  -22.1655   -4.2158   21.0967 F   0  0  0  0  0  0
  -21.5601   -3.4490   25.7721 F   0  0  0  0  0  0
  -29.9888  -13.4898   20.3893 N   0  0  0  0  0  0
  -26.2972  -12.9402   20.3232 N   0  0  0  0  0  0
  -25.9393  -11.6547   20.5751 N   0  0  0  0  0  0
  -22.0486  -12.8293   22.0390 N   0  0  0  0  0  0
  -25.4202  -15.1923   20.3959 N   0  0  0  0  0  0
  -31.9178  -14.5982   20.1993 O   0  0  0  0  0  0
  -21.6634   -6.8901   21.4266 O   0  0  0  0  0  0
  -22.3601  -14.5535   20.6661 O   0  0  0  0  0  0
  -24.6165  -31.8639   23.2101 C   0  0  0  0  0  0
  -25.9067  -32.4804   23.8383 C   0  0  1  0  0  0
  -27.2030  -27.3655   20.1116 C   0  0  0  0  0  0
  -25.5931  -33.8614   24.2305 N   0  0  0  0  0  0
  -23.4076  -30.4909   21.5522 C   0  0  2  0  0  0
  -24.8526  -28.9662   20.1068 C   0  0  0  0  0  0
  -22.7433  -29.4610   22.4945 C   0  0  0  0  0  0
  -18.0276  -28.1368   22.8505 C   0  0  0  0  0  0
  -24.1494  -36.7287   23.2632 C   0  0  0  0  0  0
  -25.9461  -30.8150   21.3763 C   0  0  0  0  0  0
  -26.0185  -29.4492   20.7125 C   0  0  0  0  0  0
  -27.2000  -28.6564   20.7103 C   0  0  0  0  0  0
  -26.0239  -26.9372   19.4640 C   0  0  0  0  0  0
  -24.8515  -27.7147   19.4776 C   0  0  0  0  0  0
  -23.6198  -29.8401   20.1620 C   0  0  0  0  0  0
  -25.4113  -36.3088   24.0319 C   0  0  1  0  0  0
  -20.5871  -28.3643   23.1309 C   0  0  2  0  0  0
  -20.6775  -26.9369   22.5426 C   0  0  0  0  0  0
  -19.5745  -26.6375   21.5224 C   0  0  0  0  0  0
  -18.1917  -26.7931   22.1625 C   0  0  0  0  0  0
  -19.1538  -28.8822   23.2908 C   0  0  0  0  0  0
  -18.9457  -30.1432   23.8896 C   0  0  0  0  0  0
  -17.6472  -30.6575   24.0551 C   0  0  0  0  0  0
  -25.9035  -34.9461   23.5096 C   0  0  0  0  0  0
  -16.5355  -29.9068   23.6345 C   0  0  0  0  0  0
  -16.7276  -28.6488   23.0363 C   0  0  0  0  0  0
  -26.4510  -31.6609   25.0730 C   0  0  0  0  0  0
  -25.3781  -31.3784   26.1481 C   0  0  0  0  0  0
  -27.0340  -30.3026   24.6176 C   0  0  0  0  0  0
  -27.6052  -32.4355   25.7519 C   0  0  0  0  0  0
  -27.5576  -37.1786   24.8453 C   0  0  0  0  0  0
  -21.4144  -29.3003   22.3695 N   0  0  0  0  0  0
  -26.4291  -37.3777   23.9416 N   0  0  0  0  0  0
  -24.6747  -31.0710   22.1048 N   0  0  0  0  0  0
  -23.4226  -28.8111   23.2932 O   0  0  0  0  0  0
  -28.3118  -26.5269   20.1513 O   0  0  0  0  0  0
  -26.5572  -34.8917   22.4642 O   0  0  0  0  0  0
  -23.5336  -32.1414   23.7470 O   0  0  0  0  0  0
  -30.5803  -21.8299   19.2348 C   0  0  0  0  0  0
  -30.5553  -23.0564   18.5450 C   0  0  0  0  0  0
  -29.8447  -21.6037   20.4242 C   0  0  0  0  0  0
  -28.9599  -22.6796   20.8288 C   0  0  0  0  0  0
  -28.9820  -23.9749   20.1657 C   0  0  0  0  0  0
  -29.8054  -24.1498   19.0257 C   0  0  0  0  0  0
  -30.7297  -16.8858   19.4772 C   0  0  0  0  0  0
  -30.3888  -18.4105   19.5264 C   0  0  0  0  0  0
  -28.8775  -18.0712   21.3497 C   0  0  0  0  0  0
  -29.1902  -16.5145   21.4652 C   0  0  2  0  0  0
  -27.9877  -22.4586   21.9870 C   0  0  0  0  0  0
  -29.6854  -16.1773   22.8923 C   0  0  0  0  0  0
  -30.9878  -21.7342   23.3834 C   0  0  0  0  0  0
  -30.0694  -25.5028   17.0423 C   0  0  0  0  0  0
  -28.0637  -25.1566   20.6290 C   0  0  0  0  0  0
  -30.2628  -20.3254   21.2861 C   0  0  1  0  0  0
  -30.3351  -20.4465   22.8394 C   0  0  1  0  0  0
  -30.1014  -15.9057   20.4321 N   0  0  0  0  0  0
  -30.0427  -18.8658   20.8827 N   0  3  2  0  0  0
  -31.1235  -19.3592   23.3176 O   0  0  0  0  0  0
  -29.8800  -25.3978   18.4446 O   0  0  0  0  0  0
  -31.4586  -12.4607   19.1796 H   0  0  0  0  0  0
  -30.3095  -11.4305   19.9635 H   0  0  0  0  0  0
  -29.7807  -11.7046   17.5114 H   0  0  0  0  0  0
  -29.6407  -13.4334   17.7359 H   0  0  0  0  0  0
  -27.8990  -11.2579   18.9513 H   0  0  0  0  0  0
  -27.3675  -12.4482   17.8040 H   0  0  0  0  0  0
  -27.6468  -14.2395   19.4468 H   0  0  0  0  0  0
  -28.7098  -12.1760   21.4348 H   0  0  0  0  0  0
  -28.4128  -13.8498   21.7739 H   0  0  0  0  0  0
  -25.2814   -9.5648   22.4712 H   0  0  0  0  0  0
  -23.9993   -7.4649   22.7476 H   0  0  0  0  0  0
  -21.0849   -8.8857   19.8968 H   0  0  0  0  0  0
  -22.3801  -10.9676   19.6098 H   0  0  0  0  0  0
  -21.2069   -7.6128   23.9777 H   0  0  0  0  0  0
  -21.1432   -6.0441   25.9088 H   0  0  0  0  0  0
  -22.0606   -2.7604   23.2823 H   0  0  0  0  0  0
  -22.4063  -11.9983   22.4905 H   0  0  0  0  0  0
  -21.1109  -13.1360   22.2462 H   0  0  0  0  0  0
  -24.6290  -15.8236   20.4610 H   0  0  0  0  0  0
  -26.2287  -15.6158   19.9594 H   0  0  0  0  0  0
  -26.7119  -32.5522   23.1113 H   0  0  0  0  0  0
  -25.0166  -33.9780   25.0511 H   0  0  0  0  0  0
  -22.6939  -31.3069   21.4150 H   0  0  0  0  0  0
  -23.3766  -35.9611   23.3276 H   0  0  0  0  0  0
  -24.3584  -36.8930   22.2052 H   0  0  0  0  0  0
  -23.7237  -37.6475   23.6672 H   0  0  0  0  0  0
  -26.0659  -31.5944   20.6218 H   0  0  0  0  0  0
  -26.8285  -30.8600   22.0033 H   0  0  0  0  0  0
  -28.0981  -29.0126   21.1928 H   0  0  0  0  0  0
  -25.9904  -25.9923   18.9425 H   0  0  0  0  0  0
  -23.9564  -27.3478   18.9954 H   0  0  0  0  0  0
  -23.7246  -30.6214   19.4084 H   0  0  0  0  0  0
  -22.7455  -29.2632   19.8603 H   0  0  0  0  0  0
  -25.1290  -36.1928   25.0809 H   0  0  0  0  0  0
  -20.9961  -28.3221   24.1437 H   0  0  0  0  0  0
  -20.5693  -26.2224   23.3598 H   0  0  0  0  0  0
  -21.6631  -26.7426   22.1187 H   0  0  0  0  0  0
  -19.6894  -25.6290   21.1225 H   0  0  0  0  0  0
  -19.6707  -27.3192   20.6754 H   0  0  0  0  0  0
  -17.4194  -26.6681   21.4020 H   0  0  0  0  0  0
  -18.0311  -26.0069   22.9007 H   0  0  0  0  0  0
  -19.7933  -30.7236   24.2282 H   0  0  0  0  0  0
  -17.5021  -31.6268   24.5117 H   0  0  0  0  0  0
  -15.5338  -30.2958   23.7684 H   0  0  0  0  0  0
  -15.8677  -28.0789   22.7112 H   0  0  0  0  0  0
  -24.5854  -30.7251   25.7815 H   0  0  0  0  0  0
  -24.9112  -32.2996   26.4977 H   0  0  0  0  0  0
  -25.8106  -30.8876   27.0210 H   0  0  0  0  0  0
  -26.2912  -29.6784   24.1194 H   0  0  0  0  0  0
  -27.4020  -29.7260   25.4673 H   0  0  0  0  0  0
  -27.8791  -30.4264   23.9400 H   0  0  0  0  0  0
  -27.2612  -33.3612   26.2147 H   0  0  0  0  0  0
  -28.3864  -32.7007   25.0384 H   0  0  0  0  0  0
  -28.0738  -31.8484   26.5422 H   0  0  0  0  0  0
  -28.2552  -38.0118   24.7505 H   0  0  0  0  0  0
  -28.1099  -36.2630   24.6260 H   0  0  0  0  0  0
  -27.2284  -37.1418   25.8853 H   0  0  0  0  0  0
  -20.9271  -29.8723   21.6940 H   0  0  0  0  0  0
  -26.0156  -38.2839   24.1480 H   0  0  0  0  0  0
  -31.2676  -21.0846   18.8650 H   0  0  0  0  0  0
  -31.1878  -23.1648   17.6754 H   0  0  0  0  0  0
  -31.8143  -16.8613   19.5960 H   0  0  0  0  0  0
  -30.5483  -16.5206   18.4627 H   0  0  0  0  0  0
  -29.5631  -18.6413   18.8526 H   0  0  0  0  0  0
  -31.2495  -18.9549   19.1426 H   0  0  0  0  0  0
  -28.4998  -18.4484   22.2993 H   0  0  0  0  0  0
  -28.0592  -18.2339   20.6434 H   0  0  0  0  0  0
  -28.2177  -16.0337   21.3411 H   0  0  0  0  0  0
  -27.1257  -23.1210   21.9397 H   0  0  0  0  0  0
  -28.4436  -22.6389   22.9595 H   0  0  0  0  0  0
  -27.5963  -21.4410   21.9711 H   0  0  0  0  0  0
  -29.1640  -16.7354   23.6722 H   0  0  0  0  0  0
  -29.5319  -15.1279   23.1352 H   0  0  0  0  0  0
  -30.7512  -16.3765   23.0148 H   0  0  0  0  0  0
  -30.5579  -22.6303   22.9515 H   0  0  0  0  0  0
  -32.0515  -21.7948   23.1611 H   0  0  0  0  0  0
  -30.8554  -21.8223   24.4634 H   0  0  0  0  0  0
  -29.3758  -24.8652   16.4942 H   0  0  0  0  0  0
  -31.0971  -25.3065   16.7308 H   0  0  0  0  0  0
  -29.8331  -26.5270   16.7555 H   0  0  0  0  0  0
  -27.0550  -24.8215   20.3995 H   0  0  0  0  0  0
  -28.1083  -25.2145   21.7157 H   0  0  0  0  0  0
  -31.3349  -20.3843   21.0827 H   0  0  0  0  0  0
  -29.3349  -20.3713   23.2685 H   0  0  0  0  0  0
  -30.7739  -18.5017   21.4823 H   0  0  0  0  0  0
  -31.5581  -19.6342   24.1208 H   0  0  0  0  0  0
  1 25  1  0  0  0
  1 30  2  0  0  0
  1 88  1  0  0  0
  2  3  1  0  0  0
  2 25  1  0  0  0
  2 92  1  0  0  0
  2 93  1  0  0  0
  3  4  1  0  0  0
  3 94  1  0  0  0
  3 95  1  0  0  0
  4  5  1  0  0  0
  4 96  1  0  0  0
  4 97  1  0  0  0
  5  6  1  0  0  0
  5 26  1  0  0  0
  5 98  1  0  0  0
  6 25  1  0  0  0
  6 99  1  0  0  0
  6100  1  0  0  0
  7  8  2  0  0  0
  7 26  1  0  0  0
  7 29  1  0  0  0
  8  9  1  0  0  0
  8 22  1  0  0  0
  9 10  1  0  0  0
  9 27  2  0  0  0
 10 11  2  0  0  0
 10 15  1  0  0  0
 11 12  1  0  0  0
 11101  1  0  0  0
 12 13  2  0  0  0
 12102  1  0  0  0
 13 14  1  0  0  0
 13 31  1  0  0  0
 14 15  2  0  0  0
 14103  1  0  0  0
 15104  1  0  0  0
 16 17  2  0  0  0
 16 21  1  0  0  0
 16 31  1  0  0  0
 17 18  1  0  0  0
 17105  1  0  0  0
 18 19  2  0  0  0
 18106  1  0  0  0
 19 20  1  0  0  0
 19 24  1  0  0  0
 20 21  2  0  0  0
 20107  1  0  0  0
 21 23  1  0  0  0
 22 28  1  0  0  0
 22 32  2  0  0  0
 26 27  1  0  0  0
 28108  1  0  0  0
 28109  1  0  0  0
 29110  1  0  0  0
 29111  1  0  0  0
 33 34  1  0  0  0
 33 66  1  0  0  0
 33 70  2  0  0  0
 34 36  1  0  0  0
 34 59  1  0  0  0
 34112  1  0  0  0
 35 44  2  0  0  0
 35 45  1  0  0  0
 35 68  1  0  0  0
 36 56  1  0  0  0
 36113  1  0  0  0
 37 39  1  0  0  0
 37 47  1  0  0  0
 37 66  1  0  0  0
 37114  1  0  0  0
 38 43  2  0  0  0
 38 46  1  0  0  0
 38 47  1  0  0  0
 39 64  1  0  0  0
 39 67  2  0  0  0
 40 52  1  0  0  0
 40 53  2  0  0  0
 40 58  1  0  0  0
 41115  1  0  0  0
 41116  1  0  0  0
 41117  1  0  0  0
 41 48  1  0  0  0
 42 43  1  0  0  0
 42 66  1  0  0  0
 42118  1  0  0  0
 42119  1  0  0  0
 43 44  1  0  0  0
 44120  1  0  0  0
 45 46  2  0  0  0
 45121  1  0  0  0
 46122  1  0  0  0
 47123  1  0  0  0
 47124  1  0  0  0
 48 56  1  0  0  0
 48 65  1  0  0  0
 48125  1  0  0  0
 49 50  1  0  0  0
 49 53  1  0  0  0
 49 64  1  0  0  0
 49126  1  0  0  0
 50 51  1  0  0  0
 50127  1  0  0  0
 50128  1  0  0  0
 51 52  1  0  0  0
 51129  1  0  0  0
 51130  1  0  0  0
 52131  1  0  0  0
 52132  1  0  0  0
 53 54  1  0  0  0
 54 55  2  0  0  0
 54133  1  0  0  0
 55 57  1  0  0  0
 55134  1  0  0  0
 56 69  2  0  0  0
 57 58  2  0  0  0
 57135  1  0  0  0
 58136  1  0  0  0
 59 60  1  0  0  0
 59 61  1  0  0  0
 59 62  1  0  0  0
 60137  1  0  0  0
 60138  1  0  0  0
 60139  1  0  0  0
 61140  1  0  0  0
 61141  1  0  0  0
 61142  1  0  0  0
 62143  1  0  0  0
 62144  1  0  0  0
 62145  1  0  0  0
 63 65  1  0  0  0
 63146  1  0  0  0
 63147  1  0  0  0
 63148  1  0  0  0
 64149  1  0  0  0
 65150  1  0  0  0
 68 85  1  0  0  0
 71 72  2  0  0  0
 71 73  1  0  0  0
 71151  1  0  0  0
 72 76  1  0  0  0
 72152  1  0  0  0
 73 74  2  0  0  0
 73 86  1  0  0  0
 74 75  1  0  0  0
 74 81  1  0  0  0
 75 76  2  0  0  0
 75 85  1  0  0  0
 76 91  1  0  0  0
 77 78  1  0  0  0
 77 88  1  0  0  0
 77153  1  0  0  0
 77154  1  0  0  0
 78155  1  0  0  0
 78156  1  0  0  0
 78 89  1  0  0  0
 79 80  1  0  0  0
 79 89  1  0  0  0
 79157  1  0  0  0
 79158  1  0  0  0
 80 82  1  0  0  0
 80 88  1  0  0  0
 80159  1  0  0  0
 81160  1  0  0  0
 81161  1  0  0  0
 81162  1  0  0  0
 82163  1  0  0  0
 82164  1  0  0  0
 82165  1  0  0  0
 83166  1  0  0  0
 83167  1  0  0  0
 83168  1  0  0  0
 83 87  1  0  0  0
 84 91  1  0  0  0
 84169  1  0  0  0
 84170  1  0  0  0
 84171  1  0  0  0
 85172  1  0  0  0
 85173  1  0  0  0
 86 87  1  0  0  0
 86 89  1  0  0  0
 86174  1  0  0  0
 87 90  1  0  0  0
 87175  1  0  0  0
 89176  1  0  0  0
 90177  1  0  0  0
M  CHG  1  89   1
M  ISO  4   1 100  68 101  85 101  88 100
M  END
> <chiral flag>
0

> <version>
0

> <s_m_source_file>
/data/baiqing/PycharmProjects/Reinvent-master-3.2/result/LINK_invent/BTK/process_docking_weight1_custom_sum_contain_oxygen_bond_distance_aromatic_linkinvent_7_9_3/rearranged_h_0158.sdf

> <i_m_source_file_index>
37

> <r_mmod_Potential_Energy-OPLS-2005>
378.060333251953

> <r_mmod_Stretch_Energy-OPLS-2005>
99.165885925293

> <r_mmod_Bend_Energy-OPLS-2005>
236.97770690918

> <r_mmod_Torsional_Energy-OPLS-2005>
441.727874755859

> <r_mmod_Improper_Torsional_Energy-OPLS-2005>
18.138219833374

> <r_mmod_Van_der_Waal_Energy-OPLS-2005>
173.583724975586

> <r_mmod_Electrostatic_Energy-OPLS-2005>
-226.368988037109

> <r_mmod_Solvation_Energy-OPLS-2005>
-418.423980712891

> <b_mmod_Minimization_Converged-OPLS-2005>
0

> <r_mmod_RMS_Derivative-OPLS-2005>
6.78562688827515

$$$$
37
                    3D
 Structure written by MMmdl.
168178  0  0  1  0            999 V2000
  -30.6364  -14.8701   20.4285 C   0  0  0  0  0  0
  -30.4189  -12.5481   19.4784 C   0  0  0  0  0  0
  -29.5013  -12.5066   18.2397 C   0  0  0  0  0  0
  -28.0395  -12.2929   18.6706 C   0  0  0  0  0  0
  -27.6202  -13.2337   19.8296 C   0  0  2  0  0  0
  -28.6705  -13.2948   20.9599 C   0  0  0  0  0  0
  -25.2453  -13.8171   20.5746 C   0  0  0  0  0  0
  -24.1763  -13.0411   20.9254 C   0  0  0  0  0  0
  -24.6372  -11.6892   20.8794 C   0  0  0  0  0  0
  -23.9066  -10.4271   21.0436 C   0  0  0  0  0  0
  -24.3617   -9.4180   21.9207 C   0  0  0  0  0  0
  -23.6285   -8.2221   22.0761 C   0  0  0  0  0  0
  -22.4268   -8.0272   21.3547 C   0  0  0  0  0  0
  -21.9914   -9.0251   20.4652 C   0  0  0  0  0  0
  -22.7247  -10.2125   20.3073 C   0  0  0  0  0  0
  -21.6841   -6.0737   22.5288 C   0  0  0  0  0  0
  -21.4014   -6.5645   23.8222 C   0  0  0  0  0  0
  -21.3661   -5.6798   24.9185 C   0  0  0  0  0  0
  -21.6041   -4.3058   24.7237 C   0  0  0  0  0  0
  -21.8821   -3.8152   23.4359 C   0  0  0  0  0  0
  -21.9191   -4.6968   22.3414 C   0  0  0  0  0  0
  -22.7789  -13.5194   21.1895 C   0  0  0  0  0  0
  -22.1658   -4.2153   21.0995 F   0  0  0  0  0  0
  -21.5623   -3.4540   25.7755 F   0  0  0  0  0  0
  -29.9491  -13.6662   20.3425 N   0  0  0  0  0  0
  -26.2852  -12.9371   20.3273 N   0  0  0  0  0  0
  -25.9298  -11.6520   20.5793 N   0  0  0  0  0  0
  -22.0430  -12.8185   22.0443 N   0  0  0  0  0  0
  -25.4140  -15.1896   20.4171 N   0  0  0  0  0  0
  -31.8520  -14.8311   20.2136 O   0  0  0  0  0  0
  -21.6625   -6.8875   21.4248 O   0  0  0  0  0  0
  -22.3484  -14.5502   20.6736 O   0  0  0  0  0  0
  -24.6365  -31.8490   23.1946 C   0  0  0  0  0  0
  -25.9162  -32.4721   23.8310 C   0  0  1  0  0  0
  -27.2113  -27.1991   20.1482 C   0  0  0  0  0  0
  -25.5940  -33.8531   24.2223 N   0  0  0  0  0  0
  -23.4371  -30.4698   21.5389 C   0  0  2  0  0  0
  -24.8857  -28.9073   20.1111 C   0  0  0  0  0  0
  -22.7528  -29.4572   22.4899 C   0  0  0  0  0  0
  -18.0296  -28.1395   22.8495 C   0  0  0  0  0  0
  -24.1485  -36.7258   23.2643 C   0  0  0  0  0  0
  -25.9881  -30.7417   21.3862 C   0  0  0  0  0  0
  -26.0604  -29.3595   20.7278 C   0  0  0  0  0  0
  -27.2298  -28.5205   20.7295 C   0  0  0  0  0  0
  -26.0189  -26.8348   19.4897 C   0  0  0  0  0  0
  -24.8738  -27.6553   19.4777 C   0  0  0  0  0  0
  -23.6588  -29.8000   20.1572 C   0  0  0  0  0  0
  -25.4120  -36.3050   24.0314 C   0  0  1  0  0  0
  -20.5900  -28.3709   23.1265 C   0  0  2  0  0  0
  -20.6779  -26.9423   22.5415 C   0  0  0  0  0  0
  -19.5752  -26.6388   21.5225 C   0  0  0  0  0  0
  -18.1929  -26.7939   22.1628 C   0  0  0  0  0  0
  -19.1551  -28.8874   23.2864 C   0  0  0  0  0  0
  -18.9469  -30.1478   23.8877 C   0  0  0  0  0  0
  -17.6464  -30.6597   24.0568 C   0  0  0  0  0  0
  -25.9065  -34.9425   23.5073 C   0  0  0  0  0  0
  -16.5354  -29.9091   23.6348 C   0  0  0  0  0  0
  -16.7283  -28.6507   23.0374 C   0  0  0  0  0  0
  -26.4518  -31.6579   25.0727 C   0  0  0  0  0  0
  -25.3724  -31.3754   26.1437 C   0  0  0  0  0  0
  -27.0389  -30.2985   24.6280 C   0  0  0  0  0  0
  -27.6058  -32.4348   25.7492 C   0  0  0  0  0  0
  -27.5583  -37.1770   24.8461 C   0  0  0  0  0  0
  -21.4229  -29.3031   22.3637 N   0  0  0  0  0  0
  -26.4287  -37.3761   23.9414 N   0  0  0  0  0  0
  -24.7061  -31.0395   22.0953 N   0  0  0  0  0  0
  -23.4199  -28.8133   23.3038 O   0  0  0  0  0  0
  -28.2687  -26.2435   20.1713 O   0  0  0  0  0  0
  -26.5647  -34.8915   22.4650 O   0  0  0  0  0  0
  -23.5497  -32.1346   23.7202 O   0  0  0  0  0  0
  -29.8085  -21.1609   18.7990 C   0  0  0  0  0  0
  -29.2986  -23.5685   18.8476 C   0  0  0  0  0  0
  -29.2254  -20.9243   20.0645 C   0  0  0  0  0  0
  -28.6727  -22.1296   20.7222 C   0  0  0  0  0  0
  -28.6840  -23.4785   20.1080 C   0  0  0  0  0  0
  -29.8520  -22.4473   18.1949 C   0  0  0  0  0  0
  -28.5236  -22.7806   23.2760 C   0  0  0  0  0  0
  -28.7761  -21.2992   23.2246 C   0  0  0  0  0  0
  -28.6938  -18.2448   19.6403 C   0  0  0  0  0  0
  -30.6516  -18.7500   20.9094 C   0  0  0  0  0  0
  -28.7603  -16.6968   20.0917 C   0  0  0  0  0  0
  -30.7142  -17.2366   21.4291 C   0  0  0  0  0  0
  -29.2475  -19.3728   20.5968 C   0  0  0  0  0  0
  -28.0456  -21.9762   22.0825 C   0  0  0  0  0  0
  -30.8920  -21.5959   16.1977 C   0  0  0  0  0  0
  -27.9738  -24.8262   20.6702 C   0  0  0  0  0  0
  -30.0251  -16.1339   20.6690 N   0  0  0  0  0  0
  -30.4078  -22.6952   16.9581 O   0  0  0  0  0  0
  -31.4552  -12.6698   19.1594 H   0  0  0  0  0  0
  -30.3853  -11.6030   20.0226 H   0  0  0  0  0  0
  -29.8116  -11.7102   17.5618 H   0  0  0  0  0  0
  -29.5907  -13.4396   17.6806 H   0  0  0  0  0  0
  -27.9395  -11.2536   18.9867 H   0  0  0  0  0  0
  -27.3698  -12.4171   17.8190 H   0  0  0  0  0  0
  -27.5602  -14.2173   19.3761 H   0  0  0  0  0  0
  -28.7498  -12.3389   21.4795 H   0  0  0  0  0  0
  -28.3824  -14.0358   21.7074 H   0  0  0  0  0  0
  -25.2764   -9.5636   22.4780 H   0  0  0  0  0  0
  -23.9982   -7.4606   22.7477 H   0  0  0  0  0  0
  -21.0849   -8.8785   19.8955 H   0  0  0  0  0  0
  -22.3725  -10.9672   19.6182 H   0  0  0  0  0  0
  -21.2004   -7.6153   23.9727 H   0  0  0  0  0  0
  -21.1477   -6.0531   25.9088 H   0  0  0  0  0  0
  -22.0596   -2.7612   23.2869 H   0  0  0  0  0  0
  -22.4039  -11.9842   22.4827 H   0  0  0  0  0  0
  -21.1055  -13.1222   22.2653 H   0  0  0  0  0  0
  -24.6511  -15.8459   20.5410 H   0  0  0  0  0  0
  -26.2674  -15.6297   20.1012 H   0  0  0  0  0  0
  -26.7222  -32.5346   23.1039 H   0  0  0  0  0  0
  -25.0079  -33.9675   25.0365 H   0  0  0  0  0  0
  -22.7370  -31.2938   21.3872 H   0  0  0  0  0  0
  -23.3779  -35.9557   23.3264 H   0  0  0  0  0  0
  -24.3574  -36.8946   22.2067 H   0  0  0  0  0  0
  -23.7207  -37.6423   23.6717 H   0  0  0  0  0  0
  -26.1401  -31.5014   20.6193 H   0  0  0  0  0  0
  -26.8599  -30.7873   22.0269 H   0  0  0  0  0  0
  -28.1286  -28.8612   21.2237 H   0  0  0  0  0  0
  -25.9576  -25.8791   18.9885 H   0  0  0  0  0  0
  -23.9784  -27.3062   18.9816 H   0  0  0  0  0  0
  -23.7846  -30.5735   19.3987 H   0  0  0  0  0  0
  -22.7767  -29.2331   19.8542 H   0  0  0  0  0  0
  -25.1308  -36.1881   25.0804 H   0  0  0  0  0  0
  -20.9981  -28.3289   24.1391 H   0  0  0  0  0  0
  -20.5692  -26.2318   23.3621 H   0  0  0  0  0  0
  -21.6643  -26.7447   22.1204 H   0  0  0  0  0  0
  -19.6908  -25.6303   21.1253 H   0  0  0  0  0  0
  -19.6689  -27.3202   20.6757 H   0  0  0  0  0  0
  -17.4202  -26.6719   21.4020 H   0  0  0  0  0  0
  -18.0299  -26.0081   22.9019 H   0  0  0  0  0  0
  -19.7945  -30.7309   24.2220 H   0  0  0  0  0  0
  -17.5019  -31.6276   24.5178 H   0  0  0  0  0  0
  -15.5355  -30.2982   23.7689 H   0  0  0  0  0  0
  -15.8682  -28.0817   22.7103 H   0  0  0  0  0  0
  -24.5903  -30.7098   25.7763 H   0  0  0  0  0  0
  -24.8909  -32.2934   26.4816 H   0  0  0  0  0  0
  -25.8019  -30.8961   27.0245 H   0  0  0  0  0  0
  -26.3004  -29.6696   24.1291 H   0  0  0  0  0  0
  -27.4037  -29.7294   25.4844 H   0  0  0  0  0  0
  -27.8900  -30.4251   23.9583 H   0  0  0  0  0  0
  -27.2665  -33.3690   26.1988 H   0  0  0  0  0  0
  -28.3895  -32.6840   25.0322 H   0  0  0  0  0  0
  -28.0693  -31.8523   26.5471 H   0  0  0  0  0  0
  -28.2566  -38.0099   24.7555 H   0  0  0  0  0  0
  -28.1116  -36.2632   24.6236 H   0  0  0  0  0  0
  -27.2300  -37.1350   25.8862 H   0  0  0  0  0  0
  -20.9425  -29.8715   21.6802 H   0  0  0  0  0  0
  -26.0156  -38.2819   24.1471 H   0  0  0  0  0  0
  -30.2329  -20.3120   18.2861 H   0  0  0  0  0  0
  -29.3252  -24.5291   18.3516 H   0  0  0  0  0  0
  -29.3938  -23.4249   23.1594 H   0  0  0  0  0  0
  -27.7770  -23.1286   23.9868 H   0  0  0  0  0  0
  -28.1941  -20.6706   23.8958 H   0  0  0  0  0  0
  -29.8052  -20.9835   23.0651 H   0  0  0  0  0  0
  -27.6577  -18.4837   19.3972 H   0  0  0  0  0  0
  -29.2229  -18.3150   18.6900 H   0  0  0  0  0  0
  -31.2717  -18.8240   20.0151 H   0  0  0  0  0  0
  -31.1464  -19.3828   21.6471 H   0  0  0  0  0  0
  -28.5076  -16.1111   19.2102 H   0  0  0  0  0  0
  -27.9738  -16.5130   20.8237 H   0  0  0  0  0  0
  -30.2893  -17.2148   22.4330 H   0  0  0  0  0  0
  -31.7657  -16.9806   21.5704 H   0  0  0  0  0  0
  -28.6493  -19.3291   21.5045 H   0  0  0  0  0  0
  -26.9752  -21.7964   21.9957 H   0  0  0  0  0  0
  -31.2688  -21.9596   15.2415 H   0  0  0  0  0  0
  -30.0980  -20.8778   15.9868 H   0  0  0  0  0  0
  -31.7154  -21.0890   16.7026 H   0  0  0  0  0  0
  -28.1675  -24.8752   21.7384 H   0  0  0  0  0  0
  -26.9051  -24.6287   20.6010 H   0  0  0  0  0  0
  1 25  1  0  0  0
  1 30  2  0  0  0
  1 87  1  0  0  0
  2  3  1  0  0  0
  2 25  1  0  0  0
  2 89  1  0  0  0
  2 90  1  0  0  0
  3  4  1  0  0  0
  3 91  1  0  0  0
  3 92  1  0  0  0
  4  5  1  0  0  0
  4 93  1  0  0  0
  4 94  1  0  0  0
  5  6  1  0  0  0
  5 26  1  0  0  0
  5 95  1  0  0  0
  6 25  1  0  0  0
  6 96  1  0  0  0
  6 97  1  0  0  0
  7  8  2  0  0  0
  7 26  1  0  0  0
  7 29  1  0  0  0
  8  9  1  0  0  0
  8 22  1  0  0  0
  9 10  1  0  0  0
  9 27  2  0  0  0
 10 11  2  0  0  0
 10 15  1  0  0  0
 11 12  1  0  0  0
 11 98  1  0  0  0
 12 13  2  0  0  0
 12 99  1  0  0  0
 13 14  1  0  0  0
 13 31  1  0  0  0
 14 15  2  0  0  0
 14100  1  0  0  0
 15101  1  0  0  0
 16 17  2  0  0  0
 16 21  1  0  0  0
 16 31  1  0  0  0
 17 18  1  0  0  0
 17102  1  0  0  0
 18 19  2  0  0  0
 18103  1  0  0  0
 19 20  1  0  0  0
 19 24  1  0  0  0
 20 21  2  0  0  0
 20104  1  0  0  0
 21 23  1  0  0  0
 22 28  1  0  0  0
 22 32  2  0  0  0
 26 27  1  0  0  0
 28105  1  0  0  0
 28106  1  0  0  0
 29107  1  0  0  0
 29108  1  0  0  0
 33 34  1  0  0  0
 33 66  1  0  0  0
 33 70  2  0  0  0
 34 36  1  0  0  0
 34 59  1  0  0  0
 34109  1  0  0  0
 35 44  2  0  0  0
 35 45  1  0  0  0
 35 68  1  0  0  0
 36 56  1  0  0  0
 36110  1  0  0  0
 37 39  1  0  0  0
 37 47  1  0  0  0
 37 66  1  0  0  0
 37111  1  0  0  0
 38 43  2  0  0  0
 38 46  1  0  0  0
 38 47  1  0  0  0
 39 64  1  0  0  0
 39 67  2  0  0  0
 40 52  1  0  0  0
 40 53  2  0  0  0
 40 58  1  0  0  0
 41112  1  0  0  0
 41113  1  0  0  0
 41114  1  0  0  0
 41 48  1  0  0  0
 42 43  1  0  0  0
 42 66  1  0  0  0
 42115  1  0  0  0
 42116  1  0  0  0
 43 44  1  0  0  0
 44117  1  0  0  0
 45 46  2  0  0  0
 45118  1  0  0  0
 46119  1  0  0  0
 47120  1  0  0  0
 47121  1  0  0  0
 48 56  1  0  0  0
 48 65  1  0  0  0
 48122  1  0  0  0
 49 50  1  0  0  0
 49 53  1  0  0  0
 49 64  1  0  0  0
 49123  1  0  0  0
 50 51  1  0  0  0
 50124  1  0  0  0
 50125  1  0  0  0
 51 52  1  0  0  0
 51126  1  0  0  0
 51127  1  0  0  0
 52128  1  0  0  0
 52129  1  0  0  0
 53 54  1  0  0  0
 54 55  2  0  0  0
 54130  1  0  0  0
 55 57  1  0  0  0
 55131  1  0  0  0
 56 69  2  0  0  0
 57 58  2  0  0  0
 57132  1  0  0  0
 58133  1  0  0  0
 59 60  1  0  0  0
 59 61  1  0  0  0
 59 62  1  0  0  0
 60134  1  0  0  0
 60135  1  0  0  0
 60136  1  0  0  0
 61137  1  0  0  0
 61138  1  0  0  0
 61139  1  0  0  0
 62140  1  0  0  0
 62141  1  0  0  0
 62142  1  0  0  0
 63 65  1  0  0  0
 63143  1  0  0  0
 63144  1  0  0  0
 63145  1  0  0  0
 64146  1  0  0  0
 65147  1  0  0  0
 68 86  1  0  0  0
 71 73  2  0  0  0
 71 76  1  0  0  0
 71148  1  0  0  0
 72 75  1  0  0  0
 72 76  2  0  0  0
 72149  1  0  0  0
 73 74  1  0  0  0
 73 83  1  0  0  0
 74 75  2  0  0  0
 74 84  1  0  0  0
 75 86  1  0  0  0
 76 88  1  0  0  0
 77 78  1  0  0  0
 77 84  1  0  0  0
 77150  1  0  0  0
 77151  1  0  0  0
 78 84  1  0  0  0
 78152  1  0  0  0
 78153  1  0  0  0
 79 81  1  0  0  0
 79 83  1  0  0  0
 79154  1  0  0  0
 79155  1  0  0  0
 80 82  1  0  0  0
 80 83  1  0  0  0
 80156  1  0  0  0
 80157  1  0  0  0
 81 87  1  0  0  0
 81158  1  0  0  0
 81159  1  0  0  0
 82 87  1  0  0  0
 82160  1  0  0  0
 82161  1  0  0  0
 83162  1  0  0  0
 84163  1  0  0  0
 85 88  1  0  0  0
 85164  1  0  0  0
 85165  1  0  0  0
 85166  1  0  0  0
 86167  1  0  0  0
 86168  1  0  0  0
M  ISO  4   1 100  68 101  86 101  87 100
M  END
> <chiral flag>
0

> <version>
0

> <s_m_source_file>
/data/baiqing/PycharmProjects/Reinvent-master-3.2/result/LINK_invent/BTK/process_docking_weight1_custom_sum_contain_oxygen_bond_distance_aromatic_linkinvent_7_9_3/rearranged_h_0158.sdf

> <i_m_source_file_index>
38

> <r_mmod_Potential_Energy-OPLS-2005>
575.72998046875

> <r_mmod_Stretch_Energy-OPLS-2005>
181.245819091797

> <r_mmod_Bend_Energy-OPLS-2005>
234.133728027344

> <r_mmod_Torsional_Energy-OPLS-2005>
372.23828125

> <r_mmod_Improper_Torsional_Energy-OPLS-2005>
2.16691112518311

> <r_mmod_Van_der_Waal_Energy-OPLS-2005>
137.207061767578

> <r_mmod_Electrostatic_Energy-OPLS-2005>
-292.580047607422

> <r_mmod_Solvation_Energy-OPLS-2005>
-205.23974609375

> <b_mmod_Minimization_Converged-OPLS-2005>
0

> <r_mmod_RMS_Derivative-OPLS-2005>
1.32121503353119

$$$$
38
                    3D
 Structure written by MMmdl.
162171  0  0  1  0            999 V2000
  -30.6907  -14.5552   20.5013 C   0  0  0  0  0  0
  -30.4223  -12.3452   19.4443 C   0  0  0  0  0  0
  -29.5002  -12.5058   18.2170 C   0  0  0  0  0  0
  -28.0215  -12.3495   18.6238 C   0  0  0  0  0  0
  -27.6518  -13.2137   19.8617 C   0  0  2  0  0  0
  -28.6973  -13.0610   20.9894 C   0  0  0  0  0  0
  -25.2547  -13.8160   20.5637 C   0  0  0  0  0  0
  -24.1812  -13.0429   20.9171 C   0  0  0  0  0  0
  -24.6381  -11.6914   20.8720 C   0  0  0  0  0  0
  -23.9051  -10.4296   21.0391 C   0  0  0  0  0  0
  -24.3628   -9.4219   21.9168 C   0  0  0  0  0  0
  -23.6317   -8.2254   22.0736 C   0  0  0  0  0  0
  -22.4292   -8.0281   21.3548 C   0  0  0  0  0  0
  -21.9910   -9.0247   20.4639 C   0  0  0  0  0  0
  -22.7222  -10.2135   20.3043 C   0  0  0  0  0  0
  -21.6855   -6.0754   22.5286 C   0  0  0  0  0  0
  -21.4024   -6.5653   23.8222 C   0  0  0  0  0  0
  -21.3649   -5.6794   24.9174 C   0  0  0  0  0  0
  -21.6041   -4.3058   24.7221 C   0  0  0  0  0  0
  -21.8822   -3.8161   23.4335 C   0  0  0  0  0  0
  -21.9202   -4.6981   22.3403 C   0  0  0  0  0  0
  -22.7854  -13.5228   21.1868 C   0  0  0  0  0  0
  -22.1671   -4.2167   21.0974 F   0  0  0  0  0  0
  -21.5619   -3.4536   25.7730 F   0  0  0  0  0  0
  -30.0145  -13.3712   20.4182 N   0  0  0  0  0  0
  -26.2972  -12.9351   20.3328 N   0  0  0  0  0  0
  -25.9306  -11.6490   20.5737 N   0  0  0  0  0  0
  -22.0513  -12.8206   22.0408 N   0  0  0  0  0  0
  -25.4204  -15.1877   20.4086 N   0  0  0  0  0  0
  -31.8769  -14.6272   20.1652 O   0  0  0  0  0  0
  -21.6642   -6.8899   21.4252 O   0  0  0  0  0  0
  -22.3526  -14.5528   20.6684 O   0  0  0  0  0  0
  -24.6145  -31.8667   23.2058 C   0  0  0  0  0  0
  -25.9012  -32.4797   23.8404 C   0  0  1  0  0  0
  -27.2581  -27.4139   20.1314 C   0  0  0  0  0  0
  -25.5881  -33.8602   24.2325 N   0  0  0  0  0  0
  -23.4061  -30.4857   21.5394 C   0  0  2  0  0  0
  -24.8619  -28.9366   20.1311 C   0  0  0  0  0  0
  -22.7408  -29.4655   22.4925 C   0  0  0  0  0  0
  -18.0279  -28.1369   22.8487 C   0  0  0  0  0  0
  -24.1516  -36.7351   23.2627 C   0  0  0  0  0  0
  -25.9328  -30.8308   21.3605 C   0  0  0  0  0  0
  -26.0174  -29.4541   20.7311 C   0  0  0  0  0  0
  -27.2150  -28.7001   20.7291 C   0  0  0  0  0  0
  -26.0868  -26.9279   19.5144 C   0  0  0  0  0  0
  -24.8936  -27.6738   19.5223 C   0  0  0  0  0  0
  -23.6255  -29.8084   20.1593 C   0  0  0  0  0  0
  -25.4119  -36.3121   24.0329 C   0  0  1  0  0  0
  -20.5868  -28.3689   23.1311 C   0  0  2  0  0  0
  -20.6744  -26.9414   22.5390 C   0  0  0  0  0  0
  -19.5741  -26.6379   21.5175 C   0  0  0  0  0  0
  -18.1934  -26.7905   22.1606 C   0  0  0  0  0  0
  -19.1515  -28.8833   23.2903 C   0  0  0  0  0  0
  -18.9444  -30.1416   23.8939 C   0  0  0  0  0  0
  -17.6440  -30.6549   24.0577 C   0  0  0  0  0  0
  -25.9045  -34.9477   23.5116 C   0  0  0  0  0  0
  -16.5335  -29.9076   23.6274 C   0  0  0  0  0  0
  -16.7257  -28.6486   23.0313 C   0  0  0  0  0  0
  -26.4476  -31.6564   25.0693 C   0  0  0  0  0  0
  -25.3801  -31.3661   26.1482 C   0  0  0  0  0  0
  -27.0295  -30.3022   24.6003 C   0  0  0  0  0  0
  -27.6056  -32.4289   25.7438 C   0  0  0  0  0  0
  -27.5582  -37.1830   24.8450 C   0  0  0  0  0  0
  -21.4128  -29.3073   22.3712 N   0  0  0  0  0  0
  -26.4326  -37.3773   23.9373 N   0  0  0  0  0  0
  -24.6685  -31.0809   22.0936 N   0  0  0  0  0  0
  -23.4175  -28.8174   23.2964 O   0  0  0  0  0  0
  -28.4631  -26.7405   20.0228 O   0  0  0  0  0  0
  -26.5600  -34.8899   22.4684 O   0  0  0  0  0  0
  -23.5323  -32.1413   23.7422 O   0  0  0  0  0  0
  -27.2191  -21.8431   19.8888 C   0  0  0  0  0  0
  -29.2685  -22.3806   21.0002 C   0  0  0  0  0  0
  -28.0777  -22.8264   20.3914 C   0  0  0  0  0  0
  -27.5835  -20.4821   19.9285 C   0  0  0  0  0  0
  -28.8450  -20.1176   20.4789 C   0  0  0  0  0  0
  -29.3398  -17.8444   21.7328 C   0  0  0  0  0  0
  -29.1981  -17.8065   19.2062 C   0  0  0  0  0  0
  -29.1747  -16.2924   21.5386 C   0  0  0  0  0  0
  -30.1226  -16.5655   19.2335 C   0  0  0  0  0  0
  -29.4782  -18.6905   20.4373 C   0  0  0  0  0  0
  -26.5906  -19.5096   19.3171 C   0  0  0  0  0  0
  -27.6675  -24.2960   20.1897 C   0  0  0  0  0  0
  -28.6721  -25.4176   20.5795 C   0  0  0  0  0  0
  -29.6382  -21.0714   21.0339 N   0  0  0  0  0  0
  -29.9249  -15.6866   20.4081 N   0  0  0  0  0  0
  -31.4684  -12.4374   19.1497 H   0  0  0  0  0  0
  -30.3270  -11.3527   19.8827 H   0  0  0  0  0  0
  -29.7643  -11.7817   17.4448 H   0  0  0  0  0  0
  -29.6471  -13.4915   17.7754 H   0  0  0  0  0  0
  -27.8407  -11.2944   18.8313 H   0  0  0  0  0  0
  -27.3754  -12.6024   17.7818 H   0  0  0  0  0  0
  -27.6729  -14.2486   19.5205 H   0  0  0  0  0  0
  -28.6940  -12.0426   21.3743 H   0  0  0  0  0  0
  -28.4566  -13.7045   21.8351 H   0  0  0  0  0  0
  -25.2803   -9.5696   22.4701 H   0  0  0  0  0  0
  -24.0035   -7.4646   22.7441 H   0  0  0  0  0  0
  -21.0851   -8.8769   19.8946 H   0  0  0  0  0  0
  -22.3701  -10.9669   19.6125 H   0  0  0  0  0  0
  -21.2011   -7.6158   23.9730 H   0  0  0  0  0  0
  -21.1467   -6.0521   25.9076 H   0  0  0  0  0  0
  -22.0607   -2.7624   23.2828 H   0  0  0  0  0  0
  -22.4202  -11.9918   22.4841 H   0  0  0  0  0  0
  -21.1107  -13.1172   22.2598 H   0  0  0  0  0  0
  -24.6478  -15.8326   20.5244 H   0  0  0  0  0  0
  -26.2677  -15.6370   20.0880 H   0  0  0  0  0  0
  -26.7075  -32.5560   23.1191 H   0  0  0  0  0  0
  -25.0059  -33.9815   25.0484 H   0  0  0  0  0  0
  -22.6947  -31.2998   21.3914 H   0  0  0  0  0  0
  -23.3721  -35.9729   23.3275 H   0  0  0  0  0  0
  -24.3631  -36.8973   22.2040 H   0  0  0  0  0  0
  -23.7326  -37.6577   23.6668 H   0  0  0  0  0  0
  -26.0435  -31.5826   20.5777 H   0  0  0  0  0  0
  -26.8185  -30.9059   21.9790 H   0  0  0  0  0  0
  -28.1027  -29.1047   21.1898 H   0  0  0  0  0  0
  -26.0880  -25.9924   18.9847 H   0  0  0  0  0  0
  -24.0167  -27.2781   19.0323 H   0  0  0  0  0  0
  -23.7517  -30.5784   19.3953 H   0  0  0  0  0  0
  -22.7508  -29.2336   19.8542 H   0  0  0  0  0  0
  -25.1296  -36.1981   25.0816 H   0  0  0  0  0  0
  -21.0012  -28.3235   24.1422 H   0  0  0  0  0  0
  -20.5630  -26.2311   23.3581 H   0  0  0  0  0  0
  -21.6630  -26.7430   22.1209 H   0  0  0  0  0  0
  -19.6919  -25.6318   21.1164 H   0  0  0  0  0  0
  -19.6634  -27.3232   20.6740 H   0  0  0  0  0  0
  -17.4180  -26.6638   21.4002 H   0  0  0  0  0  0
  -18.0349  -26.0032   22.9006 H   0  0  0  0  0  0
  -19.7917  -30.7204   24.2340 H   0  0  0  0  0  0
  -17.4997  -31.6230   24.5209 H   0  0  0  0  0  0
  -15.5353  -30.3011   23.7533 H   0  0  0  0  0  0
  -15.8656  -28.0812   22.7016 H   0  0  0  0  0  0
  -24.5991  -30.6957   25.7864 H   0  0  0  0  0  0
  -24.9004  -32.2831   26.4926 H   0  0  0  0  0  0
  -25.8239  -30.8882   27.0229 H   0  0  0  0  0  0
  -26.2852  -29.6820   24.0986 H   0  0  0  0  0  0
  -27.4048  -29.7160   25.4395 H   0  0  0  0  0  0
  -27.8676  -30.4314   23.9134 H   0  0  0  0  0  0
  -27.2651  -33.3571   26.2001 H   0  0  0  0  0  0
  -28.3859  -32.6834   25.0275 H   0  0  0  0  0  0
  -28.0717  -31.8440   26.5378 H   0  0  0  0  0  0
  -28.2594  -38.0130   24.7472 H   0  0  0  0  0  0
  -28.1103  -36.2665   24.6319 H   0  0  0  0  0  0
  -27.2312  -37.1475   25.8859 H   0  0  0  0  0  0
  -20.9279  -29.8938   21.7052 H   0  0  0  0  0  0
  -26.0202  -38.2849   24.1351 H   0  0  0  0  0  0
  -26.2851  -22.1439   19.4283 H   0  0  0  0  0  0
  -29.9607  -23.0852   21.4414 H   0  0  0  0  0  0
  -30.1917  -18.0574   22.3818 H   0  0  0  0  0  0
  -28.4717  -18.2016   22.2840 H   0  0  0  0  0  0
  -28.1592  -17.4714   19.2035 H   0  0  0  0  0  0
  -29.3616  -18.3652   18.2847 H   0  0  0  0  0  0
  -28.1214  -16.1119   21.3300 H   0  0  0  0  0  0
  -29.3753  -15.7705   22.4757 H   0  0  0  0  0  0
  -31.1641  -16.8917   19.1945 H   0  0  0  0  0  0
  -29.9557  -15.9770   18.3280 H   0  0  0  0  0  0
  -30.5477  -18.8920   20.3548 H   0  0  0  0  0  0
  -26.4096  -18.6464   19.9554 H   0  0  0  0  0  0
  -26.9369  -19.1785   18.3396 H   0  0  0  0  0  0
  -25.6313  -19.9962   19.1445 H   0  0  0  0  0  0
  -26.7077  -24.4541   20.6842 H   0  0  0  0  0  0
  -27.4862  -24.3800   19.1156 H   0  0  0  0  0  0
  -28.8191  -25.4785   21.6589 H   0  0  0  0  0  0
  -29.6425  -25.1299   20.1778 H   0  0  0  0  0  0
  1 25  1  0  0  0
  1 30  2  0  0  0
  1 85  1  0  0  0
  2  3  1  0  0  0
  2 25  1  0  0  0
  2 86  1  0  0  0
  2 87  1  0  0  0
  3  4  1  0  0  0
  3 88  1  0  0  0
  3 89  1  0  0  0
  4  5  1  0  0  0
  4 90  1  0  0  0
  4 91  1  0  0  0
  5  6  1  0  0  0
  5 26  1  0  0  0
  5 92  1  0  0  0
  6 25  1  0  0  0
  6 93  1  0  0  0
  6 94  1  0  0  0
  7  8  2  0  0  0
  7 26  1  0  0  0
  7 29  1  0  0  0
  8  9  1  0  0  0
  8 22  1  0  0  0
  9 10  1  0  0  0
  9 27  2  0  0  0
 10 11  2  0  0  0
 10 15  1  0  0  0
 11 12  1  0  0  0
 11 95  1  0  0  0
 12 13  2  0  0  0
 12 96  1  0  0  0
 13 14  1  0  0  0
 13 31  1  0  0  0
 14 15  2  0  0  0
 14 97  1  0  0  0
 15 98  1  0  0  0
 16 17  2  0  0  0
 16 21  1  0  0  0
 16 31  1  0  0  0
 17 18  1  0  0  0
 17 99  1  0  0  0
 18 19  2  0  0  0
 18100  1  0  0  0
 19 20  1  0  0  0
 19 24  1  0  0  0
 20 21  2  0  0  0
 20101  1  0  0  0
 21 23  1  0  0  0
 22 28  1  0  0  0
 22 32  2  0  0  0
 26 27  1  0  0  0
 28102  1  0  0  0
 28103  1  0  0  0
 29104  1  0  0  0
 29105  1  0  0  0
 33 34  1  0  0  0
 33 66  1  0  0  0
 33 70  2  0  0  0
 34 36  1  0  0  0
 34 59  1  0  0  0
 34106  1  0  0  0
 35 44  2  0  0  0
 35 45  1  0  0  0
 35 68  1  0  0  0
 36 56  1  0  0  0
 36107  1  0  0  0
 37 39  1  0  0  0
 37 47  1  0  0  0
 37 66  1  0  0  0
 37108  1  0  0  0
 38 43  2  0  0  0
 38 46  1  0  0  0
 38 47  1  0  0  0
 39 64  1  0  0  0
 39 67  2  0  0  0
 40 52  1  0  0  0
 40 53  2  0  0  0
 40 58  1  0  0  0
 41109  1  0  0  0
 41110  1  0  0  0
 41111  1  0  0  0
 41 48  1  0  0  0
 42 43  1  0  0  0
 42 66  1  0  0  0
 42112  1  0  0  0
 42113  1  0  0  0
 43 44  1  0  0  0
 44114  1  0  0  0
 45 46  2  0  0  0
 45115  1  0  0  0
 46116  1  0  0  0
 47117  1  0  0  0
 47118  1  0  0  0
 48 56  1  0  0  0
 48 65  1  0  0  0
 48119  1  0  0  0
 49 50  1  0  0  0
 49 53  1  0  0  0
 49 64  1  0  0  0
 49120  1  0  0  0
 50 51  1  0  0  0
 50121  1  0  0  0
 50122  1  0  0  0
 51 52  1  0  0  0
 51123  1  0  0  0
 51124  1  0  0  0
 52125  1  0  0  0
 52126  1  0  0  0
 53 54  1  0  0  0
 54 55  2  0  0  0
 54127  1  0  0  0
 55 57  1  0  0  0
 55128  1  0  0  0
 56 69  2  0  0  0
 57 58  2  0  0  0
 57129  1  0  0  0
 58130  1  0  0  0
 59 60  1  0  0  0
 59 61  1  0  0  0
 59 62  1  0  0  0
 60131  1  0  0  0
 60132  1  0  0  0
 60133  1  0  0  0
 61134  1  0  0  0
 61135  1  0  0  0
 61136  1  0  0  0
 62137  1  0  0  0
 62138  1  0  0  0
 62139  1  0  0  0
 63 65  1  0  0  0
 63140  1  0  0  0
 63141  1  0  0  0
 63142  1  0  0  0
 64143  1  0  0  0
 65144  1  0  0  0
 68 83  1  0  0  0
 71 73  2  0  0  0
 71 74  1  0  0  0
 71145  1  0  0  0
 72 73  1  0  0  0
 72 84  2  0  0  0
 72146  1  0  0  0
 73 82  1  0  0  0
 74 75  2  0  0  0
 74 81  1  0  0  0
 75 84  1  0  0  0
 75 80  1  0  0  0
 76 78  1  0  0  0
 76 80  1  0  0  0
 76147  1  0  0  0
 76148  1  0  0  0
 77 79  1  0  0  0
 77 80  1  0  0  0
 77149  1  0  0  0
 77150  1  0  0  0
 78 85  1  0  0  0
 78151  1  0  0  0
 78152  1  0  0  0
 79 85  1  0  0  0
 79153  1  0  0  0
 79154  1  0  0  0
 80155  1  0  0  0
 81156  1  0  0  0
 81157  1  0  0  0
 81158  1  0  0  0
 82 83  1  0  0  0
 82159  1  0  0  0
 82160  1  0  0  0
 83161  1  0  0  0
 83162  1  0  0  0
M  ISO  4   1 100  68 101  83 101  85 100
M  END
> <chiral flag>
0

> <version>
0

> <s_m_source_file>
/data/baiqing/PycharmProjects/Reinvent-master-3.2/result/LINK_invent/BTK/process_docking_weight1_custom_sum_contain_oxygen_bond_distance_aromatic_linkinvent_7_9_3/rearranged_h_0158.sdf

> <i_m_source_file_index>
39

> <r_mmod_Potential_Energy-OPLS-2005>
94.7237167358398

> <r_mmod_Stretch_Energy-OPLS-2005>
51.1302261352539

> <r_mmod_Bend_Energy-OPLS-2005>
145.249969482422

> <r_mmod_Torsional_Energy-OPLS-2005>
345.404632568359

> <r_mmod_Improper_Torsional_Energy-OPLS-2005>
20.1874980926514

> <r_mmod_Van_der_Waal_Energy-OPLS-2005>
157.297576904297

> <r_mmod_Electrostatic_Energy-OPLS-2005>
-437.059600830078

> <r_mmod_Solvation_Energy-OPLS-2005>
-210.318222045898

> <b_mmod_Minimization_Converged-OPLS-2005>
0

> <r_mmod_RMS_Derivative-OPLS-2005>
7.03498506546021

$$$$
39
                    3D
 Structure written by MMmdl.
186196  0  0  1  0            999 V2000
  -30.6312  -14.5150   20.2955 C   0  0  0  0  0  0
  -30.4032  -12.2475   19.4396 C   0  0  0  0  0  0
  -29.4755  -12.3686   18.2111 C   0  0  0  0  0  0
  -27.9883  -12.3116   18.6455 C   0  0  0  0  0  0
  -27.6328  -13.1680   19.8990 C   0  0  2  0  0  0
  -28.7075  -13.0491   20.9941 C   0  0  0  0  0  0
  -25.2524  -13.7979   20.6047 C   0  0  0  0  0  0
  -24.1711  -13.0256   20.9437 C   0  0  0  0  0  0
  -24.6216  -11.6758   20.8905 C   0  0  0  0  0  0
  -23.8900  -10.4161   21.0439 C   0  0  0  0  0  0
  -24.3482   -9.4122   21.9249 C   0  0  0  0  0  0
  -23.6208   -8.2114   22.0741 C   0  0  0  0  0  0
  -22.4222   -8.0161   21.3473 C   0  0  0  0  0  0
  -21.9827   -9.0147   20.4619 C   0  0  0  0  0  0
  -22.7092  -10.2058   20.3073 C   0  0  0  0  0  0
  -21.6840   -6.0649   22.5248 C   0  0  0  0  0  0
  -21.4022   -6.5594   23.8180 C   0  0  0  0  0  0
  -21.3689   -5.6798   24.9193 C   0  0  0  0  0  0
  -21.6000   -4.3026   24.7261 C   0  0  0  0  0  0
  -21.8831   -3.8087   23.4399 C   0  0  0  0  0  0
  -21.9179   -4.6874   22.3425 C   0  0  0  0  0  0
  -22.7762  -13.5165   21.1954 C   0  0  0  0  0  0
  -22.1655   -4.2044   21.0999 F   0  0  0  0  0  0
  -21.5628   -3.4518   25.7777 F   0  0  0  0  0  0
  -30.0080  -13.3139   20.3580 N   0  0  0  0  0  0
  -26.2880  -12.9049   20.3768 N   0  0  0  0  0  0
  -25.9161  -11.6245   20.6046 N   0  0  0  0  0  0
  -22.0384  -12.8202   22.0593 N   0  0  0  0  0  0
  -25.4134  -15.1704   20.4629 N   0  0  0  0  0  0
  -31.8526  -14.6176   20.1665 O   0  0  0  0  0  0
  -21.6600   -6.8754   21.4181 O   0  0  0  0  0  0
  -22.3456  -14.5382   20.6658 O   0  0  0  0  0  0
  -24.6111  -31.8735   23.2194 C   0  0  0  0  0  0
  -25.8994  -32.4913   23.8479 C   0  0  1  0  0  0
  -27.2467  -27.4941   20.1239 C   0  0  0  0  0  0
  -25.5859  -33.8712   24.2443 N   0  0  0  0  0  0
  -23.4035  -30.4989   21.5514 C   0  0  2  0  0  0
  -24.8583  -28.9746   20.1168 C   0  0  0  0  0  0
  -22.7419  -29.4683   22.4947 C   0  0  0  0  0  0
  -18.0233  -28.1413   22.8491 C   0  0  0  0  0  0
  -24.1494  -36.7306   23.2647 C   0  0  0  0  0  0
  -25.9246  -30.8683   21.3594 C   0  0  0  0  0  0
  -26.0110  -29.5055   20.7066 C   0  0  0  0  0  0
  -27.2155  -28.7801   20.6948 C   0  0  0  0  0  0
  -26.0934  -26.9674   19.5073 C   0  0  0  0  0  0
  -24.8934  -27.7020   19.5144 C   0  0  0  0  0  0
  -23.6245  -29.8407   20.1617 C   0  0  0  0  0  0
  -25.4133  -36.3195   24.0377 C   0  0  1  0  0  0
  -20.5866  -28.3684   23.1320 C   0  0  2  0  0  0
  -20.6764  -26.9449   22.5384 C   0  0  0  0  0  0
  -19.5750  -26.6429   21.5208 C   0  0  0  0  0  0
  -18.1915  -26.7949   22.1626 C   0  0  0  0  0  0
  -19.1495  -28.8872   23.2910 C   0  0  0  0  0  0
  -18.9416  -30.1449   23.8965 C   0  0  0  0  0  0
  -17.6424  -30.6601   24.0561 C   0  0  0  0  0  0
  -25.9023  -34.9539   23.5225 C   0  0  0  0  0  0
  -16.5323  -29.9126   23.6297 C   0  0  0  0  0  0
  -16.7227  -28.6555   23.0333 C   0  0  0  0  0  0
  -26.4431  -31.6645   25.0741 C   0  0  0  0  0  0
  -25.3667  -31.3631   26.1444 C   0  0  0  0  0  0
  -27.0228  -30.3120   24.6015 C   0  0  0  0  0  0
  -27.6122  -32.4293   25.7391 C   0  0  0  0  0  0
  -27.5611  -37.1827   24.8483 C   0  0  0  0  0  0
  -21.4137  -29.3061   22.3690 N   0  0  0  0  0  0
  -26.4351  -37.3836   23.9384 N   0  0  0  0  0  0
  -24.6648  -31.0904   22.1051 N   0  0  0  0  0  0
  -23.4212  -28.8176   23.2924 O   0  0  0  0  0  0
  -28.3810  -26.7362   20.1773 O   0  0  0  0  0  0
  -26.5613  -34.9012   22.4790 O   0  0  0  0  0  0
  -23.5298  -32.1394   23.7635 O   0  0  0  0  0  0
  -33.4343  -21.0018   19.8124 C   0  0  0  0  0  0
  -32.4797  -22.0218   19.6002 C   0  0  0  0  0  0
  -33.1483  -19.6597   19.5372 C   0  0  0  0  0  0
  -31.2480  -21.6780   18.9505 C   0  0  0  0  0  0
  -31.0066  -20.3272   18.5914 C   0  0  0  0  0  0
  -31.8750  -19.3166   19.0457 C   0  0  0  0  0  0
  -28.2155  -17.0707   19.0666 C   0  0  0  0  0  0
  -28.7482  -17.7154   20.3388 C   0  0  0  0  0  0
  -32.6016  -24.6110   19.1867 C   0  0  0  0  0  0
  -32.4759  -23.6652   21.5765 C   0  0  0  0  0  0
  -29.1933  -15.9215   18.7855 C   0  0  0  0  0  0
  -31.9758  -25.8143   19.9142 C   0  0  0  0  0  0
  -31.0458  -24.1875   21.6411 C   0  0  0  0  0  0
  -32.8976  -23.4147   20.1151 C   0  0  1  0  0  0
  -29.9657  -16.8751   20.7578 C   0  0  1  0  0  0
  -34.2276  -18.6079   19.7419 C   0  0  0  0  0  0
  -30.1334  -22.6598   18.6128 C   0  0  0  0  0  0
  -29.8270  -19.9651   17.6956 C   0  0  0  0  0  0
  -31.3027  -17.5984   20.4790 C   0  0  0  0  0  0
  -30.3012  -26.5579   21.5819 C   0  0  0  0  0  0
  -28.7808  -26.4412   21.5205 C   0  0  0  0  0  0
  -29.8084  -15.5822   20.0836 N   0  0  0  0  0  0
  -30.8601  -25.4262   20.8199 N   0  3  1  0  0  0
  -31.4381  -18.0243   19.1199 O   0  0  0  0  0  0
  -31.4572  -12.2830   19.1543 H   0  0  0  0  0  0
  -30.2760  -11.2833   19.9363 H   0  0  0  0  0  0
  -29.6873  -11.5453   17.5287 H   0  0  0  0  0  0
  -29.6839  -13.2686   17.6352 H   0  0  0  0  0  0
  -27.7842  -11.2666   18.8800 H   0  0  0  0  0  0
  -27.3315  -12.5580   17.8122 H   0  0  0  0  0  0
  -27.5867  -14.1998   19.6147 H   0  0  0  0  0  0
  -28.7012  -12.0520   21.4316 H   0  0  0  0  0  0
  -28.5274  -13.7393   21.8192 H   0  0  0  0  0  0
  -25.2573   -9.5617   22.4911 H   0  0  0  0  0  0
  -23.9858   -7.4500   22.7470 H   0  0  0  0  0  0
  -21.0760   -8.8684   19.8963 H   0  0  0  0  0  0
  -22.3513  -10.9635   19.6218 H   0  0  0  0  0  0
  -21.2076   -7.6099   23.9651 H   0  0  0  0  0  0
  -21.1503   -6.0544   25.9085 H   0  0  0  0  0  0
  -22.0595   -2.7523   23.2938 H   0  0  0  0  0  0
  -22.3902  -11.9745   22.4810 H   0  0  0  0  0  0
  -21.0993  -13.1170   22.2779 H   0  0  0  0  0  0
  -24.6540  -15.8128   20.6642 H   0  0  0  0  0  0
  -26.2930  -15.6308   20.2584 H   0  0  0  0  0  0
  -26.7076  -32.5646   23.1272 H   0  0  0  0  0  0
  -24.9875  -33.9924   25.0503 H   0  0  0  0  0  0
  -22.6831  -31.3070   21.4098 H   0  0  0  0  0  0
  -23.3848  -35.9542   23.3352 H   0  0  0  0  0  0
  -24.3516  -36.8863   22.2029 H   0  0  0  0  0  0
  -23.7192  -37.6530   23.6574 H   0  0  0  0  0  0
  -26.0221  -31.6469   20.6032 H   0  0  0  0  0  0
  -26.8202  -30.9257   21.9696 H   0  0  0  0  0  0
  -28.1143  -29.1888   21.1369 H   0  0  0  0  0  0
  -26.1203  -25.9796   19.0793 H   0  0  0  0  0  0
  -24.0097  -27.2844   19.0560 H   0  0  0  0  0  0
  -23.7505  -30.6266   19.4127 H   0  0  0  0  0  0
  -22.7535  -29.2644   19.8501 H   0  0  0  0  0  0
  -25.1315  -36.2086   25.0877 H   0  0  0  0  0  0
  -20.9910  -28.3290   24.1466 H   0  0  0  0  0  0
  -20.5668  -26.2327   23.3558 H   0  0  0  0  0  0
  -21.6639  -26.7488   22.1198 H   0  0  0  0  0  0
  -19.6912  -25.6360   21.1221 H   0  0  0  0  0  0
  -19.6733  -27.3262   20.6765 H   0  0  0  0  0  0
  -17.4168  -26.6685   21.4015 H   0  0  0  0  0  0
  -18.0340  -26.0074   22.9021 H   0  0  0  0  0  0
  -19.7866  -30.7209   24.2476 H   0  0  0  0  0  0
  -17.4951  -31.6275   24.5160 H   0  0  0  0  0  0
  -15.5329  -30.3039   23.7567 H   0  0  0  0  0  0
  -15.8614  -28.0844   22.7078 H   0  0  0  0  0  0
  -24.5911  -30.6991   25.7597 H   0  0  0  0  0  0
  -24.8764  -32.2711   26.4955 H   0  0  0  0  0  0
  -25.7961  -30.8644   27.0151 H   0  0  0  0  0  0
  -26.2722  -29.6904   24.1141 H   0  0  0  0  0  0
  -27.4086  -29.7339   25.4414 H   0  0  0  0  0  0
  -27.8502  -30.4484   23.9071 H   0  0  0  0  0  0
  -27.2929  -33.3614   26.2072 H   0  0  0  0  0  0
  -28.3804  -32.6849   25.0062 H   0  0  0  0  0  0
  -28.0936  -31.8328   26.5163 H   0  0  0  0  0  0
  -28.2728  -38.0047   24.7526 H   0  0  0  0  0  0
  -28.1065  -36.2610   24.6364 H   0  0  0  0  0  0
  -27.2276  -37.1499   25.8881 H   0  0  0  0  0  0
  -20.9320  -29.8789   21.6947 H   0  0  0  0  0  0
  -26.0324  -38.2959   24.1354 H   0  0  0  0  0  0
  -34.3997  -21.2323   20.2440 H   0  0  0  0  0  0
  -28.1371  -17.7485   18.2166 H   0  0  0  0  0  0
  -27.1998  -16.7221   19.2596 H   0  0  0  0  0  0
  -27.9810  -17.6679   21.1083 H   0  0  0  0  0  0
  -29.0101  -18.7642   20.2042 H   0  0  0  0  0  0
  -31.9773  -24.3220   18.3455 H   0  0  0  0  0  0
  -33.5350  -24.9343   18.7264 H   0  0  0  0  0  0
  -32.6068  -22.7638   22.1778 H   0  0  0  0  0  0
  -33.1191  -24.4232   22.0290 H   0  0  0  0  0  0
  -29.9680  -16.2732   18.1024 H   0  0  0  0  0  0
  -28.7095  -15.1210   18.2372 H   0  0  0  0  0  0
  -31.5895  -26.5116   19.1637 H   0  0  0  0  0  0
  -32.7449  -26.3359   20.4859 H   0  0  0  0  0  0
  -30.7616  -24.3411   22.6821 H   0  0  0  0  0  0
  -30.3506  -23.4191   21.3001 H   0  0  0  0  0  0
  -33.9897  -23.3897   20.1648 H   0  0  0  0  0  0
  -29.9386  -16.6944   21.8311 H   0  0  0  0  0  0
  -34.0343  -17.7177   19.1381 H   0  0  0  0  0  0
  -35.1850  -19.0201   19.4177 H   0  0  0  0  0  0
  -34.3160  -18.3376   20.7947 H   0  0  0  0  0  0
  -30.1448  -23.5826   19.1684 H   0  0  0  0  0  0
  -29.1602  -22.2084   18.8165 H   0  0  0  0  0  0
  -30.1916  -22.9041   17.5535 H   0  0  0  0  0  0
  -29.9531  -18.9943   17.2171 H   0  0  0  0  0  0
  -29.7530  -20.6830   16.8725 H   0  0  0  0  0  0
  -28.8818  -19.9583   18.2345 H   0  0  0  0  0  0
  -32.1647  -16.9895   20.7410 H   0  0  0  0  0  0
  -31.3278  -18.4574   21.1612 H   0  0  0  0  0  0
  -30.6683  -26.5696   22.6109 H   0  0  0  0  0  0
  -30.5989  -27.5197   21.1613 H   0  0  0  0  0  0
  -28.3388  -27.0887   22.2846 H   0  0  0  0  0  0
  -28.4500  -25.4282   21.7679 H   0  0  0  0  0  0
  -30.0980  -25.1955   20.1953 H   0  0  0  0  0  0
  1 25  1  0  0  0
  1 30  2  0  0  0
  1 92  1  0  0  0
  2  3  1  0  0  0
  2 25  1  0  0  0
  2 95  1  0  0  0
  2 96  1  0  0  0
  3  4  1  0  0  0
  3 97  1  0  0  0
  3 98  1  0  0  0
  4  5  1  0  0  0
  4 99  1  0  0  0
  4100  1  0  0  0
  5  6  1  0  0  0
  5 26  1  0  0  0
  5101  1  0  0  0
  6 25  1  0  0  0
  6102  1  0  0  0
  6103  1  0  0  0
  7  8  2  0  0  0
  7 26  1  0  0  0
  7 29  1  0  0  0
  8  9  1  0  0  0
  8 22  1  0  0  0
  9 10  1  0  0  0
  9 27  2  0  0  0
 10 11  2  0  0  0
 10 15  1  0  0  0
 11 12  1  0  0  0
 11104  1  0  0  0
 12 13  2  0  0  0
 12105  1  0  0  0
 13 14  1  0  0  0
 13 31  1  0  0  0
 14 15  2  0  0  0
 14106  1  0  0  0
 15107  1  0  0  0
 16 17  2  0  0  0
 16 21  1  0  0  0
 16 31  1  0  0  0
 17 18  1  0  0  0
 17108  1  0  0  0
 18 19  2  0  0  0
 18109  1  0  0  0
 19 20  1  0  0  0
 19 24  1  0  0  0
 20 21  2  0  0  0
 20110  1  0  0  0
 21 23  1  0  0  0
 22 28  1  0  0  0
 22 32  2  0  0  0
 26 27  1  0  0  0
 28111  1  0  0  0
 28112  1  0  0  0
 29113  1  0  0  0
 29114  1  0  0  0
 33 34  1  0  0  0
 33 66  1  0  0  0
 33 70  2  0  0  0
 34 36  1  0  0  0
 34 59  1  0  0  0
 34115  1  0  0  0
 35 44  2  0  0  0
 35 45  1  0  0  0
 35 68  1  0  0  0
 36 56  1  0  0  0
 36116  1  0  0  0
 37 39  1  0  0  0
 37 47  1  0  0  0
 37 66  1  0  0  0
 37117  1  0  0  0
 38 43  2  0  0  0
 38 46  1  0  0  0
 38 47  1  0  0  0
 39 64  1  0  0  0
 39 67  2  0  0  0
 40 52  1  0  0  0
 40 53  2  0  0  0
 40 58  1  0  0  0
 41118  1  0  0  0
 41119  1  0  0  0
 41120  1  0  0  0
 41 48  1  0  0  0
 42 43  1  0  0  0
 42 66  1  0  0  0
 42121  1  0  0  0
 42122  1  0  0  0
 43 44  1  0  0  0
 44123  1  0  0  0
 45 46  2  0  0  0
 45124  1  0  0  0
 46125  1  0  0  0
 47126  1  0  0  0
 47127  1  0  0  0
 48 56  1  0  0  0
 48 65  1  0  0  0
 48128  1  0  0  0
 49 50  1  0  0  0
 49 53  1  0  0  0
 49 64  1  0  0  0
 49129  1  0  0  0
 50 51  1  0  0  0
 50130  1  0  0  0
 50131  1  0  0  0
 51 52  1  0  0  0
 51132  1  0  0  0
 51133  1  0  0  0
 52134  1  0  0  0
 52135  1  0  0  0
 53 54  1  0  0  0
 54 55  2  0  0  0
 54136  1  0  0  0
 55 57  1  0  0  0
 55137  1  0  0  0
 56 69  2  0  0  0
 57 58  2  0  0  0
 57138  1  0  0  0
 58139  1  0  0  0
 59 60  1  0  0  0
 59 61  1  0  0  0
 59 62  1  0  0  0
 60140  1  0  0  0
 60141  1  0  0  0
 60142  1  0  0  0
 61143  1  0  0  0
 61144  1  0  0  0
 61145  1  0  0  0
 62146  1  0  0  0
 62147  1  0  0  0
 62148  1  0  0  0
 63 65  1  0  0  0
 63149  1  0  0  0
 63150  1  0  0  0
 63151  1  0  0  0
 64152  1  0  0  0
 65153  1  0  0  0
 68 91  1  0  0  0
 71 72  2  0  0  0
 71 73  1  0  0  0
 71154  1  0  0  0
 72 74  1  0  0  0
 72 84  1  0  0  0
 73 76  2  0  0  0
 73 86  1  0  0  0
 74 75  2  0  0  0
 74 87  1  0  0  0
 75 76  1  0  0  0
 75 88  1  0  0  0
 76 94  1  0  0  0
 77 78  1  0  0  0
 77 81  1  0  0  0
 77155  1  0  0  0
 77156  1  0  0  0
 78 85  1  0  0  0
 78157  1  0  0  0
 78158  1  0  0  0
 79 82  1  0  0  0
 79 84  1  0  0  0
 79159  1  0  0  0
 79160  1  0  0  0
 80 83  1  0  0  0
 80 84  1  0  0  0
 80161  1  0  0  0
 80162  1  0  0  0
 81 92  1  0  0  0
 81163  1  0  0  0
 81164  1  0  0  0
 82 93  1  0  0  0
 82165  1  0  0  0
 82166  1  0  0  0
 83 93  1  0  0  0
 83167  1  0  0  0
 83168  1  0  0  0
 84169  1  0  0  0
 85 89  1  0  0  0
 85 92  1  0  0  0
 85170  1  0  0  0
 86171  1  0  0  0
 86172  1  0  0  0
 86173  1  0  0  0
 87174  1  0  0  0
 87175  1  0  0  0
 87176  1  0  0  0
 88177  1  0  0  0
 88178  1  0  0  0
 88179  1  0  0  0
 89 94  1  0  0  0
 89180  1  0  0  0
 89181  1  0  0  0
 90 91  1  0  0  0
 90182  1  0  0  0
 90183  1  0  0  0
 90 93  1  0  0  0
 91184  1  0  0  0
 91185  1  0  0  0
 93186  1  0  0  0
M  CHG  1  93   1
M  ISO  4   1 100  68 101  91 101  92 100
M  END
> <chiral flag>
0

> <version>
0

> <s_m_source_file>
/data/baiqing/PycharmProjects/Reinvent-master-3.2/result/LINK_invent/BTK/process_docking_weight1_custom_sum_contain_oxygen_bond_distance_aromatic_linkinvent_7_9_3/rearranged_h_0158.sdf

> <i_m_source_file_index>
40

> <r_mmod_Potential_Energy-OPLS-2005>
314.584106445312

> <r_mmod_Stretch_Energy-OPLS-2005>
41.036376953125

> <r_mmod_Bend_Energy-OPLS-2005>
154.322982788086

> <r_mmod_Torsional_Energy-OPLS-2005>
537.614318847656

> <r_mmod_Improper_Torsional_Energy-OPLS-2005>
10.4433536529541

> <r_mmod_Van_der_Waal_Energy-OPLS-2005>
186.260208129883

> <r_mmod_Electrostatic_Energy-OPLS-2005>
-252.307479858398

> <r_mmod_Solvation_Energy-OPLS-2005>
-400.016845703125

> <b_mmod_Minimization_Converged-OPLS-2005>
0

> <r_mmod_RMS_Derivative-OPLS-2005>
11.3226699829102

$$$$
40
                    3D
 Structure written by MMmdl.
172182  0  0  1  0            999 V2000
  -30.7437  -14.5144   20.5668 C   0  0  0  0  0  0
  -30.4135  -12.3372   19.4415 C   0  0  0  0  0  0
  -29.4926  -12.4999   18.2163 C   0  0  0  0  0  0
  -28.0180  -12.3527   18.6324 C   0  0  0  0  0  0
  -27.6552  -13.2204   19.8678 C   0  0  2  0  0  0
  -28.7003  -13.0692   20.9970 C   0  0  0  0  0  0
  -25.2556  -13.8190   20.5695 C   0  0  0  0  0  0
  -24.1821  -13.0446   20.9177 C   0  0  0  0  0  0
  -24.6395  -11.6918   20.8734 C   0  0  0  0  0  0
  -23.9066  -10.4299   21.0397 C   0  0  0  0  0  0
  -24.3612   -9.4217   21.9181 C   0  0  0  0  0  0
  -23.6292   -8.2253   22.0756 C   0  0  0  0  0  0
  -22.4280   -8.0282   21.3540 C   0  0  0  0  0  0
  -21.9912   -9.0250   20.4638 C   0  0  0  0  0  0
  -22.7239  -10.2133   20.3046 C   0  0  0  0  0  0
  -21.6852   -6.0733   22.5275 C   0  0  0  0  0  0
  -21.4013   -6.5637   23.8207 C   0  0  0  0  0  0
  -21.3657   -5.6790   24.9168 C   0  0  0  0  0  0
  -21.6047   -4.3054   24.7219 C   0  0  0  0  0  0
  -21.8821   -3.8143   23.4342 C   0  0  0  0  0  0
  -21.9195   -4.6960   22.3398 C   0  0  0  0  0  0
  -22.7842  -13.5230   21.1843 C   0  0  0  0  0  0
  -22.1664   -4.2148   21.0974 F   0  0  0  0  0  0
  -21.5631   -3.4538   25.7732 F   0  0  0  0  0  0
  -30.0262  -13.3603   20.4313 N   0  0  0  0  0  0
  -26.3001  -12.9385   20.3365 N   0  0  0  0  0  0
  -25.9331  -11.6531   20.5777 N   0  0  0  0  0  0
  -22.0479  -12.8210   22.0385 N   0  0  0  0  0  0
  -25.4272  -15.1911   20.4108 N   0  0  0  0  0  0
  -31.8821  -14.6229   20.1083 O   0  0  0  0  0  0
  -21.6641   -6.8879   21.4239 O   0  0  0  0  0  0
  -22.3532  -14.5543   20.6706 O   0  0  0  0  0  0
  -24.6248  -31.8686   23.2152 C   0  0  0  0  0  0
  -25.9120  -32.4825   23.8443 C   0  0  1  0  0  0
  -27.1992  -27.3491   20.0830 C   0  0  0  0  0  0
  -25.5967  -33.8621   24.2370 N   0  0  0  0  0  0
  -23.4144  -30.5040   21.5604 C   0  0  2  0  0  0
  -24.8542  -28.9918   20.1077 C   0  0  0  0  0  0
  -22.7466  -29.4677   22.4963 C   0  0  0  0  0  0
  -18.0284  -28.1383   22.8494 C   0  0  0  0  0  0
  -24.1487  -36.7284   23.2639 C   0  0  0  0  0  0
  -25.9605  -30.8027   21.3935 C   0  0  0  0  0  0
  -26.0271  -29.4380   20.7290 C   0  0  0  0  0  0
  -27.1988  -28.6215   20.7313 C   0  0  0  0  0  0
  -26.0066  -27.0068   19.3819 C   0  0  0  0  0  0
  -24.8434  -27.7744   19.4305 C   0  0  0  0  0  0
  -23.6252  -29.8673   20.1675 C   0  0  0  0  0  0
  -25.4108  -36.3100   24.0345 C   0  0  1  0  0  0
  -20.5894  -28.3685   23.1278 C   0  0  2  0  0  0
  -20.6787  -26.9420   22.5381 C   0  0  0  0  0  0
  -19.5747  -26.6397   21.5204 C   0  0  0  0  0  0
  -18.1929  -26.7928   22.1625 C   0  0  0  0  0  0
  -19.1541  -28.8849   23.2882 C   0  0  0  0  0  0
  -18.9463  -30.1453   23.8897 C   0  0  0  0  0  0
  -17.6464  -30.6587   24.0571 C   0  0  0  0  0  0
  -25.9053  -34.9470   23.5144 C   0  0  0  0  0  0
  -16.5353  -29.9086   23.6348 C   0  0  0  0  0  0
  -16.7271  -28.6503   23.0367 C   0  0  0  0  0  0
  -26.4520  -31.6596   25.0770 C   0  0  0  0  0  0
  -25.3760  -31.3663   26.1484 C   0  0  0  0  0  0
  -27.0392  -30.3043   24.6178 C   0  0  0  0  0  0
  -27.6077  -32.4320   25.7547 C   0  0  0  0  0  0
  -27.5570  -37.1807   24.8477 C   0  0  0  0  0  0
  -21.4183  -29.3055   22.3680 N   0  0  0  0  0  0
  -26.4285  -37.3788   23.9418 N   0  0  0  0  0  0
  -24.6856  -31.0717   22.1125 N   0  0  0  0  0  0
  -23.4209  -28.8169   23.2990 O   0  0  0  0  0  0
  -28.2737  -26.4352   20.1609 O   0  0  0  0  0  0
  -26.5580  -34.8915   22.4684 O   0  0  0  0  0  0
  -23.5412  -32.1488   23.7476 O   0  0  0  0  0  0
  -29.7040  -23.4957   20.7007 C   0  0  0  0  0  0
  -30.1591  -22.1734   20.9845 C   0  0  0  0  0  0
  -28.5284  -23.7228   19.9555 C   0  0  0  0  0  0
  -27.8077  -22.5772   19.4919 C   0  0  0  0  0  0
  -28.2092  -21.2526   19.8337 C   0  0  0  0  0  0
  -29.4092  -21.0284   20.5702 C   0  0  0  0  0  0
  -32.6396  -22.9137   21.5118 C   0  0  0  0  0  0
  -32.6899  -21.4750   21.0589 C   0  0  0  0  0  0
  -31.2197  -17.7380   20.1328 C   0  0  0  0  0  0
  -30.1678  -17.8064   22.4751 C   0  0  0  0  0  0
  -30.2358  -18.8574   19.7279 C   0  0  0  0  0  0
  -29.2770  -18.9780   21.9763 C   0  0  0  0  0  0
  -31.4486  -22.0052   21.7436 C   0  0  0  0  0  0
  -30.8114  -16.9024   21.3818 C   0  0  0  0  0  0
  -26.5499  -22.7478   18.6247 C   0  0  0  0  0  0
  -27.3138  -20.0915   19.3856 C   0  0  0  0  0  0
  -27.9372  -25.1165   19.6065 C   0  0  0  0  0  0
  -29.8906  -19.7160   20.8648 N   0  0  0  0  0  0
  -30.1350  -15.5948   21.1182 N   0  0  0  0  0  0
  -31.4587  -12.4145   19.1376 H   0  0  0  0  0  0
  -30.3066  -11.3409   19.8739 H   0  0  0  0  0  0
  -29.7419  -11.7576   17.4568 H   0  0  0  0  0  0
  -29.6515  -13.4766   17.7564 H   0  0  0  0  0  0
  -27.8453  -11.2993   18.8566 H   0  0  0  0  0  0
  -27.3624  -12.5948   17.7951 H   0  0  0  0  0  0
  -27.6808  -14.2583   19.5349 H   0  0  0  0  0  0
  -28.6858  -12.0548   21.3985 H   0  0  0  0  0  0
  -28.4604  -13.7246   21.8349 H   0  0  0  0  0  0
  -25.2755   -9.5697   22.4753 H   0  0  0  0  0  0
  -23.9999   -7.4647   22.7481 H   0  0  0  0  0  0
  -21.0847   -8.8761   19.8935 H   0  0  0  0  0  0
  -22.3698  -10.9665   19.6146 H   0  0  0  0  0  0
  -21.2004   -7.6143   23.9708 H   0  0  0  0  0  0
  -21.1477   -6.0519   25.9072 H   0  0  0  0  0  0
  -22.0604   -2.7608   23.2840 H   0  0  0  0  0  0
  -22.4108  -11.9863   22.4744 H   0  0  0  0  0  0
  -21.1094  -13.1222   22.2586 H   0  0  0  0  0  0
  -24.6611  -15.8467   20.5181 H   0  0  0  0  0  0
  -26.2834  -15.6289   20.0952 H   0  0  0  0  0  0
  -26.7177  -32.5520   23.1185 H   0  0  0  0  0  0
  -25.0191  -33.9791   25.0564 H   0  0  0  0  0  0
  -22.7069  -31.3263   21.4328 H   0  0  0  0  0  0
  -23.3763  -35.9609   23.3314 H   0  0  0  0  0  0
  -24.3566  -36.8864   22.2048 H   0  0  0  0  0  0
  -23.7229  -37.6488   23.6636 H   0  0  0  0  0  0
  -26.0956  -31.5707   20.6311 H   0  0  0  0  0  0
  -26.8420  -30.8424   22.0205 H   0  0  0  0  0  0
  -28.0858  -28.9472   21.2566 H   0  0  0  0  0  0
  -25.8935  -26.1223   18.7752 H   0  0  0  0  0  0
  -23.9556  -27.4371   18.9139 H   0  0  0  0  0  0
  -23.7413  -30.6601   19.4269 H   0  0  0  0  0  0
  -22.7448  -29.3020   19.8582 H   0  0  0  0  0  0
  -25.1274  -36.1967   25.0835 H   0  0  0  0  0  0
  -20.9987  -28.3261   24.1401 H   0  0  0  0  0  0
  -20.5741  -26.2286   23.3571 H   0  0  0  0  0  0
  -21.6646  -26.7490   22.1140 H   0  0  0  0  0  0
  -19.6916  -25.6318   21.1210 H   0  0  0  0  0  0
  -19.6676  -27.3225   20.6750 H   0  0  0  0  0  0
  -17.4201  -26.6686   21.4028 H   0  0  0  0  0  0
  -18.0323  -26.0068   22.9019 H   0  0  0  0  0  0
  -19.7943  -30.7265   24.2270 H   0  0  0  0  0  0
  -17.5026  -31.6275   24.5158 H   0  0  0  0  0  0
  -15.5356  -30.2986   23.7684 H   0  0  0  0  0  0
  -15.8667  -28.0821   22.7088 H   0  0  0  0  0  0
  -24.5982  -30.6966   25.7792 H   0  0  0  0  0  0
  -24.8903  -32.2791   26.4938 H   0  0  0  0  0  0
  -25.8104  -30.8833   27.0246 H   0  0  0  0  0  0
  -26.2979  -29.6765   24.1227 H   0  0  0  0  0  0
  -27.4164  -29.7292   25.4644 H   0  0  0  0  0  0
  -27.8804  -30.4363   23.9370 H   0  0  0  0  0  0
  -27.2718  -33.3652   26.2078 H   0  0  0  0  0  0
  -28.3929  -32.6816   25.0399 H   0  0  0  0  0  0
  -28.0705  -31.8468   26.5503 H   0  0  0  0  0  0
  -28.2589  -38.0105   24.7532 H   0  0  0  0  0  0
  -28.1065  -36.2633   24.6312 H   0  0  0  0  0  0
  -27.2270  -37.1445   25.8874 H   0  0  0  0  0  0
  -20.9339  -29.8808   21.6927 H   0  0  0  0  0  0
  -26.0170  -38.2860   24.1427 H   0  0  0  0  0  0
  -30.2708  -24.3465   21.0515 H   0  0  0  0  0  0
  -32.5791  -23.6711   20.7327 H   0  0  0  0  0  0
  -33.2531  -23.1761   22.3719 H   0  0  0  0  0  0
  -33.3314  -20.8013   21.6227 H   0  0  0  0  0  0
  -32.6319  -21.2795   19.9893 H   0  0  0  0  0  0
  -32.1747  -18.2168   20.3543 H   0  0  0  0  0  0
  -31.4180  -17.0964   19.2744 H   0  0  0  0  0  0
  -29.6249  -17.2045   23.2050 H   0  0  0  0  0  0
  -30.9847  -18.2611   23.0387 H   0  0  0  0  0  0
  -29.3471  -18.3879   19.3087 H   0  0  0  0  0  0
  -30.6727  -19.4591   18.9292 H   0  0  0  0  0  0
  -29.0770  -19.6616   22.8027 H   0  0  0  0  0  0
  -28.3118  -18.5670   21.6883 H   0  0  0  0  0  0
  -31.2564  -21.6677   22.7610 H   0  0  0  0  0  0
  -31.7568  -16.5870   21.8294 H   0  0  0  0  0  0
  -26.5121  -23.6740   18.0573 H   0  0  0  0  0  0
  -25.6553  -22.7014   19.2469 H   0  0  0  0  0  0
  -26.4735  -21.9734   17.8629 H   0  0  0  0  0  0
  -26.2597  -20.3283   19.5278 H   0  0  0  0  0  0
  -27.4557  -19.1706   19.9361 H   0  0  0  0  0  0
  -27.4769  -19.8738   18.3308 H   0  0  0  0  0  0
  -26.9428  -24.8923   19.9907 H   0  0  0  0  0  0
  -27.9302  -25.2157   18.5199 H   0  0  0  0  0  0
  -29.1847  -15.4763   21.4375 H   0  0  0  0  0  0
  1 25  1  0  0  0
  1 30  2  0  0  0
  1 89  1  0  0  0
  2  3  1  0  0  0
  2 25  1  0  0  0
  2 90  1  0  0  0
  2 91  1  0  0  0
  3  4  1  0  0  0
  3 92  1  0  0  0
  3 93  1  0  0  0
  4  5  1  0  0  0
  4 94  1  0  0  0
  4 95  1  0  0  0
  5  6  1  0  0  0
  5 26  1  0  0  0
  5 96  1  0  0  0
  6 25  1  0  0  0
  6 97  1  0  0  0
  6 98  1  0  0  0
  7  8  2  0  0  0
  7 26  1  0  0  0
  7 29  1  0  0  0
  8  9  1  0  0  0
  8 22  1  0  0  0
  9 10  1  0  0  0
  9 27  2  0  0  0
 10 11  2  0  0  0
 10 15  1  0  0  0
 11 12  1  0  0  0
 11 99  1  0  0  0
 12 13  2  0  0  0
 12100  1  0  0  0
 13 14  1  0  0  0
 13 31  1  0  0  0
 14 15  2  0  0  0
 14101  1  0  0  0
 15102  1  0  0  0
 16 17  2  0  0  0
 16 21  1  0  0  0
 16 31  1  0  0  0
 17 18  1  0  0  0
 17103  1  0  0  0
 18 19  2  0  0  0
 18104  1  0  0  0
 19 20  1  0  0  0
 19 24  1  0  0  0
 20 21  2  0  0  0
 20105  1  0  0  0
 21 23  1  0  0  0
 22 28  1  0  0  0
 22 32  2  0  0  0
 26 27  1  0  0  0
 28106  1  0  0  0
 28107  1  0  0  0
 29108  1  0  0  0
 29109  1  0  0  0
 33 34  1  0  0  0
 33 66  1  0  0  0
 33 70  2  0  0  0
 34 36  1  0  0  0
 34 59  1  0  0  0
 34110  1  0  0  0
 35 44  2  0  0  0
 35 45  1  0  0  0
 35 68  1  0  0  0
 36 56  1  0  0  0
 36111  1  0  0  0
 37 39  1  0  0  0
 37 47  1  0  0  0
 37 66  1  0  0  0
 37112  1  0  0  0
 38 43  2  0  0  0
 38 46  1  0  0  0
 38 47  1  0  0  0
 39 64  1  0  0  0
 39 67  2  0  0  0
 40 52  1  0  0  0
 40 53  2  0  0  0
 40 58  1  0  0  0
 41113  1  0  0  0
 41114  1  0  0  0
 41115  1  0  0  0
 41 48  1  0  0  0
 42 43  1  0  0  0
 42 66  1  0  0  0
 42116  1  0  0  0
 42117  1  0  0  0
 43 44  1  0  0  0
 44118  1  0  0  0
 45 46  2  0  0  0
 45119  1  0  0  0
 46120  1  0  0  0
 47121  1  0  0  0
 47122  1  0  0  0
 48 56  1  0  0  0
 48 65  1  0  0  0
 48123  1  0  0  0
 49 50  1  0  0  0
 49 53  1  0  0  0
 49 64  1  0  0  0
 49124  1  0  0  0
 50 51  1  0  0  0
 50125  1  0  0  0
 50126  1  0  0  0
 51 52  1  0  0  0
 51127  1  0  0  0
 51128  1  0  0  0
 52129  1  0  0  0
 52130  1  0  0  0
 53 54  1  0  0  0
 54 55  2  0  0  0
 54131  1  0  0  0
 55 57  1  0  0  0
 55132  1  0  0  0
 56 69  2  0  0  0
 57 58  2  0  0  0
 57133  1  0  0  0
 58134  1  0  0  0
 59 60  1  0  0  0
 59 61  1  0  0  0
 59 62  1  0  0  0
 60135  1  0  0  0
 60136  1  0  0  0
 60137  1  0  0  0
 61138  1  0  0  0
 61139  1  0  0  0
 61140  1  0  0  0
 62141  1  0  0  0
 62142  1  0  0  0
 62143  1  0  0  0
 63 65  1  0  0  0
 63144  1  0  0  0
 63145  1  0  0  0
 63146  1  0  0  0
 64147  1  0  0  0
 65148  1  0  0  0
 68 87  1  0  0  0
 71 72  2  0  0  0
 71 73  1  0  0  0
 71149  1  0  0  0
 72 76  1  0  0  0
 72 83  1  0  0  0
 73 74  2  0  0  0
 73 87  1  0  0  0
 74 75  1  0  0  0
 74 85  1  0  0  0
 75 76  2  0  0  0
 75 86  1  0  0  0
 76 88  1  0  0  0
 77 78  1  0  0  0
 77 83  1  0  0  0
 77150  1  0  0  0
 77151  1  0  0  0
 78 83  1  0  0  0
 78152  1  0  0  0
 78153  1  0  0  0
 79 81  1  0  0  0
 79 84  1  0  0  0
 79154  1  0  0  0
 79155  1  0  0  0
 80 82  1  0  0  0
 80 84  1  0  0  0
 80156  1  0  0  0
 80157  1  0  0  0
 81 88  1  0  0  0
 81158  1  0  0  0
 81159  1  0  0  0
 82 88  1  0  0  0
 82160  1  0  0  0
 82161  1  0  0  0
 83162  1  0  0  0
 84 89  1  0  0  0
 84163  1  0  0  0
 85164  1  0  0  0
 85165  1  0  0  0
 85166  1  0  0  0
 86167  1  0  0  0
 86168  1  0  0  0
 86169  1  0  0  0
 87170  1  0  0  0
 87171  1  0  0  0
 89172  1  0  0  0
M  ISO  4   1 100  68 101  87 101  89 100
M  END
> <chiral flag>
0

> <version>
0

> <s_m_source_file>
/data/baiqing/PycharmProjects/Reinvent-master-3.2/result/LINK_invent/BTK/process_docking_weight1_custom_sum_contain_oxygen_bond_distance_aromatic_linkinvent_7_9_3/rearranged_h_0158.sdf

> <i_m_source_file_index>
41

> <r_mmod_Potential_Energy-OPLS-2005>
173.078308105469

> <r_mmod_Stretch_Energy-OPLS-2005>
65.3260955810547

> <r_mmod_Bend_Energy-OPLS-2005>
172.302536010742

> <r_mmod_Torsional_Energy-OPLS-2005>
284.547271728516

> <r_mmod_Improper_Torsional_Energy-OPLS-2005>
5.9080228805542

> <r_mmod_Van_der_Waal_Energy-OPLS-2005>
192.365570068359

> <r_mmod_Electrostatic_Energy-OPLS-2005>
-379.15380859375

> <r_mmod_Solvation_Energy-OPLS-2005>
-208.245254516602

> <b_mmod_Minimization_Converged-OPLS-2005>
0

> <r_mmod_RMS_Derivative-OPLS-2005>
1.51360774040222

$$$$
41
                    3D
 Structure written by MMmdl.
164173  0  0  1  0            999 V2000
  -30.6442  -14.7525   20.4373 C   0  0  0  0  0  0
  -30.4197  -12.4623   19.4699 C   0  0  0  0  0  0
  -29.5007  -12.4975   18.2314 C   0  0  0  0  0  0
  -28.0324  -12.3173   18.6562 C   0  0  0  0  0  0
  -27.6351  -13.2381   19.8422 C   0  0  2  0  0  0
  -28.6821  -13.2162   20.9752 C   0  0  0  0  0  0
  -25.2510  -13.8218   20.5741 C   0  0  0  0  0  0
  -24.1791  -13.0456   20.9210 C   0  0  0  0  0  0
  -24.6377  -11.6933   20.8758 C   0  0  0  0  0  0
  -23.9050  -10.4296   21.0421 C   0  0  0  0  0  0
  -24.3596   -9.4210   21.9194 C   0  0  0  0  0  0
  -23.6275   -8.2245   22.0754 C   0  0  0  0  0  0
  -22.4261   -8.0278   21.3540 C   0  0  0  0  0  0
  -21.9883   -9.0266   20.4656 C   0  0  0  0  0  0
  -22.7221  -10.2140   20.3068 C   0  0  0  0  0  0
  -21.6853   -6.0730   22.5283 C   0  0  0  0  0  0
  -21.4013   -6.5630   23.8213 C   0  0  0  0  0  0
  -21.3660   -5.6781   24.9178 C   0  0  0  0  0  0
  -21.6047   -4.3042   24.7234 C   0  0  0  0  0  0
  -21.8819   -3.8133   23.4350 C   0  0  0  0  0  0
  -21.9188   -4.6953   22.3407 C   0  0  0  0  0  0
  -22.7809  -13.5252   21.1851 C   0  0  0  0  0  0
  -22.1671   -4.2138   21.0992 F   0  0  0  0  0  0
  -21.5615   -3.4527   25.7740 F   0  0  0  0  0  0
  -29.9748  -13.5516   20.3724 N   0  0  0  0  0  0
  -26.2912  -12.9430   20.3278 N   0  0  0  0  0  0
  -25.9305  -11.6561   20.5759 N   0  0  0  0  0  0
  -22.0436  -12.8269   22.0416 N   0  0  0  0  0  0
  -25.4231  -15.1954   20.4240 N   0  0  0  0  0  0
  -31.8530  -14.7645   20.1775 O   0  0  0  0  0  0
  -21.6627   -6.8870   21.4241 O   0  0  0  0  0  0
  -22.3509  -14.5557   20.6678 O   0  0  0  0  0  0
  -24.6323  -31.8551   23.1982 C   0  0  0  0  0  0
  -25.9138  -32.4756   23.8331 C   0  0  1  0  0  0
  -27.2172  -27.2601   20.1339 C   0  0  0  0  0  0
  -25.5936  -33.8549   24.2259 N   0  0  0  0  0  0
  -23.4304  -30.4766   21.5407 C   0  0  2  0  0  0
  -24.8793  -28.9260   20.1073 C   0  0  0  0  0  0
  -22.7516  -29.4589   22.4906 C   0  0  0  0  0  0
  -18.0291  -28.1380   22.8486 C   0  0  0  0  0  0
  -24.1484  -36.7281   23.2629 C   0  0  0  0  0  0
  -25.9764  -30.7671   21.3791 C   0  0  0  0  0  0
  -26.0511  -29.3889   20.7224 C   0  0  0  0  0  0
  -27.2261  -28.5687   20.7252 C   0  0  0  0  0  0
  -26.0313  -26.8748   19.4734 C   0  0  0  0  0  0
  -24.8755  -27.6772   19.4689 C   0  0  0  0  0  0
  -23.6492  -29.8115   20.1564 C   0  0  0  0  0  0
  -25.4097  -36.3063   24.0338 C   0  0  1  0  0  0
  -20.5899  -28.3682   23.1273 C   0  0  2  0  0  0
  -20.6770  -26.9396   22.5413 C   0  0  0  0  0  0
  -19.5749  -26.6377   21.5209 C   0  0  0  0  0  0
  -18.1932  -26.7928   22.1622 C   0  0  0  0  0  0
  -19.1546  -28.8853   23.2875 C   0  0  0  0  0  0
  -18.9464  -30.1459   23.8883 C   0  0  0  0  0  0
  -17.6458  -30.6587   24.0550 C   0  0  0  0  0  0
  -25.9056  -34.9442   23.5106 C   0  0  0  0  0  0
  -16.5353  -29.9077   23.6324 C   0  0  0  0  0  0
  -16.7279  -28.6490   23.0350 C   0  0  0  0  0  0
  -26.4490  -31.6582   25.0728 C   0  0  0  0  0  0
  -25.3713  -31.3772   26.1462 C   0  0  0  0  0  0
  -27.0299  -30.2979   24.6227 C   0  0  0  0  0  0
  -27.6078  -32.4291   25.7477 C   0  0  0  0  0  0
  -27.5605  -37.1749   24.8422 C   0  0  0  0  0  0
  -21.4218  -29.3039   22.3668 N   0  0  0  0  0  0
  -26.4251  -37.3792   23.9463 N   0  0  0  0  0  0
  -24.6987  -31.0517   22.0956 N   0  0  0  0  0  0
  -23.4224  -28.8122   23.2988 O   0  0  0  0  0  0
  -28.2716  -26.3198   20.1755 O   0  0  0  0  0  0
  -26.5626  -34.8921   22.4671 O   0  0  0  0  0  0
  -23.5473  -32.1365   23.7274 O   0  0  0  0  0  0
  -28.5404  -21.3631   19.3261 C   0  0  0  0  0  0
  -29.2354  -20.7235   20.3962 C   0  0  0  0  0  0
  -28.2003  -22.7704   19.3533 C   0  0  0  0  0  0
  -28.5706  -23.5689   20.4748 C   0  0  0  0  0  0
  -29.6030  -21.6270   21.4312 C   0  0  0  0  0  0
  -29.0490  -18.2201   21.4887 C   0  0  0  0  0  0
  -29.5727  -18.3128   19.1447 C   0  0  0  0  0  0
  -29.7233  -16.7812   21.6176 C   0  0  0  0  0  0
  -30.2682  -16.8906   19.2425 C   0  0  0  0  0  0
  -29.6854  -19.1762   20.4309 C   0  0  0  0  0  0
  -27.2525  -22.7100   17.1428 C   0  0  0  0  0  0
  -30.7502  -22.0003   23.5192 C   0  0  0  0  0  0
  -27.9176  -24.9973   20.8046 C   0  0  0  0  0  0
  -29.2778  -22.9627   21.4723 N   0  0  0  0  0  0
  -29.9340  -15.9645   20.3800 N   0  0  0  0  0  0
  -27.4764  -23.4023   18.3640 O   0  0  0  0  0  0
  -30.3464  -21.1209   22.4745 O   0  0  0  0  0  0
  -31.4609  -12.5684   19.1619 H   0  0  0  0  0  0
  -30.3567  -11.4984   19.9749 H   0  0  0  0  0  0
  -29.7847  -11.7143   17.5259 H   0  0  0  0  0  0
  -29.6201  -13.4474   17.7073 H   0  0  0  0  0  0
  -27.9023  -11.2728   18.9441 H   0  0  0  0  0  0
  -27.3663  -12.4854   17.8093 H   0  0  0  0  0  0
  -27.6181  -14.2504   19.4390 H   0  0  0  0  0  0
  -28.7235  -12.2418   21.4621 H   0  0  0  0  0  0
  -28.4212  -13.9409   21.7485 H   0  0  0  0  0  0
  -25.2741   -9.5688   22.4779 H   0  0  0  0  0  0
  -23.9981   -7.4628   22.7469 H   0  0  0  0  0  0
  -21.0798   -8.8790   19.8989 H   0  0  0  0  0  0
  -22.3669  -10.9675   19.6176 H   0  0  0  0  0  0
  -21.2015   -7.6138   23.9714 H   0  0  0  0  0  0
  -21.1487   -6.0512   25.9077 H   0  0  0  0  0  0
  -22.0596   -2.7593   23.2851 H   0  0  0  0  0  0
  -22.3996  -11.9913   22.4814 H   0  0  0  0  0  0
  -21.1087  -13.1370   22.2648 H   0  0  0  0  0  0
  -24.6647  -15.8540   20.5610 H   0  0  0  0  0  0
  -26.2906  -15.6382   20.1453 H   0  0  0  0  0  0
  -26.7209  -32.5403   23.1075 H   0  0  0  0  0  0
  -25.0069  -33.9678   25.0397 H   0  0  0  0  0  0
  -22.7271  -31.2992   21.3950 H   0  0  0  0  0  0
  -23.3788  -35.9564   23.3173 H   0  0  0  0  0  0
  -24.3620  -36.9018   22.2072 H   0  0  0  0  0  0
  -23.7161  -37.6421   23.6710 H   0  0  0  0  0  0
  -26.1155  -31.5259   20.6078 H   0  0  0  0  0  0
  -26.8541  -30.8183   22.0122 H   0  0  0  0  0  0
  -28.1191  -28.9137   21.2273 H   0  0  0  0  0  0
  -25.9840  -25.9163   18.9764 H   0  0  0  0  0  0
  -23.9832  -27.3206   18.9731 H   0  0  0  0  0  0
  -23.7711  -30.5865   19.3987 H   0  0  0  0  0  0
  -22.7689  -29.2423   19.8532 H   0  0  0  0  0  0
  -25.1254  -36.1897   25.0825 H   0  0  0  0  0  0
  -21.0006  -28.3251   24.1390 H   0  0  0  0  0  0
  -20.5654  -26.2290   23.3618 H   0  0  0  0  0  0
  -21.6639  -26.7407   22.1222 H   0  0  0  0  0  0
  -19.6900  -25.6289   21.1242 H   0  0  0  0  0  0
  -19.6697  -27.3180   20.6737 H   0  0  0  0  0  0
  -17.4214  -26.6691   21.4012 H   0  0  0  0  0  0
  -18.0313  -26.0070   22.9013 H   0  0  0  0  0  0
  -19.7941  -30.7270   24.2254 H   0  0  0  0  0  0
  -17.5012  -31.6265   24.5153 H   0  0  0  0  0  0
  -15.5347  -30.2961   23.7655 H   0  0  0  0  0  0
  -15.8689  -28.0802   22.7063 H   0  0  0  0  0  0
  -24.5866  -30.7137   25.7805 H   0  0  0  0  0  0
  -24.8923  -32.2959   26.4858 H   0  0  0  0  0  0
  -25.8029  -30.8969   27.0253 H   0  0  0  0  0  0
  -26.2865  -29.6751   24.1237 H   0  0  0  0  0  0
  -27.3928  -29.7233   25.4761 H   0  0  0  0  0  0
  -27.8779  -30.4215   23.9488 H   0  0  0  0  0  0
  -27.2731  -33.3610   26.2038 H   0  0  0  0  0  0
  -28.3887  -32.6812   25.0292 H   0  0  0  0  0  0
  -28.0731  -31.8409   26.5395 H   0  0  0  0  0  0
  -28.2486  -38.0188   24.7701 H   0  0  0  0  0  0
  -28.1245  -36.2744   24.5923 H   0  0  0  0  0  0
  -27.2388  -37.1008   25.8829 H   0  0  0  0  0  0
  -20.9397  -29.8784   21.6898 H   0  0  0  0  0  0
  -26.0127  -38.2835   24.1606 H   0  0  0  0  0  0
  -28.2495  -20.7522   18.4855 H   0  0  0  0  0  0
  -29.0793  -18.6954   22.4701 H   0  0  0  0  0  0
  -27.9881  -18.0981   21.2675 H   0  0  0  0  0  0
  -28.5239  -18.1849   18.8741 H   0  0  0  0  0  0
  -30.0269  -18.8542   18.3126 H   0  0  0  0  0  0
  -29.1429  -16.1899   22.3273 H   0  0  0  0  0  0
  -30.7005  -16.9176   22.0856 H   0  0  0  0  0  0
  -31.3442  -17.0687   19.2559 H   0  0  0  0  0  0
  -30.0796  -16.3538   18.3108 H   0  0  0  0  0  0
  -30.7495  -19.2298   20.6672 H   0  0  0  0  0  0
  -26.7286  -23.3672   16.4480 H   0  0  0  0  0  0
  -26.6296  -21.8271   17.2862 H   0  0  0  0  0  0
  -28.1930  -22.4219   16.6721 H   0  0  0  0  0  0
  -31.3568  -21.4474   24.2370 H   0  0  0  0  0  0
  -29.8868  -22.4015   24.0510 H   0  0  0  0  0  0
  -31.3563  -22.8254   23.1419 H   0  0  0  0  0  0
  -28.0739  -25.1595   21.8711 H   0  0  0  0  0  0
  -26.8456  -24.8178   20.7366 H   0  0  0  0  0  0
  1 25  1  0  0  0
  1 30  2  0  0  0
  1 85  1  0  0  0
  2  3  1  0  0  0
  2 25  1  0  0  0
  2 88  1  0  0  0
  2 89  1  0  0  0
  3  4  1  0  0  0
  3 90  1  0  0  0
  3 91  1  0  0  0
  4  5  1  0  0  0
  4 92  1  0  0  0
  4 93  1  0  0  0
  5  6  1  0  0  0
  5 26  1  0  0  0
  5 94  1  0  0  0
  6 25  1  0  0  0
  6 95  1  0  0  0
  6 96  1  0  0  0
  7  8  2  0  0  0
  7 26  1  0  0  0
  7 29  1  0  0  0
  8  9  1  0  0  0
  8 22  1  0  0  0
  9 10  1  0  0  0
  9 27  2  0  0  0
 10 11  2  0  0  0
 10 15  1  0  0  0
 11 12  1  0  0  0
 11 97  1  0  0  0
 12 13  2  0  0  0
 12 98  1  0  0  0
 13 14  1  0  0  0
 13 31  1  0  0  0
 14 15  2  0  0  0
 14 99  1  0  0  0
 15100  1  0  0  0
 16 17  2  0  0  0
 16 21  1  0  0  0
 16 31  1  0  0  0
 17 18  1  0  0  0
 17101  1  0  0  0
 18 19  2  0  0  0
 18102  1  0  0  0
 19 20  1  0  0  0
 19 24  1  0  0  0
 20 21  2  0  0  0
 20103  1  0  0  0
 21 23  1  0  0  0
 22 28  1  0  0  0
 22 32  2  0  0  0
 26 27  1  0  0  0
 28104  1  0  0  0
 28105  1  0  0  0
 29106  1  0  0  0
 29107  1  0  0  0
 33 34  1  0  0  0
 33 66  1  0  0  0
 33 70  2  0  0  0
 34 36  1  0  0  0
 34 59  1  0  0  0
 34108  1  0  0  0
 35 44  2  0  0  0
 35 45  1  0  0  0
 35 68  1  0  0  0
 36 56  1  0  0  0
 36109  1  0  0  0
 37 39  1  0  0  0
 37 47  1  0  0  0
 37 66  1  0  0  0
 37110  1  0  0  0
 38 43  2  0  0  0
 38 46  1  0  0  0
 38 47  1  0  0  0
 39 64  1  0  0  0
 39 67  2  0  0  0
 40 52  1  0  0  0
 40 53  2  0  0  0
 40 58  1  0  0  0
 41111  1  0  0  0
 41112  1  0  0  0
 41113  1  0  0  0
 41 48  1  0  0  0
 42 43  1  0  0  0
 42 66  1  0  0  0
 42114  1  0  0  0
 42115  1  0  0  0
 43 44  1  0  0  0
 44116  1  0  0  0
 45 46  2  0  0  0
 45117  1  0  0  0
 46118  1  0  0  0
 47119  1  0  0  0
 47120  1  0  0  0
 48 56  1  0  0  0
 48 65  1  0  0  0
 48121  1  0  0  0
 49 50  1  0  0  0
 49 53  1  0  0  0
 49 64  1  0  0  0
 49122  1  0  0  0
 50 51  1  0  0  0
 50123  1  0  0  0
 50124  1  0  0  0
 51 52  1  0  0  0
 51125  1  0  0  0
 51126  1  0  0  0
 52127  1  0  0  0
 52128  1  0  0  0
 53 54  1  0  0  0
 54 55  2  0  0  0
 54129  1  0  0  0
 55 57  1  0  0  0
 55130  1  0  0  0
 56 69  2  0  0  0
 57 58  2  0  0  0
 57131  1  0  0  0
 58132  1  0  0  0
 59 60  1  0  0  0
 59 61  1  0  0  0
 59 62  1  0  0  0
 60133  1  0  0  0
 60134  1  0  0  0
 60135  1  0  0  0
 61136  1  0  0  0
 61137  1  0  0  0
 61138  1  0  0  0
 62139  1  0  0  0
 62140  1  0  0  0
 62141  1  0  0  0
 63 65  1  0  0  0
 63142  1  0  0  0
 63143  1  0  0  0
 63144  1  0  0  0
 64145  1  0  0  0
 65146  1  0  0  0
 68 83  1  0  0  0
 71 72  2  0  0  0
 71 73  1  0  0  0
 71147  1  0  0  0
 72 75  1  0  0  0
 72 80  1  0  0  0
 73 74  2  0  0  0
 73 86  1  0  0  0
 74 83  1  0  0  0
 74 84  1  0  0  0
 75 84  2  0  0  0
 75 87  1  0  0  0
 76 78  1  0  0  0
 76 80  1  0  0  0
 76148  1  0  0  0
 76149  1  0  0  0
 77 79  1  0  0  0
 77 80  1  0  0  0
 77150  1  0  0  0
 77151  1  0  0  0
 78 85  1  0  0  0
 78152  1  0  0  0
 78153  1  0  0  0
 79 85  1  0  0  0
 79154  1  0  0  0
 79155  1  0  0  0
 80156  1  0  0  0
 81 86  1  0  0  0
 81157  1  0  0  0
 81158  1  0  0  0
 81159  1  0  0  0
 82 87  1  0  0  0
 82160  1  0  0  0
 82161  1  0  0  0
 82162  1  0  0  0
 83163  1  0  0  0
 83164  1  0  0  0
M  ISO  4   1 100  68 101  83 101  85 100
M  END
> <chiral flag>
0

> <version>
0

> <s_m_source_file>
/data/baiqing/PycharmProjects/Reinvent-master-3.2/result/LINK_invent/BTK/process_docking_weight1_custom_sum_contain_oxygen_bond_distance_aromatic_linkinvent_7_9_3/rearranged_h_0158.sdf

> <i_m_source_file_index>
42

> <r_mmod_Potential_Energy-OPLS-2005>
332.829071044922

> <r_mmod_Stretch_Energy-OPLS-2005>
122.327056884766

> <r_mmod_Bend_Energy-OPLS-2005>
207.58251953125

> <r_mmod_Torsional_Energy-OPLS-2005>
342.893615722656

> <r_mmod_Improper_Torsional_Energy-OPLS-2005>
17.8674812316895

> <r_mmod_Van_der_Waal_Energy-OPLS-2005>
152.945892333984

> <r_mmod_Electrostatic_Energy-OPLS-2005>
-403.902496337891

> <r_mmod_Solvation_Energy-OPLS-2005>
-202.948516845703

> <b_mmod_Minimization_Converged-OPLS-2005>
0

> <r_mmod_RMS_Derivative-OPLS-2005>
2.36573576927185

$$$$
42
                    3D
 Structure written by MMmdl.
173182  0  0  1  0            999 V2000
  -30.7288  -14.5242   20.5568 C   0  0  0  0  0  0
  -30.4158  -12.3356   19.4399 C   0  0  0  0  0  0
  -29.4989  -12.4866   18.2118 C   0  0  0  0  0  0
  -28.0234  -12.3167   18.6193 C   0  0  0  0  0  0
  -27.6470  -13.1877   19.8455 C   0  0  2  0  0  0
  -28.6935  -13.0696   20.9813 C   0  0  0  0  0  0
  -25.2578  -13.8083   20.5655 C   0  0  0  0  0  0
  -24.1823  -13.0402   20.9173 C   0  0  0  0  0  0
  -24.6360  -11.6873   20.8734 C   0  0  0  0  0  0
  -23.9024  -10.4280   21.0417 C   0  0  0  0  0  0
  -24.3595   -9.4197   21.9186 C   0  0  0  0  0  0
  -23.6301   -8.2211   22.0746 C   0  0  0  0  0  0
  -22.4281   -8.0255   21.3528 C   0  0  0  0  0  0
  -21.9894   -9.0215   20.4641 C   0  0  0  0  0  0
  -22.7200  -10.2107   20.3051 C   0  0  0  0  0  0
  -21.6858   -6.0739   22.5284 C   0  0  0  0  0  0
  -21.4024   -6.5644   23.8211 C   0  0  0  0  0  0
  -21.3647   -5.6784   24.9170 C   0  0  0  0  0  0
  -21.6043   -4.3042   24.7214 C   0  0  0  0  0  0
  -21.8823   -3.8153   23.4327 C   0  0  0  0  0  0
  -21.9185   -4.6977   22.3396 C   0  0  0  0  0  0
  -22.7844  -13.5239   21.1790 C   0  0  0  0  0  0
  -22.1657   -4.2179   21.0968 F   0  0  0  0  0  0
  -21.5620   -3.4523   25.7717 F   0  0  0  0  0  0
  -30.0188  -13.3656   20.4166 N   0  0  0  0  0  0
  -26.2962  -12.9208   20.3250 N   0  0  0  0  0  0
  -25.9270  -11.6408   20.5728 N   0  0  0  0  0  0
  -22.0445  -12.8303   22.0369 N   0  0  0  0  0  0
  -25.4275  -15.1797   20.4060 N   0  0  0  0  0  0
  -31.8913  -14.6201   20.1524 O   0  0  0  0  0  0
  -21.6645   -6.8864   21.4235 O   0  0  0  0  0  0
  -22.3554  -14.5530   20.6584 O   0  0  0  0  0  0
  -24.6146  -31.8665   23.2074 C   0  0  0  0  0  0
  -25.9031  -32.4818   23.8388 C   0  0  1  0  0  0
  -27.2382  -27.4084   20.1128 C   0  0  0  0  0  0
  -25.5883  -33.8619   24.2317 N   0  0  0  0  0  0
  -23.4055  -30.4902   21.5466 C   0  0  2  0  0  0
  -24.8551  -28.9538   20.1122 C   0  0  0  0  0  0
  -22.7403  -29.4679   22.4967 C   0  0  0  0  0  0
  -18.0273  -28.1375   22.8490 C   0  0  0  0  0  0
  -24.1481  -36.7324   23.2639 C   0  0  0  0  0  0
  -25.9354  -30.8259   21.3638 C   0  0  0  0  0  0
  -26.0157  -29.4583   20.7130 C   0  0  0  0  0  0
  -27.2090  -28.6949   20.7071 C   0  0  0  0  0  0
  -26.0598  -26.9358   19.4869 C   0  0  0  0  0  0
  -24.8748  -27.6937   19.4937 C   0  0  0  0  0  0
  -23.6160  -29.8204   20.1628 C   0  0  0  0  0  0
  -25.4103  -36.3114   24.0338 C   0  0  1  0  0  0
  -20.5862  -28.3685   23.1298 C   0  0  2  0  0  0
  -20.6760  -26.9416   22.5416 C   0  0  0  0  0  0
  -19.5747  -26.6388   21.5198 C   0  0  0  0  0  0
  -18.1922  -26.7922   22.1613 C   0  0  0  0  0  0
  -19.1516  -28.8841   23.2895 C   0  0  0  0  0  0
  -18.9457  -30.1439   23.8916 C   0  0  0  0  0  0
  -17.6461  -30.6589   24.0569 C   0  0  0  0  0  0
  -25.9037  -34.9481   23.5134 C   0  0  0  0  0  0
  -16.5354  -29.9095   23.6323 C   0  0  0  0  0  0
  -16.7261  -28.6504   23.0356 C   0  0  0  0  0  0
  -26.4453  -31.6606   25.0725 C   0  0  0  0  0  0
  -25.3718  -31.3746   26.1488 C   0  0  0  0  0  0
  -27.0279  -30.3034   24.6121 C   0  0  0  0  0  0
  -27.6040  -32.4328   25.7471 C   0  0  0  0  0  0
  -27.5581  -37.1811   24.8458 C   0  0  0  0  0  0
  -21.4125  -29.3045   22.3691 N   0  0  0  0  0  0
  -26.4289  -37.3800   23.9412 N   0  0  0  0  0  0
  -24.6702  -31.0762   22.0981 N   0  0  0  0  0  0
  -23.4154  -28.8224   23.3025 O   0  0  0  0  0  0
  -28.3914  -26.6395   20.1692 O   0  0  0  0  0  0
  -26.5611  -34.8929   22.4697 O   0  0  0  0  0  0
  -23.5335  -32.1444   23.7448 O   0  0  0  0  0  0
  -30.0923  -22.8877   18.3652 C   0  0  0  0  0  0
  -30.5655  -20.1419   18.3315 C   0  0  0  0  0  0
  -30.5884  -22.2906   17.1931 C   0  0  0  0  0  0
  -29.8326  -22.1364   19.5368 C   0  0  0  0  0  0
  -30.8165  -20.8996   17.1738 C   0  0  0  0  0  0
  -30.0947  -20.7280   19.5373 C   0  0  0  0  0  0
  -30.4127  -17.9892   22.0863 C   0  0  0  0  0  0
  -28.9365  -17.7857   20.1603 C   0  0  0  0  0  0
  -30.8193  -16.4895   22.0460 C   0  0  0  0  0  0
  -29.0286  -16.2413   20.2518 C   0  0  0  0  0  0
  -30.1543  -18.5453   20.6863 C   0  0  0  0  0  0
  -30.8559  -23.1629   15.9778 C   0  0  0  0  0  0
  -31.3469  -20.1789   15.9446 C   0  0  0  0  0  0
  -29.4075  -24.8349   22.3511 C   0  0  0  0  0  0
  -29.2439  -22.8466   20.7706 C   0  0  0  0  0  0
  -28.2245  -25.1999   20.1557 C   0  0  0  0  0  0
  -29.3706  -24.4153   20.8673 C   0  0  1  0  0  0
  -30.0971  -15.6222   21.0755 N   0  0  0  0  0  0
  -29.9015  -19.9739   20.6954 O   0  0  0  0  0  0
  -31.4620  -12.4169   19.1400 H   0  0  0  0  0  0
  -30.3071  -11.3421   19.8804 H   0  0  0  0  0  0
  -29.7659  -11.7552   17.4472 H   0  0  0  0  0  0
  -29.6437  -13.4686   17.7589 H   0  0  0  0  0  0
  -27.8579  -11.2633   18.8463 H   0  0  0  0  0  0
  -27.3731  -12.5516   17.7749 H   0  0  0  0  0  0
  -27.6381  -14.1971   19.4525 H   0  0  0  0  0  0
  -28.6898  -12.0665   21.4093 H   0  0  0  0  0  0
  -28.4461  -13.7392   21.8069 H   0  0  0  0  0  0
  -25.2725   -9.5707   22.4775 H   0  0  0  0  0  0
  -23.9999   -7.4636   22.7505 H   0  0  0  0  0  0
  -21.0787   -8.8730   19.9002 H   0  0  0  0  0  0
  -22.3614  -10.9641   19.6192 H   0  0  0  0  0  0
  -21.2025   -7.6155   23.9715 H   0  0  0  0  0  0
  -21.1471   -6.0515   25.9065 H   0  0  0  0  0  0
  -22.0620   -2.7622   23.2800 H   0  0  0  0  0  0
  -22.4019  -11.9985   22.4828 H   0  0  0  0  0  0
  -21.1077  -13.1385   22.2565 H   0  0  0  0  0  0
  -24.6626  -15.8346   20.5277 H   0  0  0  0  0  0
  -26.2790  -15.6199   20.0868 H   0  0  0  0  0  0
  -26.7104  -32.5537   23.1160 H   0  0  0  0  0  0
  -24.9987  -33.9779   25.0426 H   0  0  0  0  0  0
  -22.6958  -31.3081   21.4047 H   0  0  0  0  0  0
  -23.3737  -35.9663   23.3302 H   0  0  0  0  0  0
  -24.3576  -36.8943   22.2055 H   0  0  0  0  0  0
  -23.7237  -37.6531   23.6655 H   0  0  0  0  0  0
  -26.0494  -31.5907   20.5941 H   0  0  0  0  0  0
  -26.8220  -30.8814   21.9848 H   0  0  0  0  0  0
  -28.0999  -29.0791   21.1838 H   0  0  0  0  0  0
  -26.0422  -25.9771   18.9907 H   0  0  0  0  0  0
  -23.9858  -27.3008   19.0182 H   0  0  0  0  0  0
  -23.7235  -30.5931   19.4011 H   0  0  0  0  0  0
  -22.7399  -29.2384   19.8701 H   0  0  0  0  0  0
  -25.1269  -36.1984   25.0829 H   0  0  0  0  0  0
  -20.9965  -28.3265   24.1415 H   0  0  0  0  0  0
  -20.5632  -26.2301   23.3611 H   0  0  0  0  0  0
  -21.6638  -26.7442   22.1237 H   0  0  0  0  0  0
  -19.6919  -25.6293   21.1234 H   0  0  0  0  0  0
  -19.6686  -27.3185   20.6715 H   0  0  0  0  0  0
  -17.4194  -26.6668   21.4011 H   0  0  0  0  0  0
  -18.0338  -26.0051   22.8998 H   0  0  0  0  0  0
  -19.7941  -30.7229   24.2302 H   0  0  0  0  0  0
  -17.5039  -31.6271   24.5168 H   0  0  0  0  0  0
  -15.5361  -30.3019   23.7629 H   0  0  0  0  0  0
  -15.8660  -28.0830   22.7077 H   0  0  0  0  0  0
  -24.5854  -30.7125   25.7841 H   0  0  0  0  0  0
  -24.8946  -32.2921   26.4949 H   0  0  0  0  0  0
  -25.8067  -30.8906   27.0245 H   0  0  0  0  0  0
  -26.2833  -29.6811   24.1143 H   0  0  0  0  0  0
  -27.3997  -29.7257   25.4597 H   0  0  0  0  0  0
  -27.8691  -30.4336   23.9308 H   0  0  0  0  0  0
  -27.2662  -33.3614   26.2089 H   0  0  0  0  0  0
  -28.3814  -32.6923   25.0270 H   0  0  0  0  0  0
  -28.0752  -31.8435   26.5351 H   0  0  0  0  0  0
  -28.2609  -38.0100   24.7498 H   0  0  0  0  0  0
  -28.1067  -36.2634   24.6273 H   0  0  0  0  0  0
  -27.2313  -37.1460   25.8866 H   0  0  0  0  0  0
  -20.9277  -29.8772   21.6928 H   0  0  0  0  0  0
  -26.0181  -38.2882   24.1406 H   0  0  0  0  0  0
  -29.9186  -23.9516   18.3446 H   0  0  0  0  0  0
  -30.7522  -19.0845   18.2500 H   0  0  0  0  0  0
  -31.2061  -18.5617   22.5688 H   0  0  0  0  0  0
  -29.5285  -18.1201   22.7115 H   0  0  0  0  0  0
  -28.0549  -18.1109   20.7173 H   0  0  0  0  0  0
  -28.7357  -18.0671   19.1281 H   0  0  0  0  0  0
  -30.6931  -16.0627   23.0432 H   0  0  0  0  0  0
  -31.8920  -16.4506   21.8492 H   0  0  0  0  0  0
  -29.0953  -15.8679   19.2273 H   0  0  0  0  0  0
  -28.0834  -15.8996   20.6644 H   0  0  0  0  0  0
  -31.0483  -18.3025   20.1143 H   0  0  0  0  0  0
  -30.8353  -24.2228   16.2328 H   0  0  0  0  0  0
  -30.0963  -22.9921   15.2144 H   0  0  0  0  0  0
  -31.8365  -22.9476   15.5539 H   0  0  0  0  0  0
  -30.9417  -19.1675   15.8945 H   0  0  0  0  0  0
  -32.4337  -20.0973   15.9957 H   0  0  0  0  0  0
  -31.0758  -20.6807   15.0167 H   0  0  0  0  0  0
  -30.1891  -24.3106   22.9003 H   0  0  0  0  0  0
  -28.4559  -24.6263   22.8428 H   0  0  0  0  0  0
  -29.5990  -25.9040   22.4535 H   0  0  0  0  0  0
  -29.7461  -22.3997   21.6290 H   0  0  0  0  0  0
  -28.1966  -22.5574   20.8674 H   0  0  0  0  0  0
  -27.2925  -24.9248   20.6535 H   0  0  0  0  0  0
  -28.1237  -24.8799   19.1189 H   0  0  0  0  0  0
  -30.3313  -24.7153   20.4480 H   0  0  0  0  0  0
  1 25  1  0  0  0
  1 30  2  0  0  0
  1 88  1  0  0  0
  2  3  1  0  0  0
  2 25  1  0  0  0
  2 90  1  0  0  0
  2 91  1  0  0  0
  3  4  1  0  0  0
  3 92  1  0  0  0
  3 93  1  0  0  0
  4  5  1  0  0  0
  4 94  1  0  0  0
  4 95  1  0  0  0
  5  6  1  0  0  0
  5 26  1  0  0  0
  5 96  1  0  0  0
  6 25  1  0  0  0
  6 97  1  0  0  0
  6 98  1  0  0  0
  7  8  2  0  0  0
  7 26  1  0  0  0
  7 29  1  0  0  0
  8  9  1  0  0  0
  8 22  1  0  0  0
  9 10  1  0  0  0
  9 27  2  0  0  0
 10 11  2  0  0  0
 10 15  1  0  0  0
 11 12  1  0  0  0
 11 99  1  0  0  0
 12 13  2  0  0  0
 12100  1  0  0  0
 13 14  1  0  0  0
 13 31  1  0  0  0
 14 15  2  0  0  0
 14101  1  0  0  0
 15102  1  0  0  0
 16 17  2  0  0  0
 16 21  1  0  0  0
 16 31  1  0  0  0
 17 18  1  0  0  0
 17103  1  0  0  0
 18 19  2  0  0  0
 18104  1  0  0  0
 19 20  1  0  0  0
 19 24  1  0  0  0
 20 21  2  0  0  0
 20105  1  0  0  0
 21 23  1  0  0  0
 22 28  1  0  0  0
 22 32  2  0  0  0
 26 27  1  0  0  0
 28106  1  0  0  0
 28107  1  0  0  0
 29108  1  0  0  0
 29109  1  0  0  0
 33 34  1  0  0  0
 33 66  1  0  0  0
 33 70  2  0  0  0
 34 36  1  0  0  0
 34 59  1  0  0  0
 34110  1  0  0  0
 35 44  2  0  0  0
 35 45  1  0  0  0
 35 68  1  0  0  0
 36 56  1  0  0  0
 36111  1  0  0  0
 37 39  1  0  0  0
 37 47  1  0  0  0
 37 66  1  0  0  0
 37112  1  0  0  0
 38 43  2  0  0  0
 38 46  1  0  0  0
 38 47  1  0  0  0
 39 64  1  0  0  0
 39 67  2  0  0  0
 40 52  1  0  0  0
 40 53  2  0  0  0
 40 58  1  0  0  0
 41113  1  0  0  0
 41114  1  0  0  0
 41115  1  0  0  0
 41 48  1  0  0  0
 42 43  1  0  0  0
 42 66  1  0  0  0
 42116  1  0  0  0
 42117  1  0  0  0
 43 44  1  0  0  0
 44118  1  0  0  0
 45 46  2  0  0  0
 45119  1  0  0  0
 46120  1  0  0  0
 47121  1  0  0  0
 47122  1  0  0  0
 48 56  1  0  0  0
 48 65  1  0  0  0
 48123  1  0  0  0
 49 50  1  0  0  0
 49 53  1  0  0  0
 49 64  1  0  0  0
 49124  1  0  0  0
 50 51  1  0  0  0
 50125  1  0  0  0
 50126  1  0  0  0
 51 52  1  0  0  0
 51127  1  0  0  0
 51128  1  0  0  0
 52129  1  0  0  0
 52130  1  0  0  0
 53 54  1  0  0  0
 54 55  2  0  0  0
 54131  1  0  0  0
 55 57  1  0  0  0
 55132  1  0  0  0
 56 69  2  0  0  0
 57 58  2  0  0  0
 57133  1  0  0  0
 58134  1  0  0  0
 59 60  1  0  0  0
 59 61  1  0  0  0
 59 62  1  0  0  0
 60135  1  0  0  0
 60136  1  0  0  0
 60137  1  0  0  0
 61138  1  0  0  0
 61139  1  0  0  0
 61140  1  0  0  0
 62141  1  0  0  0
 62142  1  0  0  0
 62143  1  0  0  0
 63 65  1  0  0  0
 63144  1  0  0  0
 63145  1  0  0  0
 63146  1  0  0  0
 64147  1  0  0  0
 65148  1  0  0  0
 68 86  1  0  0  0
 71 73  2  0  0  0
 71 74  1  0  0  0
 71149  1  0  0  0
 72 75  2  0  0  0
 72 76  1  0  0  0
 72150  1  0  0  0
 73 75  1  0  0  0
 73 82  1  0  0  0
 74 76  2  0  0  0
 74 85  1  0  0  0
 75 83  1  0  0  0
 76 89  1  0  0  0
 77 79  1  0  0  0
 77 81  1  0  0  0
 77151  1  0  0  0
 77152  1  0  0  0
 78 80  1  0  0  0
 78 81  1  0  0  0
 78153  1  0  0  0
 78154  1  0  0  0
 79 88  1  0  0  0
 79155  1  0  0  0
 79156  1  0  0  0
 80 88  1  0  0  0
 80157  1  0  0  0
 80158  1  0  0  0
 81 89  1  0  0  0
 81159  1  0  0  0
 82160  1  0  0  0
 82161  1  0  0  0
 82162  1  0  0  0
 83163  1  0  0  0
 83164  1  0  0  0
 83165  1  0  0  0
 84166  1  0  0  0
 84167  1  0  0  0
 84168  1  0  0  0
 84 87  1  0  0  0
 85 87  1  0  0  0
 85169  1  0  0  0
 85170  1  0  0  0
 86 87  1  0  0  0
 86171  1  0  0  0
 86172  1  0  0  0
 87173  1  0  0  0
M  ISO  4   1 100  68 101  86 101  88 100
M  END
> <chiral flag>
0

> <version>
0

> <s_m_source_file>
/data/baiqing/PycharmProjects/Reinvent-master-3.2/result/LINK_invent/BTK/process_docking_weight1_custom_sum_contain_oxygen_bond_distance_aromatic_linkinvent_7_9_3/rearranged_h_0158.sdf

> <i_m_source_file_index>
43

> <r_mmod_Potential_Energy-OPLS-2005>
220.416625976562

> <r_mmod_Stretch_Energy-OPLS-2005>
54.1062812805176

> <r_mmod_Bend_Energy-OPLS-2005>
134.08952331543

> <r_mmod_Torsional_Energy-OPLS-2005>
332.111541748047

> <r_mmod_Improper_Torsional_Energy-OPLS-2005>
3.86757969856262

> <r_mmod_Van_der_Waal_Energy-OPLS-2005>
174.004455566406

> <r_mmod_Electrostatic_Energy-OPLS-2005>
-306.684936523438

> <r_mmod_Solvation_Energy-OPLS-2005>
-195.376281738281

> <b_mmod_Minimization_Converged-OPLS-2005>
0

> <r_mmod_RMS_Derivative-OPLS-2005>
3.35101675987244

$$$$
43
                    3D
 Structure written by MMmdl.
180190  0  0  1  0            999 V2000
  -30.7027  -14.4804   20.5884 C   0  0  0  0  0  0
  -30.4216  -12.3139   19.4368 C   0  0  0  0  0  0
  -29.5030  -12.5142   18.2145 C   0  0  0  0  0  0
  -28.0227  -12.3683   18.6196 C   0  0  0  0  0  0
  -27.6596  -13.2087   19.8732 C   0  0  2  0  0  0
  -28.6952  -13.0035   21.0019 C   0  0  0  0  0  0
  -25.2564  -13.8156   20.5643 C   0  0  0  0  0  0
  -24.1809  -13.0446   20.9149 C   0  0  0  0  0  0
  -24.6380  -11.6921   20.8730 C   0  0  0  0  0  0
  -23.9060  -10.4302   21.0416 C   0  0  0  0  0  0
  -24.3633   -9.4229   21.9188 C   0  0  0  0  0  0
  -23.6327   -8.2250   22.0761 C   0  0  0  0  0  0
  -22.4302   -8.0281   21.3563 C   0  0  0  0  0  0
  -21.9932   -9.0247   20.4660 C   0  0  0  0  0  0
  -22.7233  -10.2141   20.3073 C   0  0  0  0  0  0
  -21.6854   -6.0754   22.5300 C   0  0  0  0  0  0
  -21.4011   -6.5657   23.8233 C   0  0  0  0  0  0
  -21.3659   -5.6799   24.9186 C   0  0  0  0  0  0
  -21.6037   -4.3060   24.7233 C   0  0  0  0  0  0
  -21.8809   -3.8166   23.4346 C   0  0  0  0  0  0
  -21.9189   -4.6982   22.3406 C   0  0  0  0  0  0
  -22.7836  -13.5270   21.1795 C   0  0  0  0  0  0
  -22.1673   -4.2180   21.0980 F   0  0  0  0  0  0
  -21.5644   -3.4542   25.7744 F   0  0  0  0  0  0
  -30.0277  -13.3051   20.4532 N   0  0  0  0  0  0
  -26.2998  -12.9332   20.3324 N   0  0  0  0  0  0
  -25.9300  -11.6496   20.5740 N   0  0  0  0  0  0
  -22.0477  -12.8271   22.0359 N   0  0  0  0  0  0
  -25.4312  -15.1865   20.4049 N   0  0  0  0  0  0
  -31.8360  -14.6501   20.1255 O   0  0  0  0  0  0
  -21.6650   -6.8892   21.4266 O   0  0  0  0  0  0
  -22.3509  -14.5574   20.6651 O   0  0  0  0  0  0
  -24.6107  -31.8694   23.2118 C   0  0  0  0  0  0
  -25.9005  -32.4833   23.8405 C   0  0  1  0  0  0
  -27.2577  -27.4627   20.0979 C   0  0  0  0  0  0
  -25.5878  -33.8633   24.2336 N   0  0  0  0  0  0
  -23.3995  -30.4906   21.5498 C   0  0  2  0  0  0
  -24.8531  -28.9561   20.1213 C   0  0  0  0  0  0
  -22.7394  -29.4661   22.4993 C   0  0  0  0  0  0
  -18.0270  -28.1377   22.8490 C   0  0  0  0  0  0
  -24.1486  -36.7327   23.2635 C   0  0  0  0  0  0
  -25.9248  -30.8407   21.3650 C   0  0  0  0  0  0
  -26.0078  -29.4735   20.7226 C   0  0  0  0  0  0
  -27.2104  -28.7331   20.7206 C   0  0  0  0  0  0
  -26.0858  -26.9567   19.4982 C   0  0  0  0  0  0
  -24.8840  -27.6906   19.5109 C   0  0  0  0  0  0
  -23.6109  -29.8177   20.1663 C   0  0  0  0  0  0
  -25.4102  -36.3119   24.0342 C   0  0  1  0  0  0
  -20.5854  -28.3655   23.1324 C   0  0  2  0  0  0
  -20.6755  -26.9392   22.5423 C   0  0  0  0  0  0
  -19.5744  -26.6383   21.5214 C   0  0  0  0  0  0
  -18.1916  -26.7929   22.1614 C   0  0  0  0  0  0
  -19.1517  -28.8834   23.2905 C   0  0  0  0  0  0
  -18.9450  -30.1442   23.8911 C   0  0  0  0  0  0
  -17.6453  -30.6585   24.0567 C   0  0  0  0  0  0
  -25.9029  -34.9485   23.5138 C   0  0  0  0  0  0
  -16.5344  -29.9085   23.6329 C   0  0  0  0  0  0
  -16.7261  -28.6504   23.0347 C   0  0  0  0  0  0
  -26.4456  -31.6600   25.0718 C   0  0  0  0  0  0
  -25.3745  -31.3715   26.1486 C   0  0  0  0  0  0
  -27.0270  -30.3036   24.6085 C   0  0  0  0  0  0
  -27.6043  -32.4318   25.7464 C   0  0  0  0  0  0
  -27.5600  -37.1791   24.8444 C   0  0  0  0  0  0
  -21.4127  -29.3028   22.3732 N   0  0  0  0  0  0
  -26.4284  -37.3807   23.9432 N   0  0  0  0  0  0
  -24.6621  -31.0819   22.1009 N   0  0  0  0  0  0
  -23.4166  -28.8216   23.3043 O   0  0  0  0  0  0
  -28.3831  -26.6723   19.9963 O   0  0  0  0  0  0
  -26.5599  -34.8931   22.4703 O   0  0  0  0  0  0
  -23.5306  -32.1433   23.7522 O   0  0  0  0  0  0
  -28.7210  -23.2757   21.6096 C   0  0  0  0  0  0
  -30.7154  -21.3148   21.7265 C   0  0  0  0  0  0
  -30.0651  -23.6817   21.7248 C   0  0  0  0  0  0
  -31.0711  -22.6831   21.7547 C   0  0  0  0  0  0
  -28.3642  -21.9059   21.5814 C   0  0  0  0  0  0
  -29.3605  -20.9027   21.6689 C   0  0  0  0  0  0
  -29.2416  -17.3450   22.5992 C   0  0  0  0  0  0
  -30.2711  -18.0002   20.3734 C   0  0  0  0  0  0
  -30.6393  -25.9392   20.4799 C   0  0  0  0  0  0
  -29.4030  -26.2721   22.2062 C   0  0  0  0  0  0
  -29.9815  -16.0002   22.3802 C   0  0  0  0  0  0
  -29.6774  -16.6195   19.9868 C   0  0  0  0  0  0
  -30.4098  -25.1760   21.7928 C   0  0  1  0  0  0
  -29.8686  -18.4911   21.7825 C   0  0  0  0  0  0
  -29.5147  -26.9260   20.8233 C   0  0  2  0  0  0
  -32.5442  -23.0477   21.8213 C   0  0  0  0  0  0
  -26.2676  -22.5843   19.3710 C   0  0  0  0  0  0
  -24.6265  -21.7475   21.1255 C   0  0  0  0  0  0
  -26.0113  -22.3572   20.8689 C   0  0  1  0  0  0
  -29.9589  -15.5516   20.9733 N   0  0  0  0  0  0
  -27.0281  -21.4926   21.4766 N   0  0  0  0  0  0
  -24.5998  -21.5167   22.5172 O   0  0  0  0  0  0
  -28.9325  -19.5779   21.6987 O   0  0  0  0  0  0
  -31.4701  -12.4031   19.1441 H   0  0  0  0  0  0
  -30.3176  -11.3060   19.8396 H   0  0  0  0  0  0
  -29.7485  -11.7943   17.4318 H   0  0  0  0  0  0
  -29.6735  -13.5062   17.7918 H   0  0  0  0  0  0
  -27.8394  -11.3112   18.8122 H   0  0  0  0  0  0
  -27.3757  -12.6405   17.7851 H   0  0  0  0  0  0
  -27.6994  -14.2555   19.5701 H   0  0  0  0  0  0
  -28.6728  -11.9756   21.3652 H   0  0  0  0  0  0
  -28.4457  -13.6210   21.8648 H   0  0  0  0  0  0
  -25.2780   -9.5748   22.4751 H   0  0  0  0  0  0
  -24.0083   -7.4636   22.7456 H   0  0  0  0  0  0
  -21.0880   -8.8738   19.8946 H   0  0  0  0  0  0
  -22.3669  -10.9691   19.6201 H   0  0  0  0  0  0
  -21.2008   -7.6167   23.9751 H   0  0  0  0  0  0
  -21.1507   -6.0533   25.9095 H   0  0  0  0  0  0
  -22.0603   -2.7639   23.2825 H   0  0  0  0  0  0
  -22.4094  -11.9950   22.4770 H   0  0  0  0  0  0
  -21.1092  -13.1308   22.2538 H   0  0  0  0  0  0
  -24.6758  -15.8525   20.5188 H   0  0  0  0  0  0
  -26.2913  -15.6167   20.0900 H   0  0  0  0  0  0
  -26.7085  -32.5565   23.1181 H   0  0  0  0  0  0
  -25.0017  -33.9796   25.0472 H   0  0  0  0  0  0
  -22.6871  -31.3060   21.4075 H   0  0  0  0  0  0
  -23.3757  -35.9647   23.3257 H   0  0  0  0  0  0
  -24.3600  -36.8983   22.2059 H   0  0  0  0  0  0
  -23.7215  -37.6513   23.6673 H   0  0  0  0  0  0
  -26.0339  -31.6031   20.5919 H   0  0  0  0  0  0
  -26.8131  -30.8997   21.9814 H   0  0  0  0  0  0
  -28.0876  -29.1588   21.1840 H   0  0  0  0  0  0
  -26.1093  -25.9885   19.0179 H   0  0  0  0  0  0
  -23.9983  -27.2821   19.0439 H   0  0  0  0  0  0
  -23.7130  -30.5890   19.4024 H   0  0  0  0  0  0
  -22.7387  -29.2294   19.8752 H   0  0  0  0  0  0
  -25.1268  -36.1983   25.0831 H   0  0  0  0  0  0
  -20.9949  -28.3224   24.1443 H   0  0  0  0  0  0
  -20.5656  -26.2268   23.3607 H   0  0  0  0  0  0
  -21.6631  -26.7433   22.1225 H   0  0  0  0  0  0
  -19.6905  -25.6296   21.1238 H   0  0  0  0  0  0
  -19.6699  -27.3200   20.6752 H   0  0  0  0  0  0
  -17.4198  -26.6696   21.4002 H   0  0  0  0  0  0
  -18.0300  -26.0058   22.8994 H   0  0  0  0  0  0
  -19.7925  -30.7256   24.2284 H   0  0  0  0  0  0
  -17.5008  -31.6268   24.5162 H   0  0  0  0  0  0
  -15.5346  -30.2997   23.7641 H   0  0  0  0  0  0
  -15.8660  -28.0835   22.7046 H   0  0  0  0  0  0
  -24.5900  -30.7073   25.7844 H   0  0  0  0  0  0
  -24.8957  -32.2875   26.4955 H   0  0  0  0  0  0
  -25.8113  -30.8877   27.0229 H   0  0  0  0  0  0
  -26.2798  -29.6810   24.1145 H   0  0  0  0  0  0
  -27.4038  -29.7258   25.4534 H   0  0  0  0  0  0
  -27.8639  -30.4342   23.9220 H   0  0  0  0  0  0
  -27.2662  -33.3596   26.2090 H   0  0  0  0  0  0
  -28.3813  -32.6918   25.0265 H   0  0  0  0  0  0
  -28.0753  -31.8418   26.5334 H   0  0  0  0  0  0
  -28.2557  -38.0150   24.7591 H   0  0  0  0  0  0
  -28.1158  -36.2692   24.6127 H   0  0  0  0  0  0
  -27.2347  -37.1272   25.8849 H   0  0  0  0  0  0
  -20.9283  -29.8739   21.6946 H   0  0  0  0  0  0
  -26.0175  -38.2872   24.1496 H   0  0  0  0  0  0
  -27.9630  -24.0382   21.5443 H   0  0  0  0  0  0
  -31.5160  -20.5931   21.7523 H   0  0  0  0  0  0
  -29.2457  -17.6092   23.6576 H   0  0  0  0  0  0
  -28.1914  -17.2271   22.3270 H   0  0  0  0  0  0
  -29.9972  -18.7441   19.6244 H   0  0  0  0  0  0
  -31.3576  -17.9334   20.3248 H   0  0  0  0  0  0
  -30.4433  -25.3458   19.5863 H   0  0  0  0  0  0
  -31.6235  -26.4081   20.4361 H   0  0  0  0  0  0
  -29.7917  -26.9219   22.9916 H   0  0  0  0  0  0
  -28.3990  -25.9332   22.4585 H   0  0  0  0  0  0
  -29.5418  -15.2354   23.0196 H   0  0  0  0  0  0
  -31.0192  -16.1074   22.7029 H   0  0  0  0  0  0
  -30.0379  -16.3421   18.9938 H   0  0  0  0  0  0
  -28.5952  -16.7039   19.8858 H   0  0  0  0  0  0
  -31.2818  -25.2920   22.4378 H   0  0  0  0  0  0
  -30.7622  -18.7754   22.3354 H   0  0  0  0  0  0
  -29.8712  -27.9565   20.8274 H   0  0  0  0  0  0
  -33.1775  -22.2126   21.5208 H   0  0  0  0  0  0
  -32.8167  -23.3243   22.8394 H   0  0  0  0  0  0
  -32.7746  -23.8828   21.1604 H   0  0  0  0  0  0
  -25.4942  -23.2191   18.9369 H   0  0  0  0  0  0
  -26.2745  -21.6477   18.8143 H   0  0  0  0  0  0
  -27.2207  -23.0840   19.1928 H   0  0  0  0  0  0
  -24.4959  -20.8083   20.5855 H   0  0  0  0  0  0
  -23.8227  -22.4230   20.8270 H   0  0  0  0  0  0
  -26.0185  -23.3297   21.3618 H   0  0  0  0  0  0
  -26.9198  -20.4892   21.3451 H   0  0  0  0  0  0
  -25.5315  -21.4166   22.7227 H   0  0  0  0  0  0
  1 25  1  0  0  0
  1 30  2  0  0  0
  1 90  1  0  0  0
  2  3  1  0  0  0
  2 25  1  0  0  0
  2 94  1  0  0  0
  2 95  1  0  0  0
  3  4  1  0  0  0
  3 96  1  0  0  0
  3 97  1  0  0  0
  4  5  1  0  0  0
  4 98  1  0  0  0
  4 99  1  0  0  0
  5  6  1  0  0  0
  5 26  1  0  0  0
  5100  1  0  0  0
  6 25  1  0  0  0
  6101  1  0  0  0
  6102  1  0  0  0
  7  8  2  0  0  0
  7 26  1  0  0  0
  7 29  1  0  0  0
  8  9  1  0  0  0
  8 22  1  0  0  0
  9 10  1  0  0  0
  9 27  2  0  0  0
 10 11  2  0  0  0
 10 15  1  0  0  0
 11 12  1  0  0  0
 11103  1  0  0  0
 12 13  2  0  0  0
 12104  1  0  0  0
 13 14  1  0  0  0
 13 31  1  0  0  0
 14 15  2  0  0  0
 14105  1  0  0  0
 15106  1  0  0  0
 16 17  2  0  0  0
 16 21  1  0  0  0
 16 31  1  0  0  0
 17 18  1  0  0  0
 17107  1  0  0  0
 18 19  2  0  0  0
 18108  1  0  0  0
 19 20  1  0  0  0
 19 24  1  0  0  0
 20 21  2  0  0  0
 20109  1  0  0  0
 21 23  1  0  0  0
 22 28  1  0  0  0
 22 32  2  0  0  0
 26 27  1  0  0  0
 28110  1  0  0  0
 28111  1  0  0  0
 29112  1  0  0  0
 29113  1  0  0  0
 33 34  1  0  0  0
 33 66  1  0  0  0
 33 70  2  0  0  0
 34 36  1  0  0  0
 34 59  1  0  0  0
 34114  1  0  0  0
 35 44  2  0  0  0
 35 45  1  0  0  0
 35 68  1  0  0  0
 36 56  1  0  0  0
 36115  1  0  0  0
 37 39  1  0  0  0
 37 47  1  0  0  0
 37 66  1  0  0  0
 37116  1  0  0  0
 38 43  2  0  0  0
 38 46  1  0  0  0
 38 47  1  0  0  0
 39 64  1  0  0  0
 39 67  2  0  0  0
 40 52  1  0  0  0
 40 53  2  0  0  0
 40 58  1  0  0  0
 41117  1  0  0  0
 41118  1  0  0  0
 41119  1  0  0  0
 41 48  1  0  0  0
 42 43  1  0  0  0
 42 66  1  0  0  0
 42120  1  0  0  0
 42121  1  0  0  0
 43 44  1  0  0  0
 44122  1  0  0  0
 45 46  2  0  0  0
 45123  1  0  0  0
 46124  1  0  0  0
 47125  1  0  0  0
 47126  1  0  0  0
 48 56  1  0  0  0
 48 65  1  0  0  0
 48127  1  0  0  0
 49 50  1  0  0  0
 49 53  1  0  0  0
 49 64  1  0  0  0
 49128  1  0  0  0
 50 51  1  0  0  0
 50129  1  0  0  0
 50130  1  0  0  0
 51 52  1  0  0  0
 51131  1  0  0  0
 51132  1  0  0  0
 52133  1  0  0  0
 52134  1  0  0  0
 53 54  1  0  0  0
 54 55  2  0  0  0
 54135  1  0  0  0
 55 57  1  0  0  0
 55136  1  0  0  0
 56 69  2  0  0  0
 57 58  2  0  0  0
 57137  1  0  0  0
 58138  1  0  0  0
 59 60  1  0  0  0
 59 61  1  0  0  0
 59 62  1  0  0  0
 60139  1  0  0  0
 60140  1  0  0  0
 60141  1  0  0  0
 61142  1  0  0  0
 61143  1  0  0  0
 61144  1  0  0  0
 62145  1  0  0  0
 62146  1  0  0  0
 62147  1  0  0  0
 63 65  1  0  0  0
 63148  1  0  0  0
 63149  1  0  0  0
 63150  1  0  0  0
 64151  1  0  0  0
 65152  1  0  0  0
 68 85  1  0  0  0
 71 73  2  0  0  0
 71 75  1  0  0  0
 71153  1  0  0  0
 72 74  2  0  0  0
 72 76  1  0  0  0
 72154  1  0  0  0
 73 74  1  0  0  0
 73 83  1  0  0  0
 74 86  1  0  0  0
 75 76  2  0  0  0
 75 91  1  0  0  0
 76 93  1  0  0  0
 77 81  1  0  0  0
 77 84  1  0  0  0
 77155  1  0  0  0
 77156  1  0  0  0
 78 82  1  0  0  0
 78 84  1  0  0  0
 78157  1  0  0  0
 78158  1  0  0  0
 79 83  1  0  0  0
 79 85  1  0  0  0
 79159  1  0  0  0
 79160  1  0  0  0
 80 83  1  0  0  0
 80 85  1  0  0  0
 80161  1  0  0  0
 80162  1  0  0  0
 81 90  1  0  0  0
 81163  1  0  0  0
 81164  1  0  0  0
 82 90  1  0  0  0
 82165  1  0  0  0
 82166  1  0  0  0
 83167  1  0  0  0
 84 93  1  0  0  0
 84168  1  0  0  0
 85169  1  0  0  0
 86170  1  0  0  0
 86171  1  0  0  0
 86172  1  0  0  0
 87173  1  0  0  0
 87174  1  0  0  0
 87175  1  0  0  0
 87 89  1  0  0  0
 88 89  1  0  0  0
 88 92  1  0  0  0
 88176  1  0  0  0
 88177  1  0  0  0
 89 91  1  0  0  0
 89178  1  0  0  0
 91179  1  0  0  0
 92180  1  0  0  0
M  ISO  4   1 100  68 101  85 101  90 100
M  END
> <chiral flag>
0

> <version>
0

> <s_m_source_file>
/data/baiqing/PycharmProjects/Reinvent-master-3.2/result/LINK_invent/BTK/process_docking_weight1_custom_sum_contain_oxygen_bond_distance_aromatic_linkinvent_7_9_3/rearranged_h_0158.sdf

> <i_m_source_file_index>
44

> <r_mmod_Potential_Energy-OPLS-2005>
129.715423583984

> <r_mmod_Stretch_Energy-OPLS-2005>
43.0469589233398

> <r_mmod_Bend_Energy-OPLS-2005>
141.001327514648

> <r_mmod_Torsional_Energy-OPLS-2005>
395.053466796875

> <r_mmod_Improper_Torsional_Energy-OPLS-2005>
11.8944892883301

> <r_mmod_Van_der_Waal_Energy-OPLS-2005>
165.429595947266

> <r_mmod_Electrostatic_Energy-OPLS-2005>
-425.912841796875

> <r_mmod_Solvation_Energy-OPLS-2005>
-212.359680175781

> <b_mmod_Minimization_Converged-OPLS-2005>
0

> <r_mmod_RMS_Derivative-OPLS-2005>
2.09103775024414

$$$$
44
                    3D
 Structure written by MMmdl.
164173  0  0  1  0            999 V2000
  -30.6840  -14.6856   20.4792 C   0  0  0  0  0  0
  -30.4148  -12.4310   19.4541 C   0  0  0  0  0  0
  -29.4962  -12.5022   18.2179 C   0  0  0  0  0  0
  -28.0215  -12.3430   18.6346 C   0  0  0  0  0  0
  -27.6386  -13.2354   19.8470 C   0  0  2  0  0  0
  -28.6885  -13.1541   20.9736 C   0  0  0  0  0  0
  -25.2502  -13.8204   20.5705 C   0  0  0  0  0  0
  -24.1795  -13.0443   20.9205 C   0  0  0  0  0  0
  -24.6391  -11.6922   20.8742 C   0  0  0  0  0  0
  -23.9072  -10.4296   21.0405 C   0  0  0  0  0  0
  -24.3622   -9.4213   21.9183 C   0  0  0  0  0  0
  -23.6302   -8.2245   22.0750 C   0  0  0  0  0  0
  -22.4282   -8.0280   21.3543 C   0  0  0  0  0  0
  -21.9917   -9.0255   20.4648 C   0  0  0  0  0  0
  -22.7242  -10.2138   20.3057 C   0  0  0  0  0  0
  -21.6857   -6.0733   22.5279 C   0  0  0  0  0  0
  -21.4017   -6.5636   23.8211 C   0  0  0  0  0  0
  -21.3660   -5.6790   24.9174 C   0  0  0  0  0  0
  -21.6045   -4.3052   24.7223 C   0  0  0  0  0  0
  -21.8820   -3.8143   23.4344 C   0  0  0  0  0  0
  -21.9194   -4.6960   22.3401 C   0  0  0  0  0  0
  -22.7821  -13.5225   21.1866 C   0  0  0  0  0  0
  -22.1666   -4.2145   21.0980 F   0  0  0  0  0  0
  -21.5629   -3.4537   25.7736 F   0  0  0  0  0  0
  -29.9817  -13.5060   20.3770 N   0  0  0  0  0  0
  -26.2929  -12.9422   20.3291 N   0  0  0  0  0  0
  -25.9322  -11.6556   20.5750 N   0  0  0  0  0  0
  -22.0472  -12.8213   22.0423 N   0  0  0  0  0  0
  -25.4199  -15.1923   20.4133 N   0  0  0  0  0  0
  -31.8912  -14.6705   20.2157 O   0  0  0  0  0  0
  -21.6644   -6.8878   21.4242 O   0  0  0  0  0  0
  -22.3504  -14.5532   20.6716 O   0  0  0  0  0  0
  -24.6300  -31.8591   23.2037 C   0  0  0  0  0  0
  -25.9141  -32.4770   23.8360 C   0  0  1  0  0  0
  -27.2067  -27.2862   20.1107 C   0  0  0  0  0  0
  -25.5948  -33.8574   24.2278 N   0  0  0  0  0  0
  -23.4233  -30.4873   21.5477 C   0  0  2  0  0  0
  -24.8654  -28.9465   20.1102 C   0  0  0  0  0  0
  -22.7493  -29.4626   22.4924 C   0  0  0  0  0  0
  -18.0290  -28.1384   22.8487 C   0  0  0  0  0  0
  -24.1490  -36.7288   23.2636 C   0  0  0  0  0  0
  -25.9709  -30.7795   21.3816 C   0  0  0  0  0  0
  -26.0408  -29.4079   20.7163 C   0  0  0  0  0  0
  -27.2164  -28.5913   20.7050 C   0  0  0  0  0  0
  -26.0012  -26.8940   19.4795 C   0  0  0  0  0  0
  -24.8498  -27.6965   19.4824 C   0  0  0  0  0  0
  -23.6384  -29.8321   20.1606 C   0  0  0  0  0  0
  -25.4115  -36.3076   24.0326 C   0  0  1  0  0  0
  -20.5895  -28.3693   23.1276 C   0  0  2  0  0  0
  -20.6781  -26.9416   22.5407 C   0  0  0  0  0  0
  -19.5754  -26.6385   21.5214 C   0  0  0  0  0  0
  -18.1934  -26.7928   22.1624 C   0  0  0  0  0  0
  -19.1543  -28.8855   23.2877 C   0  0  0  0  0  0
  -18.9462  -30.1455   23.8894 C   0  0  0  0  0  0
  -17.6463  -30.6587   24.0560 C   0  0  0  0  0  0
  -25.9059  -34.9445   23.5100 C   0  0  0  0  0  0
  -16.5353  -29.9083   23.6332 C   0  0  0  0  0  0
  -16.7277  -28.6499   23.0356 C   0  0  0  0  0  0
  -26.4504  -31.6590   25.0745 C   0  0  0  0  0  0
  -25.3728  -31.3752   26.1468 C   0  0  0  0  0  0
  -27.0346  -30.3000   24.6241 C   0  0  0  0  0  0
  -27.6055  -32.4332   25.7520 C   0  0  0  0  0  0
  -27.5583  -37.1796   24.8458 C   0  0  0  0  0  0
  -21.4202  -29.3050   22.3670 N   0  0  0  0  0  0
  -26.4285  -37.3777   23.9413 N   0  0  0  0  0  0
  -24.6939  -31.0584   22.1001 N   0  0  0  0  0  0
  -23.4209  -28.8156   23.2999 O   0  0  0  0  0  0
  -28.2971  -26.3895   20.1604 O   0  0  0  0  0  0
  -26.5622  -34.8914   22.4663 O   0  0  0  0  0  0
  -23.5457  -32.1400   23.7350 O   0  0  0  0  0  0
  -31.3536  -22.9751   19.6661 C   0  0  0  0  0  0
  -28.7534  -22.4382   20.4848 C   0  0  0  0  0  0
  -30.4114  -24.0267   19.6561 C   0  0  0  0  0  0
  -31.0228  -21.6691   20.0881 C   0  0  0  0  0  0
  -29.0839  -23.7964   20.0929 C   0  0  0  0  0  0
  -29.7024  -21.3477   20.4830 C   0  0  0  0  0  0
  -29.8079  -18.2263   19.2088 C   0  0  0  0  0  0
  -28.4005  -17.7714   21.2028 C   0  0  0  0  0  0
  -30.7043  -17.0251   19.6719 C   0  0  0  0  0  0
  -29.3741  -16.5836   21.5707 C   0  0  0  0  0  0
  -28.9322  -18.9254   20.2849 C   0  0  0  0  0  0
  -30.8572  -25.3911   19.1577 C   0  0  0  0  0  0
  -32.1356  -20.6356   20.1467 C   0  0  0  0  0  0
  -27.9888  -24.9320   20.0051 C   0  0  0  0  0  0
  -30.0228  -15.9166   20.4120 N   0  0  0  0  0  0
  -29.4731  -20.0663   21.0375 O   0  0  0  0  0  0
  -31.4573  -12.5265   19.1457 H   0  0  0  0  0  0
  -30.3389  -11.4553   19.9369 H   0  0  0  0  0  0
  -29.7690  -11.7294   17.4980 H   0  0  0  0  0  0
  -29.6334  -13.4580   17.7091 H   0  0  0  0  0  0
  -27.8648  -11.2934   18.8847 H   0  0  0  0  0  0
  -27.3650  -12.5527   17.7896 H   0  0  0  0  0  0
  -27.6371  -14.2626   19.4802 H   0  0  0  0  0  0
  -28.7242  -12.1494   21.3979 H   0  0  0  0  0  0
  -28.4262  -13.8126   21.7976 H   0  0  0  0  0  0
  -25.2768   -9.5694   22.4757 H   0  0  0  0  0  0
  -24.0011   -7.4635   22.7467 H   0  0  0  0  0  0
  -21.0845   -8.8778   19.8956 H   0  0  0  0  0  0
  -22.3699  -10.9676   19.6166 H   0  0  0  0  0  0
  -21.2013   -7.6146   23.9713 H   0  0  0  0  0  0
  -21.1484   -6.0521   25.9078 H   0  0  0  0  0  0
  -22.0600   -2.7604   23.2843 H   0  0  0  0  0  0
  -22.4098  -11.9878   22.4813 H   0  0  0  0  0  0
  -21.1090  -13.1238   22.2629 H   0  0  0  0  0  0
  -24.6564  -15.8497   20.5282 H   0  0  0  0  0  0
  -26.2787  -15.6287   20.1052 H   0  0  0  0  0  0
  -26.7205  -32.5419   23.1100 H   0  0  0  0  0  0
  -25.0097  -33.9716   25.0423 H   0  0  0  0  0  0
  -22.7182  -31.3096   21.4090 H   0  0  0  0  0  0
  -23.3758  -35.9614   23.3282 H   0  0  0  0  0  0
  -24.3586  -36.8928   22.2055 H   0  0  0  0  0  0
  -23.7234  -37.6481   23.6670 H   0  0  0  0  0  0
  -26.1139  -31.5462   20.6189 H   0  0  0  0  0  0
  -26.8467  -30.8181   22.0179 H   0  0  0  0  0  0
  -28.1161  -28.9405   21.1919 H   0  0  0  0  0  0
  -25.8938  -25.9454   18.9798 H   0  0  0  0  0  0
  -23.9496  -27.3377   19.0019 H   0  0  0  0  0  0
  -23.7646  -30.6135   19.4104 H   0  0  0  0  0  0
  -22.7556  -29.2694   19.8522 H   0  0  0  0  0  0
  -25.1292  -36.1919   25.0818 H   0  0  0  0  0  0
  -20.9984  -28.3266   24.1397 H   0  0  0  0  0  0
  -20.5690  -26.2303   23.3607 H   0  0  0  0  0  0
  -21.6647  -26.7447   22.1195 H   0  0  0  0  0  0
  -19.6918  -25.6295   21.1248 H   0  0  0  0  0  0
  -19.6694  -27.3192   20.6742 H   0  0  0  0  0  0
  -17.4207  -26.6674   21.4025 H   0  0  0  0  0  0
  -18.0334  -26.0070   22.9018 H   0  0  0  0  0  0
  -19.7937  -30.7271   24.2264 H   0  0  0  0  0  0
  -17.5017  -31.6268   24.5161 H   0  0  0  0  0  0
  -15.5354  -30.2984   23.7661 H   0  0  0  0  0  0
  -15.8676  -28.0819   22.7075 H   0  0  0  0  0  0
  -24.5896  -30.7107   25.7801 H   0  0  0  0  0  0
  -24.8930  -32.2930   26.4877 H   0  0  0  0  0  0
  -25.8043  -30.8939   27.0253 H   0  0  0  0  0  0
  -26.2936  -29.6755   24.1238 H   0  0  0  0  0  0
  -27.3983  -29.7258   25.4772 H   0  0  0  0  0  0
  -27.8836  -30.4257   23.9517 H   0  0  0  0  0  0
  -27.2651  -33.3626   26.2095 H   0  0  0  0  0  0
  -28.3868  -32.6904   25.0357 H   0  0  0  0  0  0
  -28.0723  -31.8465   26.5440 H   0  0  0  0  0  0
  -28.2578  -38.0115   24.7528 H   0  0  0  0  0  0
  -28.1097  -36.2646   24.6244 H   0  0  0  0  0  0
  -27.2307  -37.1399   25.8862 H   0  0  0  0  0  0
  -20.9382  -29.8781   21.6889 H   0  0  0  0  0  0
  -26.0162  -38.2845   24.1431 H   0  0  0  0  0  0
  -32.3692  -23.1771   19.3537 H   0  0  0  0  0  0
  -27.7450  -22.2328   20.8145 H   0  0  0  0  0  0
  -29.1286  -17.8290   18.4535 H   0  0  0  0  0  0
  -30.4052  -18.9652   18.6770 H   0  0  0  0  0  0
  -27.9894  -18.2035   22.1156 H   0  0  0  0  0  0
  -27.5446  -17.3269   20.6943 H   0  0  0  0  0  0
  -31.5223  -17.4055   20.2863 H   0  0  0  0  0  0
  -31.1770  -16.6211   18.7741 H   0  0  0  0  0  0
  -28.8255  -15.8609   22.1700 H   0  0  0  0  0  0
  -30.1572  -16.9615   22.2305 H   0  0  0  0  0  0
  -28.0690  -19.3488   19.7679 H   0  0  0  0  0  0
  -31.8510  -25.3522   18.7113 H   0  0  0  0  0  0
  -30.8911  -26.1051   19.9807 H   0  0  0  0  0  0
  -30.1746  -25.7701   18.3967 H   0  0  0  0  0  0
  -33.0579  -21.0892   20.5103 H   0  0  0  0  0  0
  -32.3316  -20.2298   19.1547 H   0  0  0  0  0  0
  -31.8999  -19.8097   20.8169 H   0  0  0  0  0  0
  -27.1927  -24.6724   20.7046 H   0  0  0  0  0  0
  -27.5916  -24.7813   19.0024 H   0  0  0  0  0  0
  1 25  1  0  0  0
  1 30  2  0  0  0
  1 85  1  0  0  0
  2  3  1  0  0  0
  2 25  1  0  0  0
  2 87  1  0  0  0
  2 88  1  0  0  0
  3  4  1  0  0  0
  3 89  1  0  0  0
  3 90  1  0  0  0
  4  5  1  0  0  0
  4 91  1  0  0  0
  4 92  1  0  0  0
  5  6  1  0  0  0
  5 26  1  0  0  0
  5 93  1  0  0  0
  6 25  1  0  0  0
  6 94  1  0  0  0
  6 95  1  0  0  0
  7  8  2  0  0  0
  7 26  1  0  0  0
  7 29  1  0  0  0
  8  9  1  0  0  0
  8 22  1  0  0  0
  9 10  1  0  0  0
  9 27  2  0  0  0
 10 11  2  0  0  0
 10 15  1  0  0  0
 11 12  1  0  0  0
 11 96  1  0  0  0
 12 13  2  0  0  0
 12 97  1  0  0  0
 13 14  1  0  0  0
 13 31  1  0  0  0
 14 15  2  0  0  0
 14 98  1  0  0  0
 15 99  1  0  0  0
 16 17  2  0  0  0
 16 21  1  0  0  0
 16 31  1  0  0  0
 17 18  1  0  0  0
 17100  1  0  0  0
 18 19  2  0  0  0
 18101  1  0  0  0
 19 20  1  0  0  0
 19 24  1  0  0  0
 20 21  2  0  0  0
 20102  1  0  0  0
 21 23  1  0  0  0
 22 28  1  0  0  0
 22 32  2  0  0  0
 26 27  1  0  0  0
 28103  1  0  0  0
 28104  1  0  0  0
 29105  1  0  0  0
 29106  1  0  0  0
 33 34  1  0  0  0
 33 66  1  0  0  0
 33 70  2  0  0  0
 34 36  1  0  0  0
 34 59  1  0  0  0
 34107  1  0  0  0
 35 44  2  0  0  0
 35 45  1  0  0  0
 35 68  1  0  0  0
 36 56  1  0  0  0
 36108  1  0  0  0
 37 39  1  0  0  0
 37 47  1  0  0  0
 37 66  1  0  0  0
 37109  1  0  0  0
 38 43  2  0  0  0
 38 46  1  0  0  0
 38 47  1  0  0  0
 39 64  1  0  0  0
 39 67  2  0  0  0
 40 52  1  0  0  0
 40 53  2  0  0  0
 40 58  1  0  0  0
 41110  1  0  0  0
 41111  1  0  0  0
 41112  1  0  0  0
 41 48  1  0  0  0
 42 43  1  0  0  0
 42 66  1  0  0  0
 42113  1  0  0  0
 42114  1  0  0  0
 43 44  1  0  0  0
 44115  1  0  0  0
 45 46  2  0  0  0
 45116  1  0  0  0
 46117  1  0  0  0
 47118  1  0  0  0
 47119  1  0  0  0
 48 56  1  0  0  0
 48 65  1  0  0  0
 48120  1  0  0  0
 49 50  1  0  0  0
 49 53  1  0  0  0
 49 64  1  0  0  0
 49121  1  0  0  0
 50 51  1  0  0  0
 50122  1  0  0  0
 50123  1  0  0  0
 51 52  1  0  0  0
 51124  1  0  0  0
 51125  1  0  0  0
 52126  1  0  0  0
 52127  1  0  0  0
 53 54  1  0  0  0
 54 55  2  0  0  0
 54128  1  0  0  0
 55 57  1  0  0  0
 55129  1  0  0  0
 56 69  2  0  0  0
 57 58  2  0  0  0
 57130  1  0  0  0
 58131  1  0  0  0
 59 60  1  0  0  0
 59 61  1  0  0  0
 59 62  1  0  0  0
 60132  1  0  0  0
 60133  1  0  0  0
 60134  1  0  0  0
 61135  1  0  0  0
 61136  1  0  0  0
 61137  1  0  0  0
 62138  1  0  0  0
 62139  1  0  0  0
 62140  1  0  0  0
 63 65  1  0  0  0
 63141  1  0  0  0
 63142  1  0  0  0
 63143  1  0  0  0
 64144  1  0  0  0
 65145  1  0  0  0
 68 84  1  0  0  0
 71 73  2  0  0  0
 71 74  1  0  0  0
 71146  1  0  0  0
 72 75  2  0  0  0
 72 76  1  0  0  0
 72147  1  0  0  0
 73 75  1  0  0  0
 73 82  1  0  0  0
 74 76  2  0  0  0
 74 83  1  0  0  0
 75 84  1  0  0  0
 76 86  1  0  0  0
 77 79  1  0  0  0
 77 81  1  0  0  0
 77148  1  0  0  0
 77149  1  0  0  0
 78 80  1  0  0  0
 78 81  1  0  0  0
 78150  1  0  0  0
 78151  1  0  0  0
 79 85  1  0  0  0
 79152  1  0  0  0
 79153  1  0  0  0
 80 85  1  0  0  0
 80154  1  0  0  0
 80155  1  0  0  0
 81 86  1  0  0  0
 81156  1  0  0  0
 82157  1  0  0  0
 82158  1  0  0  0
 82159  1  0  0  0
 83160  1  0  0  0
 83161  1  0  0  0
 83162  1  0  0  0
 84163  1  0  0  0
 84164  1  0  0  0
M  ISO  4   1 100  68 101  84 101  85 100
M  END
> <chiral flag>
0

> <version>
0

> <s_m_source_file>
/data/baiqing/PycharmProjects/Reinvent-master-3.2/result/LINK_invent/BTK/process_docking_weight1_custom_sum_contain_oxygen_bond_distance_aromatic_linkinvent_7_9_3/rearranged_h_0158.sdf

> <i_m_source_file_index>
45

> <r_mmod_Potential_Energy-OPLS-2005>
385.795562744141

> <r_mmod_Stretch_Energy-OPLS-2005>
99.2583618164062

> <r_mmod_Bend_Energy-OPLS-2005>
187.7763671875

> <r_mmod_Torsional_Energy-OPLS-2005>
350.688842773438

> <r_mmod_Improper_Torsional_Energy-OPLS-2005>
19.6671009063721

> <r_mmod_Van_der_Waal_Energy-OPLS-2005>
151.998016357422

> <r_mmod_Electrostatic_Energy-OPLS-2005>
-300.790222167969

> <r_mmod_Solvation_Energy-OPLS-2005>
-194.421081542969

> <b_mmod_Minimization_Converged-OPLS-2005>
0

> <r_mmod_RMS_Derivative-OPLS-2005>
0.701591610908508

$$$$
45
                    3D
 Structure written by MMmdl.
177186  0  0  1  0            999 V2000
  -30.6427  -14.4860   20.5860 C   0  0  0  0  0  0
  -30.4512  -12.3249   19.3962 C   0  0  0  0  0  0
  -29.4989  -12.5312   18.1960 C   0  0  0  0  0  0
  -28.0182  -12.3870   18.6095 C   0  0  0  0  0  0
  -27.6743  -13.1922   19.8911 C   0  0  2  0  0  0
  -28.7292  -12.8941   20.9826 C   0  0  0  0  0  0
  -25.2614  -13.8100   20.5550 C   0  0  0  0  0  0
  -24.1857  -13.0421   20.9131 C   0  0  0  0  0  0
  -24.6403  -11.6888   20.8761 C   0  0  0  0  0  0
  -23.9059  -10.4289   21.0431 C   0  0  0  0  0  0
  -24.3615   -9.4199   21.9206 C   0  0  0  0  0  0
  -23.6292   -8.2235   22.0769 C   0  0  0  0  0  0
  -22.4280   -8.0273   21.3550 C   0  0  0  0  0  0
  -21.9921   -9.0244   20.4643 C   0  0  0  0  0  0
  -22.7243  -10.2126   20.3059 C   0  0  0  0  0  0
  -21.6839   -6.0735   22.5282 C   0  0  0  0  0  0
  -21.3994   -6.5635   23.8214 C   0  0  0  0  0  0
  -21.3657   -5.6789   24.9177 C   0  0  0  0  0  0
  -21.6050   -4.3051   24.7224 C   0  0  0  0  0  0
  -21.8813   -3.8151   23.4346 C   0  0  0  0  0  0
  -21.9182   -4.6969   22.3409 C   0  0  0  0  0  0
  -22.7891  -13.5256   21.1806 C   0  0  0  0  0  0
  -22.1667   -4.2163   21.0996 F   0  0  0  0  0  0
  -21.5633   -3.4525   25.7735 F   0  0  0  0  0  0
  -30.0499  -13.2660   20.4531 N   0  0  0  0  0  0
  -26.3098  -12.9264   20.3457 N   0  0  0  0  0  0
  -25.9346  -11.6444   20.5870 N   0  0  0  0  0  0
  -22.0532  -12.8280   22.0395 N   0  0  0  0  0  0
  -25.4254  -15.1798   20.3779 N   0  0  0  0  0  0
  -31.7522  -14.7462   20.1065 O   0  0  0  0  0  0
  -21.6634   -6.8880   21.4245 O   0  0  0  0  0  0
  -22.3580  -14.5561   20.6645 O   0  0  0  0  0  0
  -24.6166  -31.8664   23.2090 C   0  0  0  0  0  0
  -25.9055  -32.4814   23.8388 C   0  0  1  0  0  0
  -27.2421  -27.4234   20.0889 C   0  0  0  0  0  0
  -25.5908  -33.8613   24.2313 N   0  0  0  0  0  0
  -23.4042  -30.4898   21.5509 C   0  0  2  0  0  0
  -24.8505  -28.9542   20.1166 C   0  0  0  0  0  0
  -22.7413  -29.4653   22.4996 C   0  0  0  0  0  0
  -18.0266  -28.1388   22.8496 C   0  0  0  0  0  0
  -24.1482  -36.7321   23.2638 C   0  0  0  0  0  0
  -25.9343  -30.8289   21.3623 C   0  0  0  0  0  0
  -26.0132  -29.4628   20.7079 C   0  0  0  0  0  0
  -27.2099  -28.7074   20.6875 C   0  0  0  0  0  0
  -26.0541  -26.9331   19.4941 C   0  0  0  0  0  0
  -24.8664  -27.6885   19.5084 C   0  0  0  0  0  0
  -23.6127  -29.8210   20.1667 C   0  0  0  0  0  0
  -25.4102  -36.3104   24.0331 C   0  0  1  0  0  0
  -20.5861  -28.3669   23.1325 C   0  0  2  0  0  0
  -20.6758  -26.9400   22.5430 C   0  0  0  0  0  0
  -19.5740  -26.6382   21.5226 C   0  0  0  0  0  0
  -18.1911  -26.7938   22.1621 C   0  0  0  0  0  0
  -19.1518  -28.8845   23.2906 C   0  0  0  0  0  0
  -18.9450  -30.1453   23.8914 C   0  0  0  0  0  0
  -17.6452  -30.6596   24.0564 C   0  0  0  0  0  0
  -25.9037  -34.9473   23.5116 C   0  0  0  0  0  0
  -16.5339  -29.9097   23.6332 C   0  0  0  0  0  0
  -16.7252  -28.6515   23.0352 C   0  0  0  0  0  0
  -26.4483  -31.6600   25.0724 C   0  0  0  0  0  0
  -25.3755  -31.3722   26.1482 C   0  0  0  0  0  0
  -27.0311  -30.3035   24.6117 C   0  0  0  0  0  0
  -27.6055  -32.4328   25.7490 C   0  0  0  0  0  0
  -27.5582  -37.1803   24.8455 C   0  0  0  0  0  0
  -21.4140  -29.3036   22.3736 N   0  0  0  0  0  0
  -26.4283  -37.3795   23.9415 N   0  0  0  0  0  0
  -24.6704  -31.0758   22.0993 N   0  0  0  0  0  0
  -23.4178  -28.8192   23.3040 O   0  0  0  0  0  0
  -28.4227  -26.6942   20.1006 O   0  0  0  0  0  0
  -26.5600  -34.8928   22.4678 O   0  0  0  0  0  0
  -23.5360  -32.1425   23.7479 O   0  0  0  0  0  0
  -27.2949  -19.6620   22.2089 C   0  0  0  0  0  0
  -26.5207  -17.5492   23.0179 C   0  0  0  0  0  0
  -28.4261  -19.0634   21.5989 C   0  0  0  0  0  0
  -28.5903  -17.6273   21.6517 C   0  0  0  0  0  0
  -26.3282  -18.9238   22.9049 C   0  0  0  0  0  0
  -27.6277  -16.8884   22.4303 C   0  0  0  0  0  0
  -28.6658  -20.8477   19.7789 C   0  0  0  0  0  0
  -29.9407  -21.0766   22.0184 C   0  0  0  0  0  0
  -29.2756  -22.2135   19.3952 C   0  0  0  0  0  0
  -30.4516  -22.4354   21.4835 C   0  0  0  0  0  0
  -29.3873  -20.0866   20.9407 C   0  0  1  0  0  0
  -29.5488  -17.1040   19.3416 C   0  0  0  0  0  0
  -24.9529  -20.8508   23.3375 C   0  0  0  0  0  0
  -26.9310  -14.8509   23.5605 C   0  0  0  0  0  0
  -29.6383  -24.5248   20.3395 C   0  0  0  0  0  0
  -28.3355  -25.2655   19.9235 C   0  0  0  0  0  0
  -29.7408  -16.8984   20.8642 C   0  0  2  0  0  0
  -29.8311  -15.4378   21.1002 N   0  0  0  0  0  0
  -29.4339  -23.0626   20.6017 N   0  3  1  0  0  0
  -25.2090  -19.4611   23.5045 O   0  0  0  0  0  0
  -27.7614  -15.5250   22.6118 O   0  0  0  0  0  0
  -31.4857  -12.4753   19.0835 H   0  0  0  0  0  0
  -30.3978  -11.2980   19.7614 H   0  0  0  0  0  0
  -29.7355  -11.8232   17.4001 H   0  0  0  0  0  0
  -29.6587  -13.5237   17.7737 H   0  0  0  0  0  0
  -27.8222  -11.3277   18.7748 H   0  0  0  0  0  0
  -27.3679  -12.6924   17.7890 H   0  0  0  0  0  0
  -27.7343  -14.2499   19.6375 H   0  0  0  0  0  0
  -28.7177  -11.8308   21.2262 H   0  0  0  0  0  0
  -28.5228  -13.3856   21.9229 H   0  0  0  0  0  0
  -25.2756   -9.5668   22.4778 H   0  0  0  0  0  0
  -23.9985   -7.4641   22.7511 H   0  0  0  0  0  0
  -21.0845   -8.8761   19.8959 H   0  0  0  0  0  0
  -22.3721  -10.9665   19.6153 H   0  0  0  0  0  0
  -21.1988   -7.6141   23.9718 H   0  0  0  0  0  0
  -21.1498   -6.0527   25.9082 H   0  0  0  0  0  0
  -22.0602   -2.7617   23.2857 H   0  0  0  0  0  0
  -22.4110  -11.9920   22.4779 H   0  0  0  0  0  0
  -21.1133  -13.1294   22.2562 H   0  0  0  0  0  0
  -24.6633  -15.8347   20.5048 H   0  0  0  0  0  0
  -26.3031  -15.6310   20.1571 H   0  0  0  0  0  0
  -26.7126  -32.5519   23.1153 H   0  0  0  0  0  0
  -25.0063  -33.9774   25.0460 H   0  0  0  0  0  0
  -22.6936  -31.3073   21.4109 H   0  0  0  0  0  0
  -23.3742  -35.9653   23.3276 H   0  0  0  0  0  0
  -24.3585  -36.8969   22.2057 H   0  0  0  0  0  0
  -23.7228  -37.6514   23.6676 H   0  0  0  0  0  0
  -26.0471  -31.5954   20.5949 H   0  0  0  0  0  0
  -26.8221  -30.8819   21.9805 H   0  0  0  0  0  0
  -28.1081  -29.1022   21.1425 H   0  0  0  0  0  0
  -26.0187  -25.9705   19.0054 H   0  0  0  0  0  0
  -23.9724  -27.2901   19.0482 H   0  0  0  0  0  0
  -23.7185  -30.5950   19.4058 H   0  0  0  0  0  0
  -22.7370  -29.2398   19.8725 H   0  0  0  0  0  0
  -25.1275  -36.1959   25.0823 H   0  0  0  0  0  0
  -20.9945  -28.3231   24.1450 H   0  0  0  0  0  0
  -20.5659  -26.2276   23.3620 H   0  0  0  0  0  0
  -21.6625  -26.7447   22.1218 H   0  0  0  0  0  0
  -19.6892  -25.6290   21.1258 H   0  0  0  0  0  0
  -19.6694  -27.3191   20.6758 H   0  0  0  0  0  0
  -17.4194  -26.6712   21.4006 H   0  0  0  0  0  0
  -18.0282  -26.0069   22.9001 H   0  0  0  0  0  0
  -19.7933  -30.7263   24.2285 H   0  0  0  0  0  0
  -17.5016  -31.6285   24.5150 H   0  0  0  0  0  0
  -15.5345  -30.3009   23.7653 H   0  0  0  0  0  0
  -15.8651  -28.0843   22.7060 H   0  0  0  0  0  0
  -24.5917  -30.7074   25.7833 H   0  0  0  0  0  0
  -24.8969  -32.2886   26.4940 H   0  0  0  0  0  0
  -25.8118  -30.8890   27.0233 H   0  0  0  0  0  0
  -26.2852  -29.6791   24.1186 H   0  0  0  0  0  0
  -27.4081  -29.7282   25.4583 H   0  0  0  0  0  0
  -27.8689  -30.4337   23.9265 H   0  0  0  0  0  0
  -27.2664  -33.3617   26.2087 H   0  0  0  0  0  0
  -28.3860  -32.6905   25.0319 H   0  0  0  0  0  0
  -28.0730  -31.8445   26.5396 H   0  0  0  0  0  0
  -28.2575  -38.0123   24.7530 H   0  0  0  0  0  0
  -28.1100  -36.2658   24.6229 H   0  0  0  0  0  0
  -27.2316  -37.1385   25.8860 H   0  0  0  0  0  0
  -20.9296  -29.8778   21.6982 H   0  0  0  0  0  0
  -26.0168  -38.2866   24.1439 H   0  0  0  0  0  0
  -27.1758  -20.7312   22.1443 H   0  0  0  0  0  0
  -25.7644  -17.0171   23.5734 H   0  0  0  0  0  0
  -28.6108  -20.2128   18.8954 H   0  0  0  0  0  0
  -27.6254  -21.0476   20.0292 H   0  0  0  0  0  0
  -29.1815  -21.3188   22.7600 H   0  0  0  0  0  0
  -30.7272  -20.5822   22.5899 H   0  0  0  0  0  0
  -28.6265  -22.6998   18.6669 H   0  0  0  0  0  0
  -30.2389  -22.0777   18.9010 H   0  0  0  0  0  0
  -31.3930  -22.3094   20.9462 H   0  0  0  0  0  0
  -30.6715  -23.0853   22.3324 H   0  0  0  0  0  0
  -30.2571  -19.5818   20.5253 H   0  0  0  0  0  0
  -29.5331  -18.1475   19.0427 H   0  0  0  0  0  0
  -28.6081  -16.6651   19.0084 H   0  0  0  0  0  0
  -30.3474  -16.6421   18.7606 H   0  0  0  0  0  0
  -24.0106  -21.1067   23.8224 H   0  0  0  0  0  0
  -24.8607  -21.1152   22.2830 H   0  0  0  0  0  0
  -25.7315  -21.4607   23.7981 H   0  0  0  0  0  0
  -27.2685  -13.8230   23.6895 H   0  0  0  0  0  0
  -25.8936  -14.8062   23.2260 H   0  0  0  0  0  0
  -26.9750  -15.3217   24.5430 H   0  0  0  0  0  0
  -29.9896  -24.9912   21.2602 H   0  0  0  0  0  0
  -30.4261  -24.6780   19.6013 H   0  0  0  0  0  0
  -27.5132  -24.8850   20.5325 H   0  0  0  0  0  0
  -28.0992  -25.0406   18.8826 H   0  0  0  0  0  0
  -30.6880  -17.3395   21.1754 H   0  0  0  0  0  0
  -29.0065  -15.0804   21.5710 H   0  0  0  0  0  0
  -28.5675  -23.0113   21.1164 H   0  0  0  0  0  0
  1 25  1  0  0  0
  1 30  2  0  0  0
  1 88  1  0  0  0
  2  3  1  0  0  0
  2 25  1  0  0  0
  2 92  1  0  0  0
  2 93  1  0  0  0
  3  4  1  0  0  0
  3 94  1  0  0  0
  3 95  1  0  0  0
  4  5  1  0  0  0
  4 96  1  0  0  0
  4 97  1  0  0  0
  5  6  1  0  0  0
  5 26  1  0  0  0
  5 98  1  0  0  0
  6 25  1  0  0  0
  6 99  1  0  0  0
  6100  1  0  0  0
  7  8  2  0  0  0
  7 26  1  0  0  0
  7 29  1  0  0  0
  8  9  1  0  0  0
  8 22  1  0  0  0
  9 10  1  0  0  0
  9 27  2  0  0  0
 10 11  2  0  0  0
 10 15  1  0  0  0
 11 12  1  0  0  0
 11101  1  0  0  0
 12 13  2  0  0  0
 12102  1  0  0  0
 13 14  1  0  0  0
 13 31  1  0  0  0
 14 15  2  0  0  0
 14103  1  0  0  0
 15104  1  0  0  0
 16 17  2  0  0  0
 16 21  1  0  0  0
 16 31  1  0  0  0
 17 18  1  0  0  0
 17105  1  0  0  0
 18 19  2  0  0  0
 18106  1  0  0  0
 19 20  1  0  0  0
 19 24  1  0  0  0
 20 21  2  0  0  0
 20107  1  0  0  0
 21 23  1  0  0  0
 22 28  1  0  0  0
 22 32  2  0  0  0
 26 27  1  0  0  0
 28108  1  0  0  0
 28109  1  0  0  0
 29110  1  0  0  0
 29111  1  0  0  0
 33 34  1  0  0  0
 33 66  1  0  0  0
 33 70  2  0  0  0
 34 36  1  0  0  0
 34 59  1  0  0  0
 34112  1  0  0  0
 35 44  2  0  0  0
 35 45  1  0  0  0
 35 68  1  0  0  0
 36 56  1  0  0  0
 36113  1  0  0  0
 37 39  1  0  0  0
 37 47  1  0  0  0
 37 66  1  0  0  0
 37114  1  0  0  0
 38 43  2  0  0  0
 38 46  1  0  0  0
 38 47  1  0  0  0
 39 64  1  0  0  0
 39 67  2  0  0  0
 40 52  1  0  0  0
 40 53  2  0  0  0
 40 58  1  0  0  0
 41115  1  0  0  0
 41116  1  0  0  0
 41117  1  0  0  0
 41 48  1  0  0  0
 42 43  1  0  0  0
 42 66  1  0  0  0
 42118  1  0  0  0
 42119  1  0  0  0
 43 44  1  0  0  0
 44120  1  0  0  0
 45 46  2  0  0  0
 45121  1  0  0  0
 46122  1  0  0  0
 47123  1  0  0  0
 47124  1  0  0  0
 48 56  1  0  0  0
 48 65  1  0  0  0
 48125  1  0  0  0
 49 50  1  0  0  0
 49 53  1  0  0  0
 49 64  1  0  0  0
 49126  1  0  0  0
 50 51  1  0  0  0
 50127  1  0  0  0
 50128  1  0  0  0
 51 52  1  0  0  0
 51129  1  0  0  0
 51130  1  0  0  0
 52131  1  0  0  0
 52132  1  0  0  0
 53 54  1  0  0  0
 54 55  2  0  0  0
 54133  1  0  0  0
 55 57  1  0  0  0
 55134  1  0  0  0
 56 69  2  0  0  0
 57 58  2  0  0  0
 57135  1  0  0  0
 58136  1  0  0  0
 59 60  1  0  0  0
 59 61  1  0  0  0
 59 62  1  0  0  0
 60137  1  0  0  0
 60138  1  0  0  0
 60139  1  0  0  0
 61140  1  0  0  0
 61141  1  0  0  0
 61142  1  0  0  0
 62143  1  0  0  0
 62144  1  0  0  0
 62145  1  0  0  0
 63 65  1  0  0  0
 63146  1  0  0  0
 63147  1  0  0  0
 63148  1  0  0  0
 64149  1  0  0  0
 65150  1  0  0  0
 68 86  1  0  0  0
 71 73  2  0  0  0
 71 75  1  0  0  0
 71151  1  0  0  0
 72 75  2  0  0  0
 72 76  1  0  0  0
 72152  1  0  0  0
 73 74  1  0  0  0
 73 81  1  0  0  0
 74 76  2  0  0  0
 74 87  1  0  0  0
 75 90  1  0  0  0
 76 91  1  0  0  0
 77 79  1  0  0  0
 77 81  1  0  0  0
 77153  1  0  0  0
 77154  1  0  0  0
 78 80  1  0  0  0
 78 81  1  0  0  0
 78155  1  0  0  0
 78156  1  0  0  0
 79 89  1  0  0  0
 79157  1  0  0  0
 79158  1  0  0  0
 80 89  1  0  0  0
 80159  1  0  0  0
 80160  1  0  0  0
 81161  1  0  0  0
 82162  1  0  0  0
 82163  1  0  0  0
 82164  1  0  0  0
 82 87  1  0  0  0
 83 90  1  0  0  0
 83165  1  0  0  0
 83166  1  0  0  0
 83167  1  0  0  0
 84 91  1  0  0  0
 84168  1  0  0  0
 84169  1  0  0  0
 84170  1  0  0  0
 85 86  1  0  0  0
 85171  1  0  0  0
 85172  1  0  0  0
 85 89  1  0  0  0
 86173  1  0  0  0
 86174  1  0  0  0
 87 88  1  0  0  0
 87175  1  0  0  0
 88176  1  0  0  0
 89177  1  0  0  0
M  CHG  1  89   1
M  ISO  4   1 100  68 101  86 101  88 100
M  END
> <chiral flag>
0

> <version>
0

> <s_m_source_file>
/data/baiqing/PycharmProjects/Reinvent-master-3.2/result/LINK_invent/BTK/process_docking_weight1_custom_sum_contain_oxygen_bond_distance_aromatic_linkinvent_7_9_3/rearranged_h_0158.sdf

> <i_m_source_file_index>
46

> <r_mmod_Potential_Energy-OPLS-2005>
-70.1144943237305

> <r_mmod_Stretch_Energy-OPLS-2005>
59.6633453369141

> <r_mmod_Bend_Energy-OPLS-2005>
139.740005493164

> <r_mmod_Torsional_Energy-OPLS-2005>
248.856887817383

> <r_mmod_Improper_Torsional_Energy-OPLS-2005>
5.35109281539917

> <r_mmod_Van_der_Waal_Energy-OPLS-2005>
181.243301391602

> <r_mmod_Electrostatic_Energy-OPLS-2005>
-282.816101074219

> <r_mmod_Solvation_Energy-OPLS-2005>
-437.279937744141

> <b_mmod_Minimization_Converged-OPLS-2005>
0

> <r_mmod_RMS_Derivative-OPLS-2005>
1.91744303703308

$$$$
46
                    3D
 Structure written by MMmdl.
161170  0  0  1  0            999 V2000
  -30.5604  -14.9845   20.4138 C   0  0  0  0  0  0
  -30.4222  -12.6193   19.4922 C   0  0  0  0  0  0
  -29.5115  -12.5304   18.2482 C   0  0  0  0  0  0
  -28.0470  -12.3130   18.6709 C   0  0  0  0  0  0
  -27.6150  -13.2574   19.8246 C   0  0  2  0  0  0
  -28.6589  -13.3274   20.9572 C   0  0  0  0  0  0
  -25.2396  -13.8221   20.5724 C   0  0  0  0  0  0
  -24.1730  -13.0426   20.9233 C   0  0  0  0  0  0
  -24.6362  -11.6918   20.8745 C   0  0  0  0  0  0
  -23.9062  -10.4286   21.0390 C   0  0  0  0  0  0
  -24.3617   -9.4204   21.9171 C   0  0  0  0  0  0
  -23.6293   -8.2234   22.0738 C   0  0  0  0  0  0
  -22.4281   -8.0261   21.3526 C   0  0  0  0  0  0
  -21.9912   -9.0229   20.4633 C   0  0  0  0  0  0
  -22.7230  -10.2115   20.3037 C   0  0  0  0  0  0
  -21.6860   -6.0724   22.5277 C   0  0  0  0  0  0
  -21.4019   -6.5630   23.8209 C   0  0  0  0  0  0
  -21.3664   -5.6781   24.9170 C   0  0  0  0  0  0
  -21.6049   -4.3045   24.7225 C   0  0  0  0  0  0
  -21.8816   -3.8133   23.4348 C   0  0  0  0  0  0
  -21.9190   -4.6949   22.3404 C   0  0  0  0  0  0
  -22.7757  -13.5183   21.1906 C   0  0  0  0  0  0
  -22.1658   -4.2133   21.0987 F   0  0  0  0  0  0
  -21.5632   -3.4532   25.7740 F   0  0  0  0  0  0
  -29.9197  -13.7453   20.3363 N   0  0  0  0  0  0
  -26.2811  -12.9468   20.3205 N   0  0  0  0  0  0
  -25.9295  -11.6588   20.5719 N   0  0  0  0  0  0
  -22.0419  -12.8157   22.0466 N   0  0  0  0  0  0
  -25.4028  -15.1955   20.4177 N   0  0  0  0  0  0
  -31.7857  -14.9318   20.2790 O   0  0  0  0  0  0
  -21.6640   -6.8863   21.4236 O   0  0  0  0  0  0
  -22.3446  -14.5497   20.6765 O   0  0  0  0  0  0
  -24.6480  -31.8384   23.1841 C   0  0  0  0  0  0
  -25.9251  -32.4654   23.8225 C   0  0  1  0  0  0
  -27.2097  -27.0883   20.1871 C   0  0  0  0  0  0
  -25.6001  -33.8464   24.2152 N   0  0  0  0  0  0
  -23.4497  -30.4560   21.5306 C   0  0  2  0  0  0
  -24.8939  -28.8557   20.1289 C   0  0  0  0  0  0
  -22.7563  -29.4538   22.4862 C   0  0  0  0  0  0
  -18.0306  -28.1386   22.8480 C   0  0  0  0  0  0
  -24.1485  -36.7235   23.2640 C   0  0  0  0  0  0
  -26.0063  -30.6981   21.3853 C   0  0  0  0  0  0
  -26.0720  -29.2985   20.7431 C   0  0  0  0  0  0
  -27.2320  -28.4345   20.7424 C   0  0  0  0  0  0
  -26.0030  -26.7379   19.5526 C   0  0  0  0  0  0
  -24.8720  -27.5890   19.5212 C   0  0  0  0  0  0
  -23.6781  -29.7718   20.1558 C   0  0  0  0  0  0
  -25.4123  -36.3003   24.0309 C   0  0  1  0  0  0
  -20.5918  -28.3715   23.1230 C   0  0  2  0  0  0
  -20.6786  -26.9416   22.5401 C   0  0  0  0  0  0
  -19.5761  -26.6374   21.5209 C   0  0  0  0  0  0
  -18.1941  -26.7928   22.1618 C   0  0  0  0  0  0
  -19.1562  -28.8867   23.2842 C   0  0  0  0  0  0
  -18.9485  -30.1469   23.8856 C   0  0  0  0  0  0
  -17.6480  -30.6585   24.0551 C   0  0  0  0  0  0
  -25.9088  -34.9384   23.5033 C   0  0  0  0  0  0
  -16.5369  -29.9075   23.6341 C   0  0  0  0  0  0
  -16.7290  -28.6491   23.0367 C   0  0  0  0  0  0
  -26.4565  -31.6549   25.0689 C   0  0  0  0  0  0
  -25.3754  -31.3767   26.1392 C   0  0  0  0  0  0
  -27.0441  -30.2931   24.6322 C   0  0  0  0  0  0
  -27.6066  -32.4348   25.7505 C   0  0  0  0  0  0
  -27.5561  -37.1776   24.8465 C   0  0  0  0  0  0
  -21.4255  -29.3038   22.3599 N   0  0  0  0  0  0
  -26.4272  -37.3730   23.9415 N   0  0  0  0  0  0
  -24.7216  -31.0220   22.0882 N   0  0  0  0  0  0
  -23.4199  -28.8099   23.3038 O   0  0  0  0  0  0
  -28.3265  -26.1853   20.0593 O   0  0  0  0  0  0
  -26.5642  -34.8907   22.4597 O   0  0  0  0  0  0
  -23.5605  -32.1264   23.7065 O   0  0  0  0  0  0
  -29.0055  -20.4290   20.5974 C   0  0  0  0  0  0
  -29.8907  -20.6750   17.9831 C   0  0  0  0  0  0
  -29.6354  -19.2169   19.9769 C   0  0  0  0  0  0
  -30.1067  -19.4758   18.6879 C   0  0  0  0  0  0
  -28.7953  -21.7614   19.9142 C   0  0  0  0  0  0
  -29.2264  -21.7889   18.5617 C   0  0  0  0  0  0
  -31.1090  -18.4549   18.2460 C   0  0  0  0  0  0
  -31.5937  -17.8823   19.5807 C   0  0  0  0  0  0
  -30.3400  -17.7821   20.4999 C   0  0  2  0  0  0
  -27.2137  -22.8081   21.6934 C   0  0  0  0  0  0
  -29.1949  -22.9283   16.4379 C   0  0  0  0  0  0
  -28.6076  -24.7205   20.5725 C   0  0  0  0  0  0
  -27.9823  -23.1417   20.4055 C   0  0  1  0  0  0
  -29.8581  -16.2472   20.4323 N   0  0  0  0  0  0
  -28.9838  -22.9444   17.8469 O   0  0  0  0  0  0
  -31.4572  -12.7654   19.1810 H   0  0  0  0  0  0
  -30.4117  -11.6805   20.0480 H   0  0  0  0  0  0
  -29.8394  -11.7222   17.5932 H   0  0  0  0  0  0
  -29.5941  -13.4503   17.6667 H   0  0  0  0  0  0
  -27.9506  -11.2750   18.9891 H   0  0  0  0  0  0
  -27.3813  -12.4286   17.8136 H   0  0  0  0  0  0
  -27.5622  -14.2509   19.3782 H   0  0  0  0  0  0
  -28.7630  -12.3672   21.4642 H   0  0  0  0  0  0
  -28.3536  -14.0513   21.7142 H   0  0  0  0  0  0
  -25.2754   -9.5700   22.4751 H   0  0  0  0  0  0
  -24.0004   -7.4634   22.7464 H   0  0  0  0  0  0
  -21.0829   -8.8736   19.8957 H   0  0  0  0  0  0
  -22.3657  -10.9646   19.6151 H   0  0  0  0  0  0
  -21.2021   -7.6134   23.9715 H   0  0  0  0  0  0
  -21.1495   -6.0508   25.9077 H   0  0  0  0  0  0
  -22.0599   -2.7591   23.2848 H   0  0  0  0  0  0
  -22.4037  -11.9814   22.4849 H   0  0  0  0  0  0
  -21.1044  -13.1181   22.2703 H   0  0  0  0  0  0
  -24.6296  -15.8426   20.5346 H   0  0  0  0  0  0
  -26.2451  -15.6463   20.0850 H   0  0  0  0  0  0
  -26.7307  -32.5240   23.0937 H   0  0  0  0  0  0
  -25.0206  -33.9556   25.0338 H   0  0  0  0  0  0
  -22.7547  -31.2828   21.3686 H   0  0  0  0  0  0
  -23.3751  -35.9563   23.3290 H   0  0  0  0  0  0
  -24.3554  -36.8881   22.2055 H   0  0  0  0  0  0
  -23.7258  -37.6437   23.6687 H   0  0  0  0  0  0
  -26.1629  -31.4416   20.6027 H   0  0  0  0  0  0
  -26.8776  -30.7526   22.0271 H   0  0  0  0  0  0
  -28.1467  -28.7880   21.1951 H   0  0  0  0  0  0
  -25.9323  -25.7755   19.0666 H   0  0  0  0  0  0
  -23.9732  -27.2447   19.0299 H   0  0  0  0  0  0
  -23.8288  -30.5370   19.3930 H   0  0  0  0  0  0
  -22.7892  -29.2204   19.8430 H   0  0  0  0  0  0
  -25.1320  -36.1791   25.0797 H   0  0  0  0  0  0
  -20.9998  -28.3300   24.1358 H   0  0  0  0  0  0
  -20.5673  -26.2329   23.3620 H   0  0  0  0  0  0
  -21.6652  -26.7414   22.1202 H   0  0  0  0  0  0
  -19.6913  -25.6280   21.1255 H   0  0  0  0  0  0
  -19.6696  -27.3164   20.6724 H   0  0  0  0  0  0
  -17.4215  -26.6684   21.4017 H   0  0  0  0  0  0
  -18.0329  -26.0064   22.9006 H   0  0  0  0  0  0
  -19.7964  -30.7302   24.2189 H   0  0  0  0  0  0
  -17.5039  -31.6262   24.5163 H   0  0  0  0  0  0
  -15.5367  -30.2966   23.7696 H   0  0  0  0  0  0
  -15.8691  -28.0798   22.7106 H   0  0  0  0  0  0
  -24.5927  -30.7112   25.7731 H   0  0  0  0  0  0
  -24.8969  -32.2968   26.4750 H   0  0  0  0  0  0
  -25.8054  -30.8993   27.0203 H   0  0  0  0  0  0
  -26.3067  -29.6642   24.1319 H   0  0  0  0  0  0
  -27.4011  -29.7251   25.4925 H   0  0  0  0  0  0
  -27.8994  -30.4139   23.9672 H   0  0  0  0  0  0
  -27.2607  -33.3664   26.1995 H   0  0  0  0  0  0
  -28.3939  -32.6885   25.0393 H   0  0  0  0  0  0
  -28.0660  -31.8537   26.5506 H   0  0  0  0  0  0
  -28.2572  -38.0076   24.7501 H   0  0  0  0  0  0
  -28.1064  -36.2607   24.6300 H   0  0  0  0  0  0
  -27.2274  -37.1431   25.8865 H   0  0  0  0  0  0
  -20.9470  -29.8740   21.6758 H   0  0  0  0  0  0
  -26.0118  -38.2790   24.1427 H   0  0  0  0  0  0
  -28.7048  -20.3475   21.6329 H   0  0  0  0  0  0
  -30.3106  -20.7379   16.9902 H   0  0  0  0  0  0
  -31.9253  -18.8987   17.6753 H   0  0  0  0  0  0
  -30.6251  -17.6915   17.6357 H   0  0  0  0  0  0
  -32.2677  -18.6164   20.0258 H   0  0  0  0  0  0
  -32.2135  -17.0093   19.4268 H   0  0  0  0  0  0
  -30.6526  -17.9379   21.5340 H   0  0  0  0  0  0
  -26.6147  -21.9042   21.5754 H   0  0  0  0  0  0
  -26.5370  -23.6153   21.9753 H   0  0  0  0  0  0
  -27.9007  -22.6454   22.5249 H   0  0  0  0  0  0
  -28.6945  -22.0852   15.9576 H   0  0  0  0  0  0
  -30.2577  -22.8979   16.1955 H   0  0  0  0  0  0
  -28.7845  -23.8376   15.9984 H   0  0  0  0  0  0
  -29.6245  -24.5905   20.2027 H   0  0  0  0  0  0
  -28.7653  -24.8590   21.6427 H   0  0  0  0  0  0
  -27.2122  -23.2518   19.6412 H   0  0  0  0  0  0
  -28.8549  -16.1404   20.4671 H   0  0  0  0  0  0
  1 25  1  0  0  0
  1 30  2  0  0  0
  1 84  1  0  0  0
  2  3  1  0  0  0
  2 25  1  0  0  0
  2 86  1  0  0  0
  2 87  1  0  0  0
  3  4  1  0  0  0
  3 88  1  0  0  0
  3 89  1  0  0  0
  4  5  1  0  0  0
  4 90  1  0  0  0
  4 91  1  0  0  0
  5  6  1  0  0  0
  5 26  1  0  0  0
  5 92  1  0  0  0
  6 25  1  0  0  0
  6 93  1  0  0  0
  6 94  1  0  0  0
  7  8  2  0  0  0
  7 26  1  0  0  0
  7 29  1  0  0  0
  8  9  1  0  0  0
  8 22  1  0  0  0
  9 10  1  0  0  0
  9 27  2  0  0  0
 10 11  2  0  0  0
 10 15  1  0  0  0
 11 12  1  0  0  0
 11 95  1  0  0  0
 12 13  2  0  0  0
 12 96  1  0  0  0
 13 14  1  0  0  0
 13 31  1  0  0  0
 14 15  2  0  0  0
 14 97  1  0  0  0
 15 98  1  0  0  0
 16 17  2  0  0  0
 16 21  1  0  0  0
 16 31  1  0  0  0
 17 18  1  0  0  0
 17 99  1  0  0  0
 18 19  2  0  0  0
 18100  1  0  0  0
 19 20  1  0  0  0
 19 24  1  0  0  0
 20 21  2  0  0  0
 20101  1  0  0  0
 21 23  1  0  0  0
 22 28  1  0  0  0
 22 32  2  0  0  0
 26 27  1  0  0  0
 28102  1  0  0  0
 28103  1  0  0  0
 29104  1  0  0  0
 29105  1  0  0  0
 33 34  1  0  0  0
 33 66  1  0  0  0
 33 70  2  0  0  0
 34 36  1  0  0  0
 34 59  1  0  0  0
 34106  1  0  0  0
 35 44  2  0  0  0
 35 45  1  0  0  0
 35 68  1  0  0  0
 36 56  1  0  0  0
 36107  1  0  0  0
 37 39  1  0  0  0
 37 47  1  0  0  0
 37 66  1  0  0  0
 37108  1  0  0  0
 38 43  2  0  0  0
 38 46  1  0  0  0
 38 47  1  0  0  0
 39 64  1  0  0  0
 39 67  2  0  0  0
 40 52  1  0  0  0
 40 53  2  0  0  0
 40 58  1  0  0  0
 41109  1  0  0  0
 41110  1  0  0  0
 41111  1  0  0  0
 41 48  1  0  0  0
 42 43  1  0  0  0
 42 66  1  0  0  0
 42112  1  0  0  0
 42113  1  0  0  0
 43 44  1  0  0  0
 44114  1  0  0  0
 45 46  2  0  0  0
 45115  1  0  0  0
 46116  1  0  0  0
 47117  1  0  0  0
 47118  1  0  0  0
 48 56  1  0  0  0
 48 65  1  0  0  0
 48119  1  0  0  0
 49 50  1  0  0  0
 49 53  1  0  0  0
 49 64  1  0  0  0
 49120  1  0  0  0
 50 51  1  0  0  0
 50121  1  0  0  0
 50122  1  0  0  0
 51 52  1  0  0  0
 51123  1  0  0  0
 51124  1  0  0  0
 52125  1  0  0  0
 52126  1  0  0  0
 53 54  1  0  0  0
 54 55  2  0  0  0
 54127  1  0  0  0
 55 57  1  0  0  0
 55128  1  0  0  0
 56 69  2  0  0  0
 57 58  2  0  0  0
 57129  1  0  0  0
 58130  1  0  0  0
 59 60  1  0  0  0
 59 61  1  0  0  0
 59 62  1  0  0  0
 60131  1  0  0  0
 60132  1  0  0  0
 60133  1  0  0  0
 61134  1  0  0  0
 61135  1  0  0  0
 61136  1  0  0  0
 62137  1  0  0  0
 62138  1  0  0  0
 62139  1  0  0  0
 63 65  1  0  0  0
 63140  1  0  0  0
 63141  1  0  0  0
 63142  1  0  0  0
 64143  1  0  0  0
 65144  1  0  0  0
 68 82  1  0  0  0
 71 73  2  0  0  0
 71 75  1  0  0  0
 71145  1  0  0  0
 72 74  2  0  0  0
 72 76  1  0  0  0
 72146  1  0  0  0
 73 74  1  0  0  0
 73 79  1  0  0  0
 74 77  1  0  0  0
 75 76  2  0  0  0
 75 83  1  0  0  0
 76 85  1  0  0  0
 77 78  1  0  0  0
 77147  1  0  0  0
 77148  1  0  0  0
 78 79  1  0  0  0
 78149  1  0  0  0
 78150  1  0  0  0
 79 84  1  0  0  0
 79151  1  0  0  0
 80152  1  0  0  0
 80153  1  0  0  0
 80154  1  0  0  0
 80 83  1  0  0  0
 81 85  1  0  0  0
 81155  1  0  0  0
 81156  1  0  0  0
 81157  1  0  0  0
 82 83  1  0  0  0
 82158  1  0  0  0
 82159  1  0  0  0
 83160  1  0  0  0
 84161  1  0  0  0
M  ISO  4   1 100  68 101  82 101  84 100
M  END
> <chiral flag>
0

> <version>
0

> <s_m_source_file>
/data/baiqing/PycharmProjects/Reinvent-master-3.2/result/LINK_invent/BTK/process_docking_weight1_custom_sum_contain_oxygen_bond_distance_aromatic_linkinvent_7_9_3/rearranged_h_0158.sdf

> <i_m_source_file_index>
47

> <r_mmod_Potential_Energy-OPLS-2005>
766.541564941406

> <r_mmod_Stretch_Energy-OPLS-2005>
321.467376708984

> <r_mmod_Bend_Energy-OPLS-2005>
447.100250244141

> <r_mmod_Torsional_Energy-OPLS-2005>
258.218536376953

> <r_mmod_Improper_Torsional_Energy-OPLS-2005>
11.9168758392334

> <r_mmod_Van_der_Waal_Energy-OPLS-2005>
139.581817626953

> <r_mmod_Electrostatic_Energy-OPLS-2005>
-414.747375488281

> <r_mmod_Solvation_Energy-OPLS-2005>
-209.799880981445

> <b_mmod_Minimization_Converged-OPLS-2005>
0

> <r_mmod_RMS_Derivative-OPLS-2005>
2.20194816589355

$$$$
47
                    3D
 Structure written by MMmdl.
183193  0  0  1  0            999 V2000
  -30.7742  -14.3350   20.7064 C   0  0  0  0  0  0
  -30.4151  -12.2832   19.3826 C   0  0  0  0  0  0
  -29.4782  -12.5322   18.1868 C   0  0  0  0  0  0
  -28.0032  -12.3832   18.6056 C   0  0  0  0  0  0
  -27.6683  -13.1911   19.8857 C   0  0  2  0  0  0
  -28.7078  -12.8934   20.9911 C   0  0  0  0  0  0
  -25.2621  -13.8134   20.5680 C   0  0  0  0  0  0
  -24.1850  -13.0432   20.9175 C   0  0  0  0  0  0
  -24.6386  -11.6890   20.8747 C   0  0  0  0  0  0
  -23.9052  -10.4285   21.0421 C   0  0  0  0  0  0
  -24.3608   -9.4200   21.9197 C   0  0  0  0  0  0
  -23.6288   -8.2231   22.0759 C   0  0  0  0  0  0
  -22.4270   -8.0274   21.3547 C   0  0  0  0  0  0
  -21.9905   -9.0250   20.4651 C   0  0  0  0  0  0
  -22.7232  -10.2129   20.3065 C   0  0  0  0  0  0
  -21.6846   -6.0733   22.5280 C   0  0  0  0  0  0
  -21.4006   -6.5639   23.8215 C   0  0  0  0  0  0
  -21.3661   -5.6792   24.9179 C   0  0  0  0  0  0
  -21.6047   -4.3056   24.7228 C   0  0  0  0  0  0
  -21.8819   -3.8146   23.4350 C   0  0  0  0  0  0
  -21.9190   -4.6962   22.3405 C   0  0  0  0  0  0
  -22.7874  -13.5245   21.1839 C   0  0  0  0  0  0
  -22.1659   -4.2149   21.0981 F   0  0  0  0  0  0
  -21.5637   -3.4538   25.7742 F   0  0  0  0  0  0
  -30.0472  -13.2109   20.4639 N   0  0  0  0  0  0
  -26.3054  -12.9277   20.3414 N   0  0  0  0  0  0
  -25.9304  -11.6451   20.5781 N   0  0  0  0  0  0
  -22.0503  -12.8240   22.0393 N   0  0  0  0  0  0
  -25.4369  -15.1846   20.4064 N   0  0  0  0  0  0
  -31.7852  -14.6187   20.0517 O   0  0  0  0  0  0
  -21.6634   -6.8872   21.4242 O   0  0  0  0  0  0
  -22.3569  -14.5557   20.6696 O   0  0  0  0  0  0
  -24.6047  -31.8732   23.2152 C   0  0  0  0  0  0
  -25.8975  -32.4850   23.8432 C   0  0  1  0  0  0
  -27.2712  -27.5155   20.0727 C   0  0  0  0  0  0
  -25.5860  -33.8644   24.2367 N   0  0  0  0  0  0
  -23.3911  -30.4920   21.5528 C   0  0  2  0  0  0
  -24.8437  -28.9569   20.1250 C   0  0  0  0  0  0
  -22.7358  -29.4667   22.5033 C   0  0  0  0  0  0
  -18.0260  -28.1373   22.8492 C   0  0  0  0  0  0
  -24.1478  -36.7334   23.2642 C   0  0  0  0  0  0
  -25.9081  -30.8568   21.3612 C   0  0  0  0  0  0
  -25.9902  -29.4903   20.7235 C   0  0  0  0  0  0
  -27.1953  -28.7689   20.7201 C   0  0  0  0  0  0
  -26.1014  -26.9654   19.5075 C   0  0  0  0  0  0
  -24.8872  -27.6826   19.5274 C   0  0  0  0  0  0
  -23.5998  -29.8150   20.1694 C   0  0  0  0  0  0
  -25.4097  -36.3133   24.0350 C   0  0  1  0  0  0
  -20.5841  -28.3640   23.1350 C   0  0  2  0  0  0
  -20.6748  -26.9386   22.5428 C   0  0  0  0  0  0
  -19.5736  -26.6383   21.5212 C   0  0  0  0  0  0
  -18.1912  -26.7924   22.1615 C   0  0  0  0  0  0
  -19.1508  -28.8822   23.2920 C   0  0  0  0  0  0
  -18.9438  -30.1430   23.8926 C   0  0  0  0  0  0
  -17.6442  -30.6578   24.0566 C   0  0  0  0  0  0
  -25.9015  -34.9489   23.5159 C   0  0  0  0  0  0
  -16.5333  -29.9087   23.6318 C   0  0  0  0  0  0
  -16.7250  -28.6505   23.0337 C   0  0  0  0  0  0
  -26.4448  -31.6606   25.0721 C   0  0  0  0  0  0
  -25.3746  -31.3684   26.1493 C   0  0  0  0  0  0
  -27.0270  -30.3060   24.6041 C   0  0  0  0  0  0
  -27.6044  -32.4309   25.7471 C   0  0  0  0  0  0
  -27.5582  -37.1821   24.8464 C   0  0  0  0  0  0
  -21.4097  -29.3012   22.3761 N   0  0  0  0  0  0
  -26.4294  -37.3806   23.9411 N   0  0  0  0  0  0
  -24.6518  -31.0875   22.1030 N   0  0  0  0  0  0
  -23.4159  -28.8225   23.3065 O   0  0  0  0  0  0
  -28.4528  -26.8230   19.9402 O   0  0  0  0  0  0
  -26.5577  -34.8928   22.4719 O   0  0  0  0  0  0
  -23.5261  -32.1461   23.7583 O   0  0  0  0  0  0
  -32.0144  -19.1892   20.2477 C   0  0  0  0  0  0
  -30.7794  -20.3861   21.9630 C   0  0  0  0  0  0
  -31.2827  -19.1800   21.4508 C   0  0  0  0  0  0
  -31.6575  -21.6003   20.0244 C   0  0  0  0  0  0
  -32.2142  -20.3871   19.5366 C   0  0  0  0  0  0
  -30.9449  -21.6000   21.2586 C   0  0  0  0  0  0
  -29.6861  -17.2804   21.3890 C   0  0  0  0  0  0
  -32.0571  -16.8678   22.2767 C   0  0  0  0  0  0
  -30.3186  -23.2678   18.6816 C   0  0  0  0  0  0
  -32.4734  -24.0343   19.9174 C   0  0  0  0  0  0
  -29.3110  -15.8940   21.9236 C   0  0  0  0  0  0
  -31.5471  -15.4838   22.7342 C   0  0  0  0  0  0
  -30.2735  -24.6581   18.0467 C   0  0  0  0  0  0
  -32.2866  -25.3901   19.2222 C   0  0  0  0  0  0
  -30.8961  -17.8777   22.1312 C   0  0  0  0  0  0
  -31.7319  -22.8849   19.1877 C   0  0  1  0  0  0
  -32.9887  -20.3151   18.2286 C   0  0  0  0  0  0
  -29.5851  -22.7766   22.8761 C   0  0  0  0  0  0
  -30.5032  -27.0424   18.6747 C   0  0  0  0  0  0
  -29.6382  -27.6231   19.7961 C   0  0  0  0  0  0
  -30.4768  -15.0027   21.8472 N   0  0  0  0  0  0
  -30.8449  -25.6404   18.9927 N   0  3  1  0  0  0
  -30.3968  -22.7853   21.7082 O   0  0  0  0  0  0
  -31.4567  -12.3880   19.0733 H   0  0  0  0  0  0
  -30.3202  -11.2539   19.7320 H   0  0  0  0  0  0
  -29.7089  -11.8383   17.3777 H   0  0  0  0  0  0
  -29.6478  -13.5342   17.7893 H   0  0  0  0  0  0
  -27.8084  -11.3237   18.7750 H   0  0  0  0  0  0
  -27.3473  -12.6846   17.7883 H   0  0  0  0  0  0
  -27.7332  -14.2459   19.6208 H   0  0  0  0  0  0
  -28.6738  -11.8347   21.2528 H   0  0  0  0  0  0
  -28.4650  -13.4047   21.9210 H   0  0  0  0  0  0
  -25.2754   -9.5671   22.4772 H   0  0  0  0  0  0
  -23.9999   -7.4619   22.7469 H   0  0  0  0  0  0
  -21.0840   -8.8770   19.8951 H   0  0  0  0  0  0
  -22.3703  -10.9671   19.6169 H   0  0  0  0  0  0
  -21.1990   -7.6145   23.9719 H   0  0  0  0  0  0
  -21.1487   -6.0521   25.9083 H   0  0  0  0  0  0
  -22.0598   -2.7606   23.2849 H   0  0  0  0  0  0
  -22.4096  -11.9883   22.4768 H   0  0  0  0  0  0
  -21.1126  -13.1282   22.2603 H   0  0  0  0  0  0
  -24.6735  -15.8435   20.5147 H   0  0  0  0  0  0
  -26.2941  -15.6209   20.0917 H   0  0  0  0  0  0
  -26.7047  -32.5607   23.1213 H   0  0  0  0  0  0
  -25.0003  -33.9817   25.0506 H   0  0  0  0  0  0
  -22.6766  -31.3056   21.4118 H   0  0  0  0  0  0
  -23.3728  -35.9680   23.3314 H   0  0  0  0  0  0
  -24.3579  -36.8931   22.2054 H   0  0  0  0  0  0
  -23.7235  -37.6552   23.6632 H   0  0  0  0  0  0
  -26.0045  -31.6184   20.5861 H   0  0  0  0  0  0
  -26.8011  -30.9239   21.9703 H   0  0  0  0  0  0
  -28.0627  -29.2008   21.1986 H   0  0  0  0  0  0
  -26.1427  -26.0007   19.0211 H   0  0  0  0  0  0
  -24.0041  -27.2589   19.0694 H   0  0  0  0  0  0
  -23.7028  -30.5861   19.4050 H   0  0  0  0  0  0
  -22.7276  -29.2266   19.8782 H   0  0  0  0  0  0
  -25.1270  -36.2018   25.0843 H   0  0  0  0  0  0
  -20.9929  -28.3194   24.1473 H   0  0  0  0  0  0
  -20.5646  -26.2242   23.3603 H   0  0  0  0  0  0
  -21.6625  -26.7439   22.1224 H   0  0  0  0  0  0
  -19.6895  -25.6301   21.1223 H   0  0  0  0  0  0
  -19.6693  -27.3211   20.6758 H   0  0  0  0  0  0
  -17.4191  -26.6683   21.4005 H   0  0  0  0  0  0
  -18.0303  -26.0058   22.8999 H   0  0  0  0  0  0
  -19.7915  -30.7234   24.2311 H   0  0  0  0  0  0
  -17.5002  -31.6265   24.5161 H   0  0  0  0  0  0
  -15.5337  -30.3002   23.7624 H   0  0  0  0  0  0
  -15.8649  -28.0837   22.7032 H   0  0  0  0  0  0
  -24.5899  -30.7052   25.7833 H   0  0  0  0  0  0
  -24.8960  -32.2831   26.5000 H   0  0  0  0  0  0
  -25.8125  -30.8809   27.0210 H   0  0  0  0  0  0
  -26.2788  -29.6830   24.1122 H   0  0  0  0  0  0
  -27.4094  -29.7283   25.4467 H   0  0  0  0  0  0
  -27.8597  -30.4404   23.9134 H   0  0  0  0  0  0
  -27.2673  -33.3579   26.2125 H   0  0  0  0  0  0
  -28.3816  -32.6920   25.0274 H   0  0  0  0  0  0
  -28.0757  -31.8385   26.5327 H   0  0  0  0  0  0
  -28.2607  -38.0109   24.7497 H   0  0  0  0  0  0
  -28.1068  -36.2639   24.6299 H   0  0  0  0  0  0
  -27.2301  -37.1495   25.8868 H   0  0  0  0  0  0
  -20.9244  -29.8723   21.6983 H   0  0  0  0  0  0
  -26.0193  -38.2890   24.1404 H   0  0  0  0  0  0
  -32.3825  -18.2630   19.8308 H   0  0  0  0  0  0
  -30.2122  -20.3438   22.8804 H   0  0  0  0  0  0
  -28.8308  -17.9531   21.4727 H   0  0  0  0  0  0
  -29.9060  -17.2047   20.3226 H   0  0  0  0  0  0
  -32.5848  -16.7392   21.3338 H   0  0  0  0  0  0
  -32.7977  -17.2504   22.9801 H   0  0  0  0  0  0
  -29.9700  -22.5237   17.9644 H   0  0  0  0  0  0
  -29.5894  -23.2519   19.4897 H   0  0  0  0  0  0
  -32.1403  -24.1479   20.9458 H   0  0  0  0  0  0
  -33.5357  -23.7972   19.9881 H   0  0  0  0  0  0
  -28.4644  -15.5297   21.3467 H   0  0  0  0  0  0
  -28.9646  -15.9623   22.9557 H   0  0  0  0  0  0
  -31.1685  -15.5416   23.7557 H   0  0  0  0  0  0
  -32.3715  -14.7681   22.7613 H   0  0  0  0  0  0
  -29.2360  -24.9088   17.8194 H   0  0  0  0  0  0
  -30.8193  -24.6772   17.1023 H   0  0  0  0  0  0
  -32.8264  -25.4178   18.2741 H   0  0  0  0  0  0
  -32.7121  -26.1738   19.8504 H   0  0  0  0  0  0
  -30.5667  -18.1104   23.1457 H   0  0  0  0  0  0
  -32.3165  -22.7180   18.2863 H   0  0  0  0  0  0
  -33.3696  -19.3107   18.0406 H   0  0  0  0  0  0
  -33.8466  -20.9881   18.2498 H   0  0  0  0  0  0
  -32.3504  -20.5836   17.3864 H   0  0  0  0  0  0
  -29.2132  -23.7845   23.0605 H   0  0  0  0  0  0
  -30.1496  -22.4698   23.7573 H   0  0  0  0  0  0
  -28.7179  -22.1259   22.7554 H   0  0  0  0  0  0
  -31.4038  -27.6468   18.5564 H   0  0  0  0  0  0
  -29.9691  -27.1155   17.7262 H   0  0  0  0  0  0
  -29.4324  -28.6581   19.5193 H   0  0  0  0  0  0
  -30.1816  -27.6465   20.7421 H   0  0  0  0  0  0
  -30.3784  -25.4662   19.8728 H   0  0  0  0  0  0
  1 25  1  0  0  0
  1 30  2  0  0  0
  1 91  1  0  0  0
  2  3  1  0  0  0
  2 25  1  0  0  0
  2 94  1  0  0  0
  2 95  1  0  0  0
  3  4  1  0  0  0
  3 96  1  0  0  0
  3 97  1  0  0  0
  4  5  1  0  0  0
  4 98  1  0  0  0
  4 99  1  0  0  0
  5  6  1  0  0  0
  5 26  1  0  0  0
  5100  1  0  0  0
  6 25  1  0  0  0
  6101  1  0  0  0
  6102  1  0  0  0
  7  8  2  0  0  0
  7 26  1  0  0  0
  7 29  1  0  0  0
  8  9  1  0  0  0
  8 22  1  0  0  0
  9 10  1  0  0  0
  9 27  2  0  0  0
 10 11  2  0  0  0
 10 15  1  0  0  0
 11 12  1  0  0  0
 11103  1  0  0  0
 12 13  2  0  0  0
 12104  1  0  0  0
 13 14  1  0  0  0
 13 31  1  0  0  0
 14 15  2  0  0  0
 14105  1  0  0  0
 15106  1  0  0  0
 16 17  2  0  0  0
 16 21  1  0  0  0
 16 31  1  0  0  0
 17 18  1  0  0  0
 17107  1  0  0  0
 18 19  2  0  0  0
 18108  1  0  0  0
 19 20  1  0  0  0
 19 24  1  0  0  0
 20 21  2  0  0  0
 20109  1  0  0  0
 21 23  1  0  0  0
 22 28  1  0  0  0
 22 32  2  0  0  0
 26 27  1  0  0  0
 28110  1  0  0  0
 28111  1  0  0  0
 29112  1  0  0  0
 29113  1  0  0  0
 33 34  1  0  0  0
 33 66  1  0  0  0
 33 70  2  0  0  0
 34 36  1  0  0  0
 34 59  1  0  0  0
 34114  1  0  0  0
 35 44  2  0  0  0
 35 45  1  0  0  0
 35 68  1  0  0  0
 36 56  1  0  0  0
 36115  1  0  0  0
 37 39  1  0  0  0
 37 47  1  0  0  0
 37 66  1  0  0  0
 37116  1  0  0  0
 38 43  2  0  0  0
 38 46  1  0  0  0
 38 47  1  0  0  0
 39 64  1  0  0  0
 39 67  2  0  0  0
 40 52  1  0  0  0
 40 53  2  0  0  0
 40 58  1  0  0  0
 41117  1  0  0  0
 41118  1  0  0  0
 41119  1  0  0  0
 41 48  1  0  0  0
 42 43  1  0  0  0
 42 66  1  0  0  0
 42120  1  0  0  0
 42121  1  0  0  0
 43 44  1  0  0  0
 44122  1  0  0  0
 45 46  2  0  0  0
 45123  1  0  0  0
 46124  1  0  0  0
 47125  1  0  0  0
 47126  1  0  0  0
 48 56  1  0  0  0
 48 65  1  0  0  0
 48127  1  0  0  0
 49 50  1  0  0  0
 49 53  1  0  0  0
 49 64  1  0  0  0
 49128  1  0  0  0
 50 51  1  0  0  0
 50129  1  0  0  0
 50130  1  0  0  0
 51 52  1  0  0  0
 51131  1  0  0  0
 51132  1  0  0  0
 52133  1  0  0  0
 52134  1  0  0  0
 53 54  1  0  0  0
 54 55  2  0  0  0
 54135  1  0  0  0
 55 57  1  0  0  0
 55136  1  0  0  0
 56 69  2  0  0  0
 57 58  2  0  0  0
 57137  1  0  0  0
 58138  1  0  0  0
 59 60  1  0  0  0
 59 61  1  0  0  0
 59 62  1  0  0  0
 60139  1  0  0  0
 60140  1  0  0  0
 60141  1  0  0  0
 61142  1  0  0  0
 61143  1  0  0  0
 61144  1  0  0  0
 62145  1  0  0  0
 62146  1  0  0  0
 62147  1  0  0  0
 63 65  1  0  0  0
 63148  1  0  0  0
 63149  1  0  0  0
 63150  1  0  0  0
 64151  1  0  0  0
 65152  1  0  0  0
 68 90  1  0  0  0
 71 73  2  0  0  0
 71 75  1  0  0  0
 71153  1  0  0  0
 72 73  1  0  0  0
 72 76  2  0  0  0
 72154  1  0  0  0
 73 85  1  0  0  0
 74 75  2  0  0  0
 74 76  1  0  0  0
 74 86  1  0  0  0
 75 87  1  0  0  0
 76 93  1  0  0  0
 77 81  1  0  0  0
 77 85  1  0  0  0
 77155  1  0  0  0
 77156  1  0  0  0
 78 82  1  0  0  0
 78 85  1  0  0  0
 78157  1  0  0  0
 78158  1  0  0  0
 79 83  1  0  0  0
 79 86  1  0  0  0
 79159  1  0  0  0
 79160  1  0  0  0
 80 84  1  0  0  0
 80 86  1  0  0  0
 80161  1  0  0  0
 80162  1  0  0  0
 81 91  1  0  0  0
 81163  1  0  0  0
 81164  1  0  0  0
 82 91  1  0  0  0
 82165  1  0  0  0
 82166  1  0  0  0
 83 92  1  0  0  0
 83167  1  0  0  0
 83168  1  0  0  0
 84 92  1  0  0  0
 84169  1  0  0  0
 84170  1  0  0  0
 85171  1  0  0  0
 86172  1  0  0  0
 87173  1  0  0  0
 87174  1  0  0  0
 87175  1  0  0  0
 88 93  1  0  0  0
 88176  1  0  0  0
 88177  1  0  0  0
 88178  1  0  0  0
 89 90  1  0  0  0
 89179  1  0  0  0
 89180  1  0  0  0
 89 92  1  0  0  0
 90181  1  0  0  0
 90182  1  0  0  0
 92183  1  0  0  0
M  CHG  1  92   1
M  ISO  4   1 100  68 101  90 101  91 100
M  END
> <chiral flag>
0

> <version>
0

> <s_m_source_file>
/data/baiqing/PycharmProjects/Reinvent-master-3.2/result/LINK_invent/BTK/process_docking_weight1_custom_sum_contain_oxygen_bond_distance_aromatic_linkinvent_7_9_3/rearranged_h_0158.sdf

> <i_m_source_file_index>
48

> <r_mmod_Potential_Energy-OPLS-2005>
115.320709228516

> <r_mmod_Stretch_Energy-OPLS-2005>
38.1014633178711

> <r_mmod_Bend_Energy-OPLS-2005>
113.949684143066

> <r_mmod_Torsional_Energy-OPLS-2005>
361.468292236328

> <r_mmod_Improper_Torsional_Energy-OPLS-2005>
8.40448570251465

> <r_mmod_Van_der_Waal_Energy-OPLS-2005>
189.768676757812

> <r_mmod_Electrostatic_Energy-OPLS-2005>
-219.04264831543

> <r_mmod_Solvation_Energy-OPLS-2005>
-385.094512939453

> <b_mmod_Minimization_Converged-OPLS-2005>
0

> <r_mmod_RMS_Derivative-OPLS-2005>
0.805256366729736

$$$$
48
                    3D
 Structure written by MMmdl.
174184  0  0  1  0            999 V2000
  -30.7358  -14.4578   20.6548 C   0  0  0  0  0  0
  -30.4247  -12.3331   19.4126 C   0  0  0  0  0  0
  -29.4886  -12.5147   18.2009 C   0  0  0  0  0  0
  -28.0155  -12.3378   18.6156 C   0  0  0  0  0  0
  -27.6594  -13.1778   19.8656 C   0  0  2  0  0  0
  -28.7037  -12.9459   20.9878 C   0  0  0  0  0  0
  -25.2617  -13.8093   20.5642 C   0  0  0  0  0  0
  -24.1847  -13.0411   20.9173 C   0  0  0  0  0  0
  -24.6362  -11.6869   20.8737 C   0  0  0  0  0  0
  -23.9024  -10.4275   21.0417 C   0  0  0  0  0  0
  -24.3589   -9.4195   21.9192 C   0  0  0  0  0  0
  -23.6272   -8.2229   22.0759 C   0  0  0  0  0  0
  -22.4257   -8.0269   21.3547 C   0  0  0  0  0  0
  -21.9886   -9.0239   20.4648 C   0  0  0  0  0  0
  -22.7205  -10.2122   20.3060 C   0  0  0  0  0  0
  -21.6847   -6.0729   22.5280 C   0  0  0  0  0  0
  -21.4008   -6.5636   23.8212 C   0  0  0  0  0  0
  -21.3655   -5.6791   24.9175 C   0  0  0  0  0  0
  -21.6044   -4.3055   24.7227 C   0  0  0  0  0  0
  -21.8821   -3.8143   23.4350 C   0  0  0  0  0  0
  -21.9190   -4.6957   22.3404 C   0  0  0  0  0  0
  -22.7879  -13.5241   21.1840 C   0  0  0  0  0  0
  -22.1662   -4.2144   21.0983 F   0  0  0  0  0  0
  -21.5628   -3.4538   25.7739 F   0  0  0  0  0  0
  -30.0305  -13.3006   20.4563 N   0  0  0  0  0  0
  -26.3004  -12.9194   20.3301 N   0  0  0  0  0  0
  -25.9269  -11.6391   20.5742 N   0  0  0  0  0  0
  -22.0508  -12.8245   22.0398 N   0  0  0  0  0  0
  -25.4362  -15.1805   20.4024 N   0  0  0  0  0  0
  -31.8095  -14.6544   20.0732 O   0  0  0  0  0  0
  -21.6628   -6.8866   21.4240 O   0  0  0  0  0  0
  -22.3577  -14.5551   20.6690 O   0  0  0  0  0  0
  -24.6141  -31.8695   23.2121 C   0  0  0  0  0  0
  -25.9043  -32.4828   23.8407 C   0  0  1  0  0  0
  -27.2390  -27.4442   20.0805 C   0  0  0  0  0  0
  -25.5911  -33.8626   24.2340 N   0  0  0  0  0  0
  -23.4005  -30.4945   21.5531 C   0  0  2  0  0  0
  -24.8448  -28.9627   20.1173 C   0  0  0  0  0  0
  -22.7404  -29.4669   22.5002 C   0  0  0  0  0  0
  -18.0272  -28.1375   22.8495 C   0  0  0  0  0  0
  -24.1487  -36.7307   23.2637 C   0  0  0  0  0  0
  -25.9298  -30.8360   21.3649 C   0  0  0  0  0  0
  -26.0059  -29.4712   20.7116 C   0  0  0  0  0  0
  -27.2019  -28.7181   20.6934 C   0  0  0  0  0  0
  -26.0485  -26.9454   19.4952 C   0  0  0  0  0  0
  -24.8599  -27.6966   19.5113 C   0  0  0  0  0  0
  -23.6076  -29.8294   20.1672 C   0  0  0  0  0  0
  -25.4109  -36.3112   24.0341 C   0  0  1  0  0  0
  -20.5860  -28.3662   23.1322 C   0  0  2  0  0  0
  -20.6763  -26.9400   22.5418 C   0  0  0  0  0  0
  -19.5743  -26.6386   21.5212 C   0  0  0  0  0  0
  -18.1920  -26.7924   22.1622 C   0  0  0  0  0  0
  -19.1521  -28.8836   23.2907 C   0  0  0  0  0  0
  -18.9447  -30.1442   23.8917 C   0  0  0  0  0  0
  -17.6450  -30.6583   24.0566 C   0  0  0  0  0  0
  -25.9039  -34.9478   23.5133 C   0  0  0  0  0  0
  -16.5341  -29.9087   23.6323 C   0  0  0  0  0  0
  -16.7260  -28.6501   23.0351 C   0  0  0  0  0  0
  -26.4476  -31.6598   25.0726 C   0  0  0  0  0  0
  -25.3747  -31.3692   26.1475 C   0  0  0  0  0  0
  -27.0300  -30.3044   24.6085 C   0  0  0  0  0  0
  -27.6054  -32.4310   25.7491 C   0  0  0  0  0  0
  -27.5581  -37.1812   24.8467 C   0  0  0  0  0  0
  -21.4134  -29.3032   22.3731 N   0  0  0  0  0  0
  -26.4294  -37.3797   23.9412 N   0  0  0  0  0  0
  -24.6663  -31.0805   22.1017 N   0  0  0  0  0  0
  -23.4180  -28.8208   23.3039 O   0  0  0  0  0  0
  -28.4323  -26.7424   20.0755 O   0  0  0  0  0  0
  -26.5591  -34.8924   22.4688 O   0  0  0  0  0  0
  -23.5338  -32.1446   23.7523 O   0  0  0  0  0  0
  -30.7764  -20.3638   21.0075 C   0  0  0  0  0  0
  -29.8926  -19.7404   21.9142 C   0  0  0  0  0  0
  -29.6084  -22.5130   21.2309 C   0  0  0  0  0  0
  -30.6605  -21.7324   20.6747 C   0  0  0  0  0  0
  -28.8901  -20.5349   22.5323 C   0  0  0  0  0  0
  -28.7706  -21.9093   22.2034 C   0  0  0  0  0  0
  -29.0317  -17.4406   21.2819 C   0  0  0  0  0  0
  -31.3781  -17.5722   22.0855 C   0  0  0  0  0  0
  -29.7952  -24.7163   19.5755 C   0  0  0  0  0  0
  -27.8870  -24.3467   20.3989 C   0  0  0  0  0  0
  -28.9928  -15.9594   21.6902 C   0  0  0  0  0  0
  -31.3043  -16.0654   22.4534 C   0  0  0  0  0  0
  -29.9837  -18.2281   22.1899 C   0  0  0  0  0  0
  -29.3174  -23.9802   20.8463 C   0  0  1  0  0  0
  -28.4464  -25.4394   19.4803 C   0  0  1  0  0  0
  -31.7024  -22.3021   19.7271 C   0  0  0  0  0  0
  -27.9243  -19.9265   23.5478 C   0  0  0  0  0  0
  -28.2393  -23.2282   24.0563 C   0  0  0  0  0  0
  -30.3248  -15.3233   21.6286 N   0  0  0  0  0  0
  -27.8098  -22.6679   22.8220 O   0  0  0  0  0  0
  -31.4643  -12.4465   19.1006 H   0  0  0  0  0  0
  -30.3517  -11.3160   19.8011 H   0  0  0  0  0  0
  -29.7430  -11.7995   17.4176 H   0  0  0  0  0  0
  -29.6332  -13.5065   17.7697 H   0  0  0  0  0  0
  -27.8468  -11.2795   18.8190 H   0  0  0  0  0  0
  -27.3560  -12.5963   17.7862 H   0  0  0  0  0  0
  -27.6961  -14.2094   19.5242 H   0  0  0  0  0  0
  -28.7022  -11.8943   21.2781 H   0  0  0  0  0  0
  -28.4483  -13.4703   21.9064 H   0  0  0  0  0  0
  -25.2737   -9.5676   22.4762 H   0  0  0  0  0  0
  -23.9984   -7.4624   22.7477 H   0  0  0  0  0  0
  -21.0821   -8.8755   19.8952 H   0  0  0  0  0  0
  -22.3666  -10.9663   19.6171 H   0  0  0  0  0  0
  -21.2000   -7.6144   23.9713 H   0  0  0  0  0  0
  -21.1476   -6.0522   25.9078 H   0  0  0  0  0  0
  -22.0605   -2.7605   23.2852 H   0  0  0  0  0  0
  -22.4105  -11.9895   22.4783 H   0  0  0  0  0  0
  -21.1133  -13.1293   22.2602 H   0  0  0  0  0  0
  -24.6713  -15.8368   20.5136 H   0  0  0  0  0  0
  -26.2872  -15.6177   20.0740 H   0  0  0  0  0  0
  -26.7112  -32.5545   23.1172 H   0  0  0  0  0  0
  -25.0102  -33.9795   25.0511 H   0  0  0  0  0  0
  -22.6883  -31.3111   21.4165 H   0  0  0  0  0  0
  -23.3757  -35.9631   23.3300 H   0  0  0  0  0  0
  -24.3590  -36.8920   22.2053 H   0  0  0  0  0  0
  -23.7225  -37.6505   23.6653 H   0  0  0  0  0  0
  -26.0432  -31.6035   20.5978 H   0  0  0  0  0  0
  -26.8176  -30.8872   21.9836 H   0  0  0  0  0  0
  -28.0992  -29.1124   21.1499 H   0  0  0  0  0  0
  -26.0061  -25.9770   19.0201 H   0  0  0  0  0  0
  -23.9654  -27.2952   19.0552 H   0  0  0  0  0  0
  -23.7168  -30.6053   19.4083 H   0  0  0  0  0  0
  -22.7310  -29.2504   19.8709 H   0  0  0  0  0  0
  -25.1282  -36.1983   25.0834 H   0  0  0  0  0  0
  -20.9953  -28.3224   24.1443 H   0  0  0  0  0  0
  -20.5671  -26.2266   23.3600 H   0  0  0  0  0  0
  -21.6636  -26.7455   22.1209 H   0  0  0  0  0  0
  -19.6908  -25.6302   21.1231 H   0  0  0  0  0  0
  -19.6681  -27.3205   20.6748 H   0  0  0  0  0  0
  -17.4193  -26.6680   21.4019 H   0  0  0  0  0  0
  -18.0318  -26.0059   22.9009 H   0  0  0  0  0  0
  -19.7924  -30.7252   24.2300 H   0  0  0  0  0  0
  -17.5007  -31.6267   24.5163 H   0  0  0  0  0  0
  -15.5343  -30.2997   23.7637 H   0  0  0  0  0  0
  -15.8659  -28.0825   22.7063 H   0  0  0  0  0  0
  -24.5915  -30.7048   25.7808 H   0  0  0  0  0  0
  -24.8945  -32.2843   26.4949 H   0  0  0  0  0  0
  -25.8107  -30.8839   27.0216 H   0  0  0  0  0  0
  -26.2833  -29.6810   24.1150 H   0  0  0  0  0  0
  -27.4091  -29.7274   25.4531 H   0  0  0  0  0  0
  -27.8664  -30.4368   23.9216 H   0  0  0  0  0  0
  -27.2683  -33.3609   26.2084 H   0  0  0  0  0  0
  -28.3862  -32.6866   25.0315 H   0  0  0  0  0  0
  -28.0721  -31.8418   26.5397 H   0  0  0  0  0  0
  -28.2603  -38.0106   24.7522 H   0  0  0  0  0  0
  -28.1071  -36.2639   24.6287 H   0  0  0  0  0  0
  -27.2302  -37.1457   25.8871 H   0  0  0  0  0  0
  -20.9290  -29.8760   21.6961 H   0  0  0  0  0  0
  -26.0182  -38.2875   24.1413 H   0  0  0  0  0  0
  -31.5583  -19.7840   20.5396 H   0  0  0  0  0  0
  -28.0234  -17.8507   21.3331 H   0  0  0  0  0  0
  -29.3408  -17.5376   20.2400 H   0  0  0  0  0  0
  -31.7785  -17.6664   21.0759 H   0  0  0  0  0  0
  -32.0789  -18.0795   22.7499 H   0  0  0  0  0  0
  -29.9196  -24.0615   18.7136 H   0  0  0  0  0  0
  -30.6611  -25.3646   19.7129 H   0  0  0  0  0  0
  -27.2354  -24.6960   21.2002 H   0  0  0  0  0  0
  -27.4115  -23.5468   19.8290 H   0  0  0  0  0  0
  -28.2692  -15.4942   21.0392 H   0  0  0  0  0  0
  -28.5973  -15.8564   22.7018 H   0  0  0  0  0  0
  -31.0143  -15.9588   23.4995 H   0  0  0  0  0  0
  -32.2995  -15.6215   22.3851 H   0  0  0  0  0  0
  -29.6755  -18.0740   23.2241 H   0  0  0  0  0  0
  -29.5856  -24.5965   21.7059 H   0  0  0  0  0  0
  -28.0604  -25.4209   18.4593 H   0  0  0  0  0  0
  -32.6052  -21.6902   19.7263 H   0  0  0  0  0  0
  -32.0081  -23.3043   20.0262 H   0  0  0  0  0  0
  -31.3269  -22.3238   18.7046 H   0  0  0  0  0  0
  -27.5159  -18.9779   23.2046 H   0  0  0  0  0  0
  -27.0666  -20.5679   23.7469 H   0  0  0  0  0  0
  -28.4358  -19.7560   24.4952 H   0  0  0  0  0  0
  -27.4443  -23.8449   24.4752 H   0  0  0  0  0  0
  -29.1181  -23.8604   23.9251 H   0  0  0  0  0  0
  -28.4811  -22.4545   24.7858 H   0  0  0  0  0  0
  1 25  1  0  0  0
  1 30  2  0  0  0
  1 89  1  0  0  0
  2  3  1  0  0  0
  2 25  1  0  0  0
  2 91  1  0  0  0
  2 92  1  0  0  0
  3  4  1  0  0  0
  3 93  1  0  0  0
  3 94  1  0  0  0
  4  5  1  0  0  0
  4 95  1  0  0  0
  4 96  1  0  0  0
  5  6  1  0  0  0
  5 26  1  0  0  0
  5 97  1  0  0  0
  6 25  1  0  0  0
  6 98  1  0  0  0
  6 99  1  0  0  0
  7  8  2  0  0  0
  7 26  1  0  0  0
  7 29  1  0  0  0
  8  9  1  0  0  0
  8 22  1  0  0  0
  9 10  1  0  0  0
  9 27  2  0  0  0
 10 11  2  0  0  0
 10 15  1  0  0  0
 11 12  1  0  0  0
 11100  1  0  0  0
 12 13  2  0  0  0
 12101  1  0  0  0
 13 14  1  0  0  0
 13 31  1  0  0  0
 14 15  2  0  0  0
 14102  1  0  0  0
 15103  1  0  0  0
 16 17  2  0  0  0
 16 21  1  0  0  0
 16 31  1  0  0  0
 17 18  1  0  0  0
 17104  1  0  0  0
 18 19  2  0  0  0
 18105  1  0  0  0
 19 20  1  0  0  0
 19 24  1  0  0  0
 20 21  2  0  0  0
 20106  1  0  0  0
 21 23  1  0  0  0
 22 28  1  0  0  0
 22 32  2  0  0  0
 26 27  1  0  0  0
 28107  1  0  0  0
 28108  1  0  0  0
 29109  1  0  0  0
 29110  1  0  0  0
 33 34  1  0  0  0
 33 66  1  0  0  0
 33 70  2  0  0  0
 34 36  1  0  0  0
 34 59  1  0  0  0
 34111  1  0  0  0
 35 44  2  0  0  0
 35 45  1  0  0  0
 35 68  1  0  0  0
 36 56  1  0  0  0
 36112  1  0  0  0
 37 39  1  0  0  0
 37 47  1  0  0  0
 37 66  1  0  0  0
 37113  1  0  0  0
 38 43  2  0  0  0
 38 46  1  0  0  0
 38 47  1  0  0  0
 39 64  1  0  0  0
 39 67  2  0  0  0
 40 52  1  0  0  0
 40 53  2  0  0  0
 40 58  1  0  0  0
 41114  1  0  0  0
 41115  1  0  0  0
 41116  1  0  0  0
 41 48  1  0  0  0
 42 43  1  0  0  0
 42 66  1  0  0  0
 42117  1  0  0  0
 42118  1  0  0  0
 43 44  1  0  0  0
 44119  1  0  0  0
 45 46  2  0  0  0
 45120  1  0  0  0
 46121  1  0  0  0
 47122  1  0  0  0
 47123  1  0  0  0
 48 56  1  0  0  0
 48 65  1  0  0  0
 48124  1  0  0  0
 49 50  1  0  0  0
 49 53  1  0  0  0
 49 64  1  0  0  0
 49125  1  0  0  0
 50 51  1  0  0  0
 50126  1  0  0  0
 50127  1  0  0  0
 51 52  1  0  0  0
 51128  1  0  0  0
 51129  1  0  0  0
 52130  1  0  0  0
 52131  1  0  0  0
 53 54  1  0  0  0
 54 55  2  0  0  0
 54132  1  0  0  0
 55 57  1  0  0  0
 55133  1  0  0  0
 56 69  2  0  0  0
 57 58  2  0  0  0
 57134  1  0  0  0
 58135  1  0  0  0
 59 60  1  0  0  0
 59 61  1  0  0  0
 59 62  1  0  0  0
 60136  1  0  0  0
 60137  1  0  0  0
 60138  1  0  0  0
 61139  1  0  0  0
 61140  1  0  0  0
 61141  1  0  0  0
 62142  1  0  0  0
 62143  1  0  0  0
 62144  1  0  0  0
 63 65  1  0  0  0
 63145  1  0  0  0
 63146  1  0  0  0
 63147  1  0  0  0
 64148  1  0  0  0
 65149  1  0  0  0
 68 85  1  0  0  0
 71 72  2  0  0  0
 71 74  1  0  0  0
 71150  1  0  0  0
 72 75  1  0  0  0
 72 83  1  0  0  0
 73 74  2  0  0  0
 73 76  1  0  0  0
 73 84  1  0  0  0
 74 86  1  0  0  0
 75 76  2  0  0  0
 75 87  1  0  0  0
 76 90  1  0  0  0
 77 81  1  0  0  0
 77 83  1  0  0  0
 77151  1  0  0  0
 77152  1  0  0  0
 78 82  1  0  0  0
 78 83  1  0  0  0
 78153  1  0  0  0
 78154  1  0  0  0
 79 84  1  0  0  0
 79 85  1  0  0  0
 79155  1  0  0  0
 79156  1  0  0  0
 80 84  1  0  0  0
 80 85  1  0  0  0
 80157  1  0  0  0
 80158  1  0  0  0
 81 89  1  0  0  0
 81159  1  0  0  0
 81160  1  0  0  0
 82 89  1  0  0  0
 82161  1  0  0  0
 82162  1  0  0  0
 83163  1  0  0  0
 84164  1  0  0  0
 85165  1  0  0  0
 86166  1  0  0  0
 86167  1  0  0  0
 86168  1  0  0  0
 87169  1  0  0  0
 87170  1  0  0  0
 87171  1  0  0  0
 88 90  1  0  0  0
 88172  1  0  0  0
 88173  1  0  0  0
 88174  1  0  0  0
M  ISO  4   1 100  68 101  85 101  89 100
M  END
> <chiral flag>
0

> <version>
0

> <s_m_source_file>
/data/baiqing/PycharmProjects/Reinvent-master-3.2/result/LINK_invent/BTK/process_docking_weight1_custom_sum_contain_oxygen_bond_distance_aromatic_linkinvent_7_9_3/rearranged_h_0158.sdf

> <i_m_source_file_index>
49

> <r_mmod_Potential_Energy-OPLS-2005>
196.841522216797

> <r_mmod_Stretch_Energy-OPLS-2005>
45.4598045349121

> <r_mmod_Bend_Energy-OPLS-2005>
133.652648925781

> <r_mmod_Torsional_Energy-OPLS-2005>
345.916015625

> <r_mmod_Improper_Torsional_Energy-OPLS-2005>
4.46105766296387

> <r_mmod_Van_der_Waal_Energy-OPLS-2005>
177.689544677734

> <r_mmod_Electrostatic_Energy-OPLS-2005>
-324.545074462891

> <r_mmod_Solvation_Energy-OPLS-2005>
-196.808807373047

> <b_mmod_Minimization_Converged-OPLS-2005>
0

> <r_mmod_RMS_Derivative-OPLS-2005>
0.486228495836258

$$$$
49
                    3D
 Structure written by MMmdl.
164173  0  0  1  0            999 V2000
  -30.6452  -14.6635   20.4448 C   0  0  0  0  0  0
  -30.4187  -12.3974   19.4589 C   0  0  0  0  0  0
  -29.4998  -12.4866   18.2235 C   0  0  0  0  0  0
  -28.0210  -12.3410   18.6337 C   0  0  0  0  0  0
  -27.6386  -13.2289   19.8496 C   0  0  2  0  0  0
  -28.6869  -13.1480   20.9791 C   0  0  0  0  0  0
  -25.2508  -13.8215   20.5713 C   0  0  0  0  0  0
  -24.1795  -13.0458   20.9207 C   0  0  0  0  0  0
  -24.6381  -11.6935   20.8753 C   0  0  0  0  0  0
  -23.9059  -10.4313   21.0403 C   0  0  0  0  0  0
  -24.3625   -9.4225   21.9173 C   0  0  0  0  0  0
  -23.6307   -8.2253   22.0743 C   0  0  0  0  0  0
  -22.4285   -8.0293   21.3542 C   0  0  0  0  0  0
  -21.9915   -9.0260   20.4637 C   0  0  0  0  0  0
  -22.7238  -10.2143   20.3043 C   0  0  0  0  0  0
  -21.6858   -6.0739   22.5272 C   0  0  0  0  0  0
  -21.4018   -6.5640   23.8209 C   0  0  0  0  0  0
  -21.3669   -5.6790   24.9170 C   0  0  0  0  0  0
  -21.6054   -4.3056   24.7212 C   0  0  0  0  0  0
  -21.8825   -3.8148   23.4335 C   0  0  0  0  0  0
  -21.9199   -4.6967   22.3395 C   0  0  0  0  0  0
  -22.7823  -13.5235   21.1881 C   0  0  0  0  0  0
  -22.1660   -4.2156   21.0971 F   0  0  0  0  0  0
  -21.5636   -3.4532   25.7721 F   0  0  0  0  0  0
  -29.9898  -13.4622   20.3859 N   0  0  0  0  0  0
  -26.2926  -12.9403   20.3305 N   0  0  0  0  0  0
  -25.9312  -11.6549   20.5779 N   0  0  0  0  0  0
  -22.0480  -12.8214   22.0438 N   0  0  0  0  0  0
  -25.4240  -15.1947   20.4162 N   0  0  0  0  0  0
  -31.8561  -14.7230   20.2053 O   0  0  0  0  0  0
  -21.6663   -6.8879   21.4230 O   0  0  0  0  0  0
  -22.3496  -14.5534   20.6721 O   0  0  0  0  0  0
  -24.6230  -31.8624   23.2029 C   0  0  0  0  0  0
  -25.9081  -32.4795   23.8361 C   0  0  1  0  0  0
  -27.2254  -27.3337   20.1269 C   0  0  0  0  0  0
  -25.5904  -33.8592   24.2307 N   0  0  0  0  0  0
  -23.4169  -30.4806   21.5482 C   0  0  2  0  0  0
  -24.8644  -28.9308   20.1207 C   0  0  0  0  0  0
  -22.7479  -29.4612   22.5004 C   0  0  0  0  0  0
  -18.0286  -28.1372   22.8514 C   0  0  0  0  0  0
  -24.1481  -36.7291   23.2644 C   0  0  0  0  0  0
  -25.9545  -30.7988   21.3694 C   0  0  0  0  0  0
  -26.0319  -29.4226   20.7198 C   0  0  0  0  0  0
  -27.2195  -28.6354   20.7106 C   0  0  0  0  0  0
  -26.0410  -26.8824   19.5138 C   0  0  0  0  0  0
  -24.8693  -27.6651   19.5111 C   0  0  0  0  0  0
  -23.6307  -29.8097   20.1655 C   0  0  0  0  0  0
  -25.4106  -36.3105   24.0351 C   0  0  1  0  0  0
  -20.5884  -28.3663   23.1341 C   0  0  2  0  0  0
  -20.6784  -26.9397   22.5446 C   0  0  0  0  0  0
  -19.5745  -26.6380   21.5259 C   0  0  0  0  0  0
  -18.1920  -26.7920   22.1654 C   0  0  0  0  0  0
  -19.1535  -28.8841   23.2910 C   0  0  0  0  0  0
  -18.9449  -30.1451   23.8909 C   0  0  0  0  0  0
  -17.6445  -30.6578   24.0567 C   0  0  0  0  0  0
  -25.9042  -34.9468   23.5136 C   0  0  0  0  0  0
  -16.5341  -29.9076   23.6323 C   0  0  0  0  0  0
  -16.7272  -28.6492   23.0353 C   0  0  0  0  0  0
  -26.4471  -31.6581   25.0712 C   0  0  0  0  0  0
  -25.3695  -31.3701   26.1433 C   0  0  0  0  0  0
  -27.0324  -30.3021   24.6127 C   0  0  0  0  0  0
  -27.6053  -32.4298   25.7462 C   0  0  0  0  0  0
  -27.5587  -37.1801   24.8473 C   0  0  0  0  0  0
  -21.4197  -29.3008   22.3741 N   0  0  0  0  0  0
  -26.4298  -37.3793   23.9415 N   0  0  0  0  0  0
  -24.6835  -31.0642   22.0976 N   0  0  0  0  0  0
  -23.4220  -28.8173   23.3082 O   0  0  0  0  0  0
  -28.3549  -26.5173   20.0752 O   0  0  0  0  0  0
  -26.5617  -34.8936   22.4706 O   0  0  0  0  0  0
  -23.5396  -32.1421   23.7363 O   0  0  0  0  0  0
  -28.8728  -21.4128   20.2301 C   0  0  0  0  0  0
  -29.6494  -20.4305   19.5155 C   0  0  0  0  0  0
  -28.7835  -22.7839   19.7718 C   0  0  0  0  0  0
  -29.4880  -23.0970   18.5919 C   0  0  0  0  0  0
  -30.3227  -20.9350   18.3772 C   0  0  0  0  0  0
  -29.5518  -18.3324   21.2834 C   0  0  0  0  0  0
  -29.1458  -17.8839   18.9505 C   0  0  0  0  0  0
  -30.1072  -16.8606   21.4884 C   0  0  0  0  0  0
  -29.7100  -16.4286   19.0615 C   0  0  0  0  0  0
  -29.8507  -18.8945   19.8800 C   0  0  0  0  0  0
  -29.4243  -24.4695   17.9457 C   0  0  0  0  0  0
  -27.8570  -23.8635   20.4402 C   0  0  0  0  0  0
  -28.3960  -25.2969   20.9010 C   0  0  0  0  0  0
  -30.2434  -22.1975   17.9339 N   0  0  0  0  0  0
  -29.8945  -15.8308   20.4182 N   0  0  0  0  0  0
  -31.1513  -20.1503   17.5925 N   0  0  0  0  0  0
  -31.4638  -12.5010   19.1600 H   0  0  0  0  0  0
  -30.3339  -11.4187   19.9347 H   0  0  0  0  0  0
  -29.7636  -11.7129   17.5011 H   0  0  0  0  0  0
  -29.6496  -13.4422   17.7191 H   0  0  0  0  0  0
  -27.8520  -11.2915   18.8753 H   0  0  0  0  0  0
  -27.3700  -12.5643   17.7875 H   0  0  0  0  0  0
  -27.6318  -14.2550   19.4854 H   0  0  0  0  0  0
  -28.7030  -12.1540   21.4279 H   0  0  0  0  0  0
  -28.4472  -13.8520   21.7777 H   0  0  0  0  0  0
  -25.2765   -9.5716   22.4755 H   0  0  0  0  0  0
  -24.0033   -7.4646   22.7452 H   0  0  0  0  0  0
  -21.0850   -8.8768   19.8941 H   0  0  0  0  0  0
  -22.3682  -10.9685   19.6159 H   0  0  0  0  0  0
  -21.2002   -7.6144   23.9707 H   0  0  0  0  0  0
  -21.1491   -6.0519   25.9074 H   0  0  0  0  0  0
  -22.0596   -2.7607   23.2827 H   0  0  0  0  0  0
  -22.4094  -11.9869   22.4816 H   0  0  0  0  0  0
  -21.1089  -13.1209   22.2626 H   0  0  0  0  0  0
  -24.6684  -15.8583   20.5473 H   0  0  0  0  0  0
  -26.2954  -15.6343   20.1472 H   0  0  0  0  0  0
  -26.7156  -32.5486   23.1122 H   0  0  0  0  0  0
  -25.0035  -33.9733   25.0445 H   0  0  0  0  0  0
  -22.7076  -31.2982   21.4053 H   0  0  0  0  0  0
  -23.3772  -35.9596   23.3294 H   0  0  0  0  0  0
  -24.3591  -36.8913   22.2065 H   0  0  0  0  0  0
  -23.7195  -37.6479   23.6657 H   0  0  0  0  0  0
  -26.0782  -31.5605   20.5977 H   0  0  0  0  0  0
  -26.8376  -30.8553   21.9937 H   0  0  0  0  0  0
  -28.1236  -29.0164   21.1654 H   0  0  0  0  0  0
  -26.0221  -25.9181   19.0284 H   0  0  0  0  0  0
  -23.9743  -27.2832   19.0394 H   0  0  0  0  0  0
  -23.7477  -30.5844   19.4070 H   0  0  0  0  0  0
  -22.7511  -29.2367   19.8661 H   0  0  0  0  0  0
  -25.1280  -36.1983   25.0850 H   0  0  0  0  0  0
  -20.9960  -28.3213   24.1468 H   0  0  0  0  0  0
  -20.5746  -26.2253   23.3624 H   0  0  0  0  0  0
  -21.6638  -26.7470   22.1186 H   0  0  0  0  0  0
  -19.6902  -25.6302   21.1251 H   0  0  0  0  0  0
  -19.6671  -27.3228   20.6814 H   0  0  0  0  0  0
  -17.4210  -26.6717   21.4029 H   0  0  0  0  0  0
  -18.0270  -26.0051   22.9026 H   0  0  0  0  0  0
  -19.7918  -30.7279   24.2276 H   0  0  0  0  0  0
  -17.4985  -31.6257   24.5164 H   0  0  0  0  0  0
  -15.5334  -30.2969   23.7631 H   0  0  0  0  0  0
  -15.8678  -28.0807   22.7053 H   0  0  0  0  0  0
  -24.5879  -30.7050   25.7741 H   0  0  0  0  0  0
  -24.8863  -32.2855   26.4856 H   0  0  0  0  0  0
  -25.7996  -30.8869   27.0212 H   0  0  0  0  0  0
  -26.2897  -29.6755   24.1177 H   0  0  0  0  0  0
  -27.4096  -29.7281   25.4601 H   0  0  0  0  0  0
  -27.8720  -30.4349   23.9300 H   0  0  0  0  0  0
  -27.2712  -33.3630   26.2002 H   0  0  0  0  0  0
  -28.3860  -32.6793   25.0264 H   0  0  0  0  0  0
  -28.0711  -31.8431   26.5389 H   0  0  0  0  0  0
  -28.2610  -38.0097   24.7543 H   0  0  0  0  0  0
  -28.1080  -36.2635   24.6270 H   0  0  0  0  0  0
  -27.2310  -37.1414   25.8878 H   0  0  0  0  0  0
  -20.9394  -29.8686   21.6904 H   0  0  0  0  0  0
  -26.0195  -38.2879   24.1408 H   0  0  0  0  0  0
  -28.3349  -21.1098   21.1168 H   0  0  0  0  0  0
  -29.9948  -18.9830   22.0379 H   0  0  0  0  0  0
  -28.4765  -18.3518   21.4655 H   0  0  0  0  0  0
  -28.0720  -17.8871   19.1436 H   0  0  0  0  0  0
  -29.2522  -18.2013   17.9128 H   0  0  0  0  0  0
  -29.6948  -16.4641   22.4173 H   0  0  0  0  0  0
  -31.1821  -16.9429   21.6580 H   0  0  0  0  0  0
  -30.6732  -16.4196   18.5474 H   0  0  0  0  0  0
  -29.0699  -15.7680   18.4773 H   0  0  0  0  0  0
  -30.9240  -18.7430   19.7596 H   0  0  0  0  0  0
  -29.9845  -25.1938   18.5355 H   0  0  0  0  0  0
  -28.3945  -24.8142   17.8604 H   0  0  0  0  0  0
  -29.8464  -24.4661   16.9404 H   0  0  0  0  0  0
  -27.4694  -23.3856   21.3398 H   0  0  0  0  0  0
  -26.9805  -23.9942   19.8073 H   0  0  0  0  0  0
  -29.4277  -25.1714   21.2295 H   0  0  0  0  0  0
  -27.8589  -25.5500   21.8173 H   0  0  0  0  0  0
  -31.4729  -19.2592   17.9461 H   0  0  0  0  0  0
  -31.7901  -20.6092   16.9548 H   0  0  0  0  0  0
  1 25  1  0  0  0
  1 30  2  0  0  0
  1 85  1  0  0  0
  2  3  1  0  0  0
  2 25  1  0  0  0
  2 87  1  0  0  0
  2 88  1  0  0  0
  3  4  1  0  0  0
  3 89  1  0  0  0
  3 90  1  0  0  0
  4  5  1  0  0  0
  4 91  1  0  0  0
  4 92  1  0  0  0
  5  6  1  0  0  0
  5 26  1  0  0  0
  5 93  1  0  0  0
  6 25  1  0  0  0
  6 94  1  0  0  0
  6 95  1  0  0  0
  7  8  2  0  0  0
  7 26  1  0  0  0
  7 29  1  0  0  0
  8  9  1  0  0  0
  8 22  1  0  0  0
  9 10  1  0  0  0
  9 27  2  0  0  0
 10 11  2  0  0  0
 10 15  1  0  0  0
 11 12  1  0  0  0
 11 96  1  0  0  0
 12 13  2  0  0  0
 12 97  1  0  0  0
 13 14  1  0  0  0
 13 31  1  0  0  0
 14 15  2  0  0  0
 14 98  1  0  0  0
 15 99  1  0  0  0
 16 17  2  0  0  0
 16 21  1  0  0  0
 16 31  1  0  0  0
 17 18  1  0  0  0
 17100  1  0  0  0
 18 19  2  0  0  0
 18101  1  0  0  0
 19 20  1  0  0  0
 19 24  1  0  0  0
 20 21  2  0  0  0
 20102  1  0  0  0
 21 23  1  0  0  0
 22 28  1  0  0  0
 22 32  2  0  0  0
 26 27  1  0  0  0
 28103  1  0  0  0
 28104  1  0  0  0
 29105  1  0  0  0
 29106  1  0  0  0
 33 34  1  0  0  0
 33 66  1  0  0  0
 33 70  2  0  0  0
 34 36  1  0  0  0
 34 59  1  0  0  0
 34107  1  0  0  0
 35 44  2  0  0  0
 35 45  1  0  0  0
 35 68  1  0  0  0
 36 56  1  0  0  0
 36108  1  0  0  0
 37 39  1  0  0  0
 37 47  1  0  0  0
 37 66  1  0  0  0
 37109  1  0  0  0
 38 43  2  0  0  0
 38 46  1  0  0  0
 38 47  1  0  0  0
 39 64  1  0  0  0
 39 67  2  0  0  0
 40 52  1  0  0  0
 40 53  2  0  0  0
 40 58  1  0  0  0
 41110  1  0  0  0
 41111  1  0  0  0
 41112  1  0  0  0
 41 48  1  0  0  0
 42 43  1  0  0  0
 42 66  1  0  0  0
 42113  1  0  0  0
 42114  1  0  0  0
 43 44  1  0  0  0
 44115  1  0  0  0
 45 46  2  0  0  0
 45116  1  0  0  0
 46117  1  0  0  0
 47118  1  0  0  0
 47119  1  0  0  0
 48 56  1  0  0  0
 48 65  1  0  0  0
 48120  1  0  0  0
 49 50  1  0  0  0
 49 53  1  0  0  0
 49 64  1  0  0  0
 49121  1  0  0  0
 50 51  1  0  0  0
 50122  1  0  0  0
 50123  1  0  0  0
 51 52  1  0  0  0
 51124  1  0  0  0
 51125  1  0  0  0
 52126  1  0  0  0
 52127  1  0  0  0
 53 54  1  0  0  0
 54 55  2  0  0  0
 54128  1  0  0  0
 55 57  1  0  0  0
 55129  1  0  0  0
 56 69  2  0  0  0
 57 58  2  0  0  0
 57130  1  0  0  0
 58131  1  0  0  0
 59 60  1  0  0  0
 59 61  1  0  0  0
 59 62  1  0  0  0
 60132  1  0  0  0
 60133  1  0  0  0
 60134  1  0  0  0
 61135  1  0  0  0
 61136  1  0  0  0
 61137  1  0  0  0
 62138  1  0  0  0
 62139  1  0  0  0
 62140  1  0  0  0
 63 65  1  0  0  0
 63141  1  0  0  0
 63142  1  0  0  0
 63143  1  0  0  0
 64144  1  0  0  0
 65145  1  0  0  0
 68 83  1  0  0  0
 71 72  2  0  0  0
 71 73  1  0  0  0
 71146  1  0  0  0
 72 75  1  0  0  0
 72 80  1  0  0  0
 73 74  2  0  0  0
 73 82  1  0  0  0
 74 81  1  0  0  0
 74 84  1  0  0  0
 75 84  2  0  0  0
 75 86  1  0  0  0
 76 78  1  0  0  0
 76 80  1  0  0  0
 76147  1  0  0  0
 76148  1  0  0  0
 77 79  1  0  0  0
 77 80  1  0  0  0
 77149  1  0  0  0
 77150  1  0  0  0
 78 85  1  0  0  0
 78151  1  0  0  0
 78152  1  0  0  0
 79 85  1  0  0  0
 79153  1  0  0  0
 79154  1  0  0  0
 80155  1  0  0  0
 81156  1  0  0  0
 81157  1  0  0  0
 81158  1  0  0  0
 82 83  1  0  0  0
 82159  1  0  0  0
 82160  1  0  0  0
 83161  1  0  0  0
 83162  1  0  0  0
 86163  1  0  0  0
 86164  1  0  0  0
M  ISO  4   1 100  68 101  83 101  85 100
M  END
> <chiral flag>
0

> <version>
0

> <s_m_source_file>
/data/baiqing/PycharmProjects/Reinvent-master-3.2/result/LINK_invent/BTK/process_docking_weight1_custom_sum_contain_oxygen_bond_distance_aromatic_linkinvent_7_9_3/rearranged_h_0158.sdf

> <i_m_source_file_index>
50

> <r_mmod_Potential_Energy-OPLS-2005>
68.3800201416016

> <r_mmod_Stretch_Energy-OPLS-2005>
86.6150741577148

> <r_mmod_Bend_Energy-OPLS-2005>
185.903106689453

> <r_mmod_Torsional_Energy-OPLS-2005>
363.884552001953

> <r_mmod_Improper_Torsional_Energy-OPLS-2005>
15.2856855392456

> <r_mmod_Van_der_Waal_Energy-OPLS-2005>
140.961456298828

> <r_mmod_Electrostatic_Energy-OPLS-2005>
-564.707763671875

> <r_mmod_Solvation_Energy-OPLS-2005>
-211.98762512207

> <b_mmod_Minimization_Converged-OPLS-2005>
0

> <r_mmod_RMS_Derivative-OPLS-2005>
1.83725464344025

$$$$
50
                    3D
 Structure written by MMmdl.
187197  0  0  1  0            999 V2000
  -30.7710  -14.3226   20.7292 C   0  0  0  0  0  0
  -30.4222  -12.2921   19.3621 C   0  0  0  0  0  0
  -29.4750  -12.5377   18.1747 C   0  0  0  0  0  0
  -28.0000  -12.3940   18.5997 C   0  0  0  0  0  0
  -27.6699  -13.1901   19.8872 C   0  0  2  0  0  0
  -28.7109  -12.8636   20.9800 C   0  0  0  0  0  0
  -25.2610  -13.8124   20.5632 C   0  0  0  0  0  0
  -24.1855  -13.0406   20.9163 C   0  0  0  0  0  0
  -24.6399  -11.6871   20.8738 C   0  0  0  0  0  0
  -23.9073  -10.4271   21.0406 C   0  0  0  0  0  0
  -24.3626   -9.4184   21.9178 C   0  0  0  0  0  0
  -23.6293   -8.2220   22.0744 C   0  0  0  0  0  0
  -22.4272   -8.0260   21.3530 C   0  0  0  0  0  0
  -21.9910   -9.0244   20.4629 C   0  0  0  0  0  0
  -22.7250  -10.2123   20.3050 C   0  0  0  0  0  0
  -21.6834   -6.0737   22.5284 C   0  0  0  0  0  0
  -21.3999   -6.5644   23.8221 C   0  0  0  0  0  0
  -21.3664   -5.6795   24.9179 C   0  0  0  0  0  0
  -21.6055   -4.3061   24.7230 C   0  0  0  0  0  0
  -21.8821   -3.8150   23.4351 C   0  0  0  0  0  0
  -21.9173   -4.6964   22.3404 C   0  0  0  0  0  0
  -22.7875  -13.5201   21.1846 C   0  0  0  0  0  0
  -22.1617   -4.2155   21.0975 F   0  0  0  0  0  0
  -21.5655   -3.4542   25.7744 F   0  0  0  0  0  0
  -30.0483  -13.2018   20.4570 N   0  0  0  0  0  0
  -26.3054  -12.9262   20.3410 N   0  0  0  0  0  0
  -25.9315  -11.6436   20.5776 N   0  0  0  0  0  0
  -22.0533  -12.8183   22.0428 N   0  0  0  0  0  0
  -25.4351  -15.1825   20.3951 N   0  0  0  0  0  0
  -31.7694  -14.6401   20.0706 O   0  0  0  0  0  0
  -21.6614   -6.8873   21.4244 O   0  0  0  0  0  0
  -22.3529  -14.5492   20.6693 O   0  0  0  0  0  0
  -24.6105  -31.8694   23.2104 C   0  0  0  0  0  0
  -25.9010  -32.4823   23.8405 C   0  0  1  0  0  0
  -27.2572  -27.4870   20.0828 C   0  0  0  0  0  0
  -25.5859  -33.8622   24.2322 N   0  0  0  0  0  0
  -23.3964  -30.4903   21.5484 C   0  0  2  0  0  0
  -24.8501  -28.9543   20.1153 C   0  0  0  0  0  0
  -22.7379  -29.4671   22.5005 C   0  0  0  0  0  0
  -18.0255  -28.1382   22.8475 C   0  0  0  0  0  0
  -24.1485  -36.7342   23.2638 C   0  0  0  0  0  0
  -25.9178  -30.8476   21.3570 C   0  0  0  0  0  0
  -26.0006  -29.4800   20.7169 C   0  0  0  0  0  0
  -27.2018  -28.7453   20.7148 C   0  0  0  0  0  0
  -26.0946  -26.9543   19.4880 C   0  0  0  0  0  0
  -24.8890  -27.6859   19.5038 C   0  0  0  0  0  0
  -23.6057  -29.8132   20.1648 C   0  0  0  0  0  0
  -25.4099  -36.3124   24.0343 C   0  0  1  0  0  0
  -20.5842  -28.3667   23.1334 C   0  0  2  0  0  0
  -20.6747  -26.9412   22.5424 C   0  0  0  0  0  0
  -19.5736  -26.6391   21.5213 C   0  0  0  0  0  0
  -18.1909  -26.7921   22.1617 C   0  0  0  0  0  0
  -19.1501  -28.8838   23.2897 C   0  0  0  0  0  0
  -18.9435  -30.1437   23.8926 C   0  0  0  0  0  0
  -17.6439  -30.6582   24.0572 C   0  0  0  0  0  0
  -25.9026  -34.9480   23.5136 C   0  0  0  0  0  0
  -16.5332  -29.9089   23.6323 C   0  0  0  0  0  0
  -16.7242  -28.6507   23.0337 C   0  0  0  0  0  0
  -26.4457  -31.6586   25.0714 C   0  0  0  0  0  0
  -25.3733  -31.3663   26.1463 C   0  0  0  0  0  0
  -27.0272  -30.3032   24.6057 C   0  0  0  0  0  0
  -27.6058  -32.4284   25.7458 C   0  0  0  0  0  0
  -27.5574  -37.1816   24.8454 C   0  0  0  0  0  0
  -21.4116  -29.3032   22.3744 N   0  0  0  0  0  0
  -26.4283  -37.3809   23.9410 N   0  0  0  0  0  0
  -24.6592  -31.0827   22.0979 N   0  0  0  0  0  0
  -23.4163  -28.8224   23.3049 O   0  0  0  0  0  0
  -28.4480  -26.8038   20.0540 O   0  0  0  0  0  0
  -26.5610  -34.8929   22.4713 O   0  0  0  0  0  0
  -23.5311  -32.1429   23.7520 O   0  0  0  0  0  0
  -33.1771  -20.4011   20.7264 C   0  0  0  0  0  0
  -30.7538  -19.9526   21.9290 C   0  0  0  0  0  0
  -31.5777  -18.8326   21.6722 C   0  0  0  0  0  0
  -32.8552  -19.0754   21.1054 C   0  0  0  0  0  0
  -32.2296  -21.4191   20.9368 C   0  0  0  0  0  0
  -31.3812  -22.9596   19.1629 C   0  0  0  0  0  0
  -32.2201  -23.9286   21.3781 C   0  0  0  0  0  0
  -31.7734  -16.7966   22.9950 C   0  0  0  0  0  0
  -31.5832  -15.2642   22.8521 C   0  0  0  0  0  0
  -29.3389  -15.7926   22.0621 C   0  0  0  0  0  0
  -31.3352  -24.3883   18.6232 C   0  0  0  0  0  0
  -32.1011  -25.3262   20.7410 C   0  0  0  0  0  0
  -32.3841  -22.8045   20.3274 C   0  0  1  0  0  0
  -29.6884  -17.2492   21.6928 C   0  0  2  0  0  0
  -29.2816  -17.5517   20.2349 C   0  0  0  0  0  0
  -35.8233  -16.9408   20.6602 C   0  0  0  0  0  0
  -28.9742  -28.0430   17.9315 C   0  0  0  0  0  0
  -30.6751  -26.6934   19.2227 C   0  0  0  0  0  0
  -35.0404  -18.2497   20.5221 C   0  0  0  0  0  0
  -29.1848  -26.8011   18.8208 C   0  0  1  0  0  0
  -31.0578  -21.2058   21.5605 N   0  0  0  0  0  0
  -31.1182  -17.5194   21.9056 N   0  0  0  0  0  0
  -30.4981  -14.8980   21.9221 N   0  0  0  0  0  0
  -31.0231  -25.3394   19.7184 N   0  3  1  0  0  0
  -33.6953  -17.9982   20.9031 O   0  0  0  0  0  0
  -31.4584  -12.4221   19.0438 H   0  0  0  0  0  0
  -30.3458  -11.2566   19.6987 H   0  0  0  0  0  0
  -29.6937  -11.8401   17.3648 H   0  0  0  0  0  0
  -29.6472  -13.5366   17.7726 H   0  0  0  0  0  0
  -27.7983  -11.3347   18.7612 H   0  0  0  0  0  0
  -27.3430  -12.7035   17.7871 H   0  0  0  0  0  0
  -27.7418  -14.2502   19.6431 H   0  0  0  0  0  0
  -28.6796  -11.7959   21.2046 H   0  0  0  0  0  0
  -28.4640  -13.3318   21.9305 H   0  0  0  0  0  0
  -25.2786   -9.5650   22.4730 H   0  0  0  0  0  0
  -24.0013   -7.4609   22.7448 H   0  0  0  0  0  0
  -21.0852   -8.8762   19.8922 H   0  0  0  0  0  0
  -22.3719  -10.9652   19.6150 H   0  0  0  0  0  0
  -21.1976   -7.6150   23.9727 H   0  0  0  0  0  0
  -21.1492   -6.0520   25.9087 H   0  0  0  0  0  0
  -22.0609   -2.7608   23.2848 H   0  0  0  0  0  0
  -22.4147  -11.9831   22.4792 H   0  0  0  0  0  0
  -21.1151  -13.1204   22.2654 H   0  0  0  0  0  0
  -24.6695  -15.8443   20.4764 H   0  0  0  0  0  0
  -26.2846  -15.6047   20.0428 H   0  0  0  0  0  0
  -26.7092  -32.5569   23.1196 H   0  0  0  0  0  0
  -24.9961  -33.9795   25.0426 H   0  0  0  0  0  0
  -22.6846  -31.3058   21.4065 H   0  0  0  0  0  0
  -23.3736  -35.9686   23.3306 H   0  0  0  0  0  0
  -24.3591  -36.8958   22.2053 H   0  0  0  0  0  0
  -23.7251  -37.6556   23.6649 H   0  0  0  0  0  0
  -26.0187  -31.6097   20.5820 H   0  0  0  0  0  0
  -26.8105  -30.9138   21.9661 H   0  0  0  0  0  0
  -28.0918  -29.1517   21.1752 H   0  0  0  0  0  0
  -26.1256  -25.9864   19.0060 H   0  0  0  0  0  0
  -24.0037  -27.2761   19.0377 H   0  0  0  0  0  0
  -23.6992  -30.5822   19.3971 H   0  0  0  0  0  0
  -22.7335  -29.2224   19.8795 H   0  0  0  0  0  0
  -25.1283  -36.2002   25.0843 H   0  0  0  0  0  0
  -20.9928  -28.3232   24.1456 H   0  0  0  0  0  0
  -20.5665  -26.2276   23.3604 H   0  0  0  0  0  0
  -21.6624  -26.7457   22.1230 H   0  0  0  0  0  0
  -19.6916  -25.6308   21.1228 H   0  0  0  0  0  0
  -19.6686  -27.3221   20.6765 H   0  0  0  0  0  0
  -17.4187  -26.6662   21.4012 H   0  0  0  0  0  0
  -18.0312  -26.0056   22.9012 H   0  0  0  0  0  0
  -19.7911  -30.7233   24.2329 H   0  0  0  0  0  0
  -17.4998  -31.6274   24.5152 H   0  0  0  0  0  0
  -15.5339  -30.3018   23.7617 H   0  0  0  0  0  0
  -15.8634  -28.0846   22.7045 H   0  0  0  0  0  0
  -24.5910  -30.7019   25.7780 H   0  0  0  0  0  0
  -24.8913  -32.2794   26.4964 H   0  0  0  0  0  0
  -25.8091  -30.8783   27.0188 H   0  0  0  0  0  0
  -26.2790  -29.6798   24.1138 H   0  0  0  0  0  0
  -27.4081  -29.7273   25.4507 H   0  0  0  0  0  0
  -27.8619  -30.4371   23.9169 H   0  0  0  0  0  0
  -27.2715  -33.3577   26.2093 H   0  0  0  0  0  0
  -28.3828  -32.6848   25.0238 H   0  0  0  0  0  0
  -28.0769  -31.8355   26.5314 H   0  0  0  0  0  0
  -28.2598  -38.0108   24.7514 H   0  0  0  0  0  0
  -28.1063  -36.2646   24.6261 H   0  0  0  0  0  0
  -27.2297  -37.1455   25.8857 H   0  0  0  0  0  0
  -20.9279  -29.8724   21.6940 H   0  0  0  0  0  0
  -26.0181  -38.2894   24.1408 H   0  0  0  0  0  0
  -34.1027  -20.6381   20.2233 H   0  0  0  0  0  0
  -29.7863  -19.8539   22.3945 H   0  0  0  0  0  0
  -31.6314  -22.2653   18.3599 H   0  0  0  0  0  0
  -30.3751  -22.6921   19.4892 H   0  0  0  0  0  0
  -31.3229  -23.7599   21.9730 H   0  0  0  0  0  0
  -33.0520  -23.9011   22.0835 H   0  0  0  0  0  0
  -32.8369  -17.0319   23.0597 H   0  0  0  0  0  0
  -31.3298  -17.1280   23.9364 H   0  0  0  0  0  0
  -31.3821  -14.8202   23.8282 H   0  0  0  0  0  0
  -32.5258  -14.8202   22.5279 H   0  0  0  0  0  0
  -28.4698  -15.4700   21.4905 H   0  0  0  0  0  0
  -29.0200  -15.7536   23.1036 H   0  0  0  0  0  0
  -30.5854  -24.4436   17.8347 H   0  0  0  0  0  0
  -32.2886  -24.6479   18.1601 H   0  0  0  0  0  0
  -33.0517  -25.6214   20.2925 H   0  0  0  0  0  0
  -31.8826  -26.0545   21.5234 H   0  0  0  0  0  0
  -33.3889  -22.8906   19.9109 H   0  0  0  0  0  0
  -29.0866  -17.8824   22.3465 H   0  0  0  0  0  0
  -29.8691  -16.9686   19.5239 H   0  0  0  0  0  0
  -29.4092  -18.6023   19.9766 H   0  0  0  0  0  0
  -28.2314  -17.3169   20.0584 H   0  0  0  0  0  0
  -36.8804  -17.0895   20.4350 H   0  0  0  0  0  0
  -35.4405  -16.1769   19.9828 H   0  0  0  0  0  0
  -35.7506  -16.5539   21.6767 H   0  0  0  0  0  0
  -29.6142  -27.9950   17.0508 H   0  0  0  0  0  0
  -29.2172  -28.9638   18.4611 H   0  0  0  0  0  0
  -27.9484  -28.1105   17.5675 H   0  0  0  0  0  0
  -30.8765  -27.4440   19.9878 H   0  0  0  0  0  0
  -31.3283  -26.9367   18.3834 H   0  0  0  0  0  0
  -35.0834  -18.6126   19.4932 H   0  0  0  0  0  0
  -35.4882  -19.0066   21.1688 H   0  0  0  0  0  0
  -28.8777  -25.9252   18.2496 H   0  0  0  0  0  0
  -30.1906  -25.0069   20.1867 H   0  0  0  0  0  0
  1 25  1  0  0  0
  1 30  2  0  0  0
  1 93  1  0  0  0
  2  3  1  0  0  0
  2 25  1  0  0  0
  2 96  1  0  0  0
  2 97  1  0  0  0
  3  4  1  0  0  0
  3 98  1  0  0  0
  3 99  1  0  0  0
  4  5  1  0  0  0
  4100  1  0  0  0
  4101  1  0  0  0
  5  6  1  0  0  0
  5 26  1  0  0  0
  5102  1  0  0  0
  6 25  1  0  0  0
  6103  1  0  0  0
  6104  1  0  0  0
  7  8  2  0  0  0
  7 26  1  0  0  0
  7 29  1  0  0  0
  8  9  1  0  0  0
  8 22  1  0  0  0
  9 10  1  0  0  0
  9 27  2  0  0  0
 10 11  2  0  0  0
 10 15  1  0  0  0
 11 12  1  0  0  0
 11105  1  0  0  0
 12 13  2  0  0  0
 12106  1  0  0  0
 13 14  1  0  0  0
 13 31  1  0  0  0
 14 15  2  0  0  0
 14107  1  0  0  0
 15108  1  0  0  0
 16 17  2  0  0  0
 16 21  1  0  0  0
 16 31  1  0  0  0
 17 18  1  0  0  0
 17109  1  0  0  0
 18 19  2  0  0  0
 18110  1  0  0  0
 19 20  1  0  0  0
 19 24  1  0  0  0
 20 21  2  0  0  0
 20111  1  0  0  0
 21 23  1  0  0  0
 22 28  1  0  0  0
 22 32  2  0  0  0
 26 27  1  0  0  0
 28112  1  0  0  0
 28113  1  0  0  0
 29114  1  0  0  0
 29115  1  0  0  0
 33 34  1  0  0  0
 33 66  1  0  0  0
 33 70  2  0  0  0
 34 36  1  0  0  0
 34 59  1  0  0  0
 34116  1  0  0  0
 35 44  2  0  0  0
 35 45  1  0  0  0
 35 68  1  0  0  0
 36 56  1  0  0  0
 36117  1  0  0  0
 37 39  1  0  0  0
 37 47  1  0  0  0
 37 66  1  0  0  0
 37118  1  0  0  0
 38 43  2  0  0  0
 38 46  1  0  0  0
 38 47  1  0  0  0
 39 64  1  0  0  0
 39 67  2  0  0  0
 40 52  1  0  0  0
 40 53  2  0  0  0
 40 58  1  0  0  0
 41119  1  0  0  0
 41120  1  0  0  0
 41121  1  0  0  0
 41 48  1  0  0  0
 42 43  1  0  0  0
 42 66  1  0  0  0
 42122  1  0  0  0
 42123  1  0  0  0
 43 44  1  0  0  0
 44124  1  0  0  0
 45 46  2  0  0  0
 45125  1  0  0  0
 46126  1  0  0  0
 47127  1  0  0  0
 47128  1  0  0  0
 48 56  1  0  0  0
 48 65  1  0  0  0
 48129  1  0  0  0
 49 50  1  0  0  0
 49 53  1  0  0  0
 49 64  1  0  0  0
 49130  1  0  0  0
 50 51  1  0  0  0
 50131  1  0  0  0
 50132  1  0  0  0
 51 52  1  0  0  0
 51133  1  0  0  0
 51134  1  0  0  0
 52135  1  0  0  0
 52136  1  0  0  0
 53 54  1  0  0  0
 54 55  2  0  0  0
 54137  1  0  0  0
 55 57  1  0  0  0
 55138  1  0  0  0
 56 69  2  0  0  0
 57 58  2  0  0  0
 57139  1  0  0  0
 58140  1  0  0  0
 59 60  1  0  0  0
 59 61  1  0  0  0
 59 62  1  0  0  0
 60141  1  0  0  0
 60142  1  0  0  0
 60143  1  0  0  0
 61144  1  0  0  0
 61145  1  0  0  0
 61146  1  0  0  0
 62147  1  0  0  0
 62148  1  0  0  0
 62149  1  0  0  0
 63 65  1  0  0  0
 63150  1  0  0  0
 63151  1  0  0  0
 63152  1  0  0  0
 64153  1  0  0  0
 65154  1  0  0  0
 68 90  1  0  0  0
 71 74  2  0  0  0
 71 75  1  0  0  0
 71155  1  0  0  0
 72 73  2  0  0  0
 72 91  1  0  0  0
 72156  1  0  0  0
 73 74  1  0  0  0
 73 92  1  0  0  0
 74 95  1  0  0  0
 75 91  2  0  0  0
 75 83  1  0  0  0
 76 81  1  0  0  0
 76 83  1  0  0  0
 76157  1  0  0  0
 76158  1  0  0  0
 77 82  1  0  0  0
 77 83  1  0  0  0
 77159  1  0  0  0
 77160  1  0  0  0
 78 79  1  0  0  0
 78 92  1  0  0  0
 78161  1  0  0  0
 78162  1  0  0  0
 79 93  1  0  0  0
 79163  1  0  0  0
 79164  1  0  0  0
 80 84  1  0  0  0
 80 93  1  0  0  0
 80165  1  0  0  0
 80166  1  0  0  0
 81 94  1  0  0  0
 81167  1  0  0  0
 81168  1  0  0  0
 82 94  1  0  0  0
 82169  1  0  0  0
 82170  1  0  0  0
 83171  1  0  0  0
 84 85  1  0  0  0
 84 92  1  0  0  0
 84172  1  0  0  0
 85173  1  0  0  0
 85174  1  0  0  0
 85175  1  0  0  0
 86 89  1  0  0  0
 86176  1  0  0  0
 86177  1  0  0  0
 86178  1  0  0  0
 87179  1  0  0  0
 87180  1  0  0  0
 87181  1  0  0  0
 87 90  1  0  0  0
 88 90  1  0  0  0
 88182  1  0  0  0
 88183  1  0  0  0
 88 94  1  0  0  0
 89 95  1  0  0  0
 89184  1  0  0  0
 89185  1  0  0  0
 90186  1  0  0  0
 94187  1  0  0  0
M  CHG  1  94   1
M  ISO  4   1 100  68 101  90 101  93 100
M  END
> <chiral flag>
0

> <version>
0

> <s_m_source_file>
/data/baiqing/PycharmProjects/Reinvent-master-3.2/result/LINK_invent/BTK/process_docking_weight1_custom_sum_contain_oxygen_bond_distance_aromatic_linkinvent_7_9_3/rearranged_h_0158.sdf

> <i_m_source_file_index>
51

> <r_mmod_Potential_Energy-OPLS-2005>
-63.1732215881348

> <r_mmod_Stretch_Energy-OPLS-2005>
39.5408058166504

> <r_mmod_Bend_Energy-OPLS-2005>
116.742881774902

> <r_mmod_Torsional_Energy-OPLS-2005>
416.446472167969

> <r_mmod_Improper_Torsional_Energy-OPLS-2005>
12.2806873321533

> <r_mmod_Van_der_Waal_Energy-OPLS-2005>
188.497009277344

> <r_mmod_Electrostatic_Energy-OPLS-2005>
-418.844543457031

> <r_mmod_Solvation_Energy-OPLS-2005>
-426.133758544922

> <b_mmod_Minimization_Converged-OPLS-2005>
0

> <r_mmod_RMS_Derivative-OPLS-2005>
2.94460678100586

$$$$
51
                    3D
 Structure written by MMmdl.
177186  0  0  1  0            999 V2000
  -30.7515  -14.3734   20.7099 C   0  0  0  0  0  0
  -30.4261  -12.3032   19.3908 C   0  0  0  0  0  0
  -29.4873  -12.5315   18.1931 C   0  0  0  0  0  0
  -28.0098  -12.3858   18.6090 C   0  0  0  0  0  0
  -27.6690  -13.2008   19.8820 C   0  0  2  0  0  0
  -28.7055  -12.9226   20.9911 C   0  0  0  0  0  0
  -25.2586  -13.8119   20.5599 C   0  0  0  0  0  0
  -24.1856  -13.0418   20.9174 C   0  0  0  0  0  0
  -24.6411  -11.6885   20.8756 C   0  0  0  0  0  0
  -23.9064  -10.4276   21.0405 C   0  0  0  0  0  0
  -24.3616   -9.4198   21.9179 C   0  0  0  0  0  0
  -23.6293   -8.2238   22.0751 C   0  0  0  0  0  0
  -22.4281   -8.0272   21.3531 C   0  0  0  0  0  0
  -21.9910   -9.0255   20.4650 C   0  0  0  0  0  0
  -22.7239  -10.2133   20.3055 C   0  0  0  0  0  0
  -21.6855   -6.0744   22.5278 C   0  0  0  0  0  0
  -21.4014   -6.5643   23.8215 C   0  0  0  0  0  0
  -21.3648   -5.6795   24.9170 C   0  0  0  0  0  0
  -21.6048   -4.3063   24.7225 C   0  0  0  0  0  0
  -21.8815   -3.8151   23.4348 C   0  0  0  0  0  0
  -21.9192   -4.6965   22.3403 C   0  0  0  0  0  0
  -22.7884  -13.5222   21.1855 C   0  0  0  0  0  0
  -22.1660   -4.2146   21.0982 F   0  0  0  0  0  0
  -21.5620   -3.4545   25.7738 F   0  0  0  0  0  0
  -30.0472  -13.2368   20.4618 N   0  0  0  0  0  0
  -26.3055  -12.9303   20.3381 N   0  0  0  0  0  0
  -25.9338  -11.6466   20.5783 N   0  0  0  0  0  0
  -22.0532  -12.8206   22.0420 N   0  0  0  0  0  0
  -25.4243  -15.1811   20.3808 N   0  0  0  0  0  0
  -31.7651  -14.6967   20.0827 O   0  0  0  0  0  0
  -21.6633   -6.8885   21.4241 O   0  0  0  0  0  0
  -22.3564  -14.5534   20.6714 O   0  0  0  0  0  0
  -24.6109  -31.8744   23.2208 C   0  0  0  0  0  0
  -25.9025  -32.4845   23.8475 C   0  0  1  0  0  0
  -27.2135  -27.4422   20.0991 C   0  0  0  0  0  0
  -25.5906  -33.8653   24.2378 N   0  0  0  0  0  0
  -23.3956  -30.5015   21.5613 C   0  0  2  0  0  0
  -24.8385  -28.9777   20.1192 C   0  0  0  0  0  0
  -22.7390  -29.4708   22.5046 C   0  0  0  0  0  0
  -18.0303  -28.1353   22.8462 C   0  0  0  0  0  0
  -24.1488  -36.7317   23.2638 C   0  0  0  0  0  0
  -25.9255  -30.8398   21.3768 C   0  0  0  0  0  0
  -26.0007  -29.4769   20.7217 C   0  0  0  0  0  0
  -27.1908  -28.7156   20.7154 C   0  0  0  0  0  0
  -26.0437  -26.9859   19.4517 C   0  0  0  0  0  0
  -24.8549  -27.7305   19.4812 C   0  0  0  0  0  0
  -23.6006  -29.8416   20.1721 C   0  0  0  0  0  0
  -25.4119  -36.3125   24.0325 C   0  0  1  0  0  0
  -20.5880  -28.3673   23.1346 C   0  0  2  0  0  0
  -20.6810  -26.9396   22.5492 C   0  0  0  0  0  0
  -19.5843  -26.6366   21.5272 C   0  0  0  0  0  0
  -18.1988  -26.7885   22.1618 C   0  0  0  0  0  0
  -19.1536  -28.8835   23.2873 C   0  0  0  0  0  0
  -18.9450  -30.1445   23.8875 C   0  0  0  0  0  0
  -17.6458  -30.6580   24.0527 C   0  0  0  0  0  0
  -25.9036  -34.9477   23.5148 C   0  0  0  0  0  0
  -16.5360  -29.9072   23.6289 C   0  0  0  0  0  0
  -16.7282  -28.6459   23.0355 C   0  0  0  0  0  0
  -26.4479  -31.6603   25.0772 C   0  0  0  0  0  0
  -25.3757  -31.3690   26.1518 C   0  0  0  0  0  0
  -27.0318  -30.3044   24.6139 C   0  0  0  0  0  0
  -27.6063  -32.4331   25.7521 C   0  0  0  0  0  0
  -27.5587  -37.1816   24.8461 C   0  0  0  0  0  0
  -21.4134  -29.3022   22.3716 N   0  0  0  0  0  0
  -26.4317  -37.3806   23.9382 N   0  0  0  0  0  0
  -24.6619  -31.0863   22.1101 N   0  0  0  0  0  0
  -23.4166  -28.8264   23.3091 O   0  0  0  0  0  0
  -28.3744  -26.6972   20.0640 O   0  0  0  0  0  0
  -26.5609  -34.8908   22.4706 O   0  0  0  0  0  0
  -23.5313  -32.1499   23.7602 O   0  0  0  0  0  0
  -30.0597  -19.7904   21.2892 C   0  0  0  0  0  0
  -30.9779  -18.7668   21.6282 C   0  0  0  0  0  0
  -28.7964  -19.2968   21.4280 C   0  0  0  0  0  0
  -30.2715  -17.6227   21.8816 C   0  0  0  0  0  0
  -27.3001  -21.1311   22.3688 C   0  0  0  0  0  0
  -27.3333  -20.6401   19.8579 C   0  0  0  0  0  0
  -27.8822  -22.5352   22.0577 C   0  0  0  0  0  0
  -26.8315  -22.0931   19.8523 C   0  0  0  0  0  0
  -27.4999  -20.0556   21.2766 C   0  0  1  0  0  0
  -27.4042  -17.0180   23.5040 C   0  0  0  0  0  0
  -28.4306  -25.8496   22.3412 C   0  0  0  0  0  0
  -32.7106  -19.7886   22.7728 C   0  0  0  0  0  0
  -30.8499  -16.2978   22.3390 C   0  0  0  0  0  0
  -27.7875  -17.0401   22.0225 C   0  0  0  0  0  0
  -27.3820  -24.4164   20.4450 C   0  0  0  0  0  0
  -28.4444  -25.4823   20.8481 C   0  0  1  0  0  0
  -28.9095  -17.9423   21.7701 N   0  0  0  0  0  0
  -30.2859  -15.0885   21.7440 N   0  0  0  0  0  0
  -27.7336  -22.9762   20.6385 N   0  3  1  0  0  0
  -32.3333  -18.9124   21.7189 O   0  0  0  0  0  0
  -31.4655  -12.4218   19.0811 H   0  0  0  0  0  0
  -30.3395  -11.2765   19.7495 H   0  0  0  0  0  0
  -29.7227  -11.8285   17.3930 H   0  0  0  0  0  0
  -29.6550  -13.5283   17.7844 H   0  0  0  0  0  0
  -27.8172  -11.3283   18.7907 H   0  0  0  0  0  0
  -27.3529  -12.6763   17.7877 H   0  0  0  0  0  0
  -27.7325  -14.2572   19.6204 H   0  0  0  0  0  0
  -28.6738  -11.8719   21.2818 H   0  0  0  0  0  0
  -28.4425  -13.4698   21.8960 H   0  0  0  0  0  0
  -25.2763   -9.5677   22.4750 H   0  0  0  0  0  0
  -23.9999   -7.4639   22.7477 H   0  0  0  0  0  0
  -21.0840   -8.8789   19.8977 H   0  0  0  0  0  0
  -22.3700  -10.9673   19.6173 H   0  0  0  0  0  0
  -21.2005   -7.6150   23.9710 H   0  0  0  0  0  0
  -21.1476   -6.0531   25.9072 H   0  0  0  0  0  0
  -22.0606   -2.7611   23.2854 H   0  0  0  0  0  0
  -22.4131  -11.9852   22.4775 H   0  0  0  0  0  0
  -21.1169  -13.1256   22.2642 H   0  0  0  0  0  0
  -24.6388  -15.8191   20.4258 H   0  0  0  0  0  0
  -26.2392  -15.5878   19.9395 H   0  0  0  0  0  0
  -26.7076  -32.5543   23.1229 H   0  0  0  0  0  0
  -24.9982  -33.9861   25.0466 H   0  0  0  0  0  0
  -22.6802  -31.3171   21.4309 H   0  0  0  0  0  0
  -23.3743  -35.9661   23.3337 H   0  0  0  0  0  0
  -24.3572  -36.8903   22.2050 H   0  0  0  0  0  0
  -23.7257  -37.6532   23.6637 H   0  0  0  0  0  0
  -26.0349  -31.6103   20.6136 H   0  0  0  0  0  0
  -26.8159  -30.8912   21.9928 H   0  0  0  0  0  0
  -28.0841  -29.1022   21.1840 H   0  0  0  0  0  0
  -26.0273  -26.0705   18.8868 H   0  0  0  0  0  0
  -23.9677  -27.3557   18.9887 H   0  0  0  0  0  0
  -23.7011  -30.6226   19.4164 H   0  0  0  0  0  0
  -22.7280  -29.2559   19.8791 H   0  0  0  0  0  0
  -25.1310  -36.2002   25.0827 H   0  0  0  0  0  0
  -20.9974  -28.3308   24.1477 H   0  0  0  0  0  0
  -20.5651  -26.2322   23.3711 H   0  0  0  0  0  0
  -21.6703  -26.7424   22.1335 H   0  0  0  0  0  0
  -19.7032  -25.6247   21.1396 H   0  0  0  0  0  0
  -19.6854  -27.3115   20.6764 H   0  0  0  0  0  0
  -17.4290  -26.6587   21.3984 H   0  0  0  0  0  0
  -18.0433  -26.0057   22.9048 H   0  0  0  0  0  0
  -19.7918  -30.7264   24.2262 H   0  0  0  0  0  0
  -17.5017  -31.6263   24.5136 H   0  0  0  0  0  0
  -15.5354  -30.2963   23.7600 H   0  0  0  0  0  0
  -15.8699  -28.0720   22.7142 H   0  0  0  0  0  0
  -24.5923  -30.7055   25.7835 H   0  0  0  0  0  0
  -24.8955  -32.2837   26.5003 H   0  0  0  0  0  0
  -25.8118  -30.8821   27.0247 H   0  0  0  0  0  0
  -26.2868  -29.6815   24.1170 H   0  0  0  0  0  0
  -27.4053  -29.7274   25.4609 H   0  0  0  0  0  0
  -27.8723  -30.4359   23.9322 H   0  0  0  0  0  0
  -27.2683  -33.3606   26.2159 H   0  0  0  0  0  0
  -28.3841  -32.6941   25.0332 H   0  0  0  0  0  0
  -28.0768  -31.8420   26.5389 H   0  0  0  0  0  0
  -28.2636  -38.0088   24.7518 H   0  0  0  0  0  0
  -28.1064  -36.2631   24.6296 H   0  0  0  0  0  0
  -27.2303  -37.1477   25.8866 H   0  0  0  0  0  0
  -20.9299  -29.8646   21.6836 H   0  0  0  0  0  0
  -26.0201  -38.2884   24.1363 H   0  0  0  0  0  0
  -30.3023  -20.8089   21.0217 H   0  0  0  0  0  0
  -26.2258  -21.2590   22.5061 H   0  0  0  0  0  0
  -27.6558  -20.7699   23.3341 H   0  0  0  0  0  0
  -28.2763  -20.6032   19.3118 H   0  0  0  0  0  0
  -26.6510  -20.0115   19.2858 H   0  0  0  0  0  0
  -28.9416  -22.5720   22.3136 H   0  0  0  0  0  0
  -27.3774  -23.2386   22.7199 H   0  0  0  0  0  0
  -25.8175  -22.1535   20.2500 H   0  0  0  0  0  0
  -26.7765  -22.4349   18.8182 H   0  0  0  0  0  0
  -26.6621  -19.3776   21.4199 H   0  0  0  0  0  0
  -26.5819  -16.3257   23.6795 H   0  0  0  0  0  0
  -27.0832  -18.0036   23.8422 H   0  0  0  0  0  0
  -28.2461  -16.7081   24.1239 H   0  0  0  0  0  0
  -28.7420  -25.0152   22.9661 H   0  0  0  0  0  0
  -27.4403  -26.1640   22.6683 H   0  0  0  0  0  0
  -29.1260  -26.6647   22.5396 H   0  0  0  0  0  0
  -33.7884  -19.9396   22.7608 H   0  0  0  0  0  0
  -32.4396  -19.3616   23.7395 H   0  0  0  0  0  0
  -32.2400  -20.7705   22.6915 H   0  0  0  0  0  0
  -30.7279  -16.2186   23.4203 H   0  0  0  0  0  0
  -31.9289  -16.3038   22.1770 H   0  0  0  0  0  0
  -26.9333  -17.3188   21.4084 H   0  0  0  0  0  0
  -28.0252  -16.0411   21.6802 H   0  0  0  0  0  0
  -27.2702  -24.5148   19.3677 H   0  0  0  0  0  0
  -26.4099  -24.6333   20.8921 H   0  0  0  0  0  0
  -29.4283  -25.0695   20.6214 H   0  0  0  0  0  0
  -29.4988  -14.6848   22.2253 H   0  0  0  0  0  0
  -28.6440  -22.8534   20.2186 H   0  0  0  0  0  0
  1 25  1  0  0  0
  1 30  2  0  0  0
  1 88  1  0  0  0
  2  3  1  0  0  0
  2 25  1  0  0  0
  2 91  1  0  0  0
  2 92  1  0  0  0
  3  4  1  0  0  0
  3 93  1  0  0  0
  3 94  1  0  0  0
  4  5  1  0  0  0
  4 95  1  0  0  0
  4 96  1  0  0  0
  5  6  1  0  0  0
  5 26  1  0  0  0
  5 97  1  0  0  0
  6 25  1  0  0  0
  6 98  1  0  0  0
  6 99  1  0  0  0
  7  8  2  0  0  0
  7 26  1  0  0  0
  7 29  1  0  0  0
  8  9  1  0  0  0
  8 22  1  0  0  0
  9 10  1  0  0  0
  9 27  2  0  0  0
 10 11  2  0  0  0
 10 15  1  0  0  0
 11 12  1  0  0  0
 11100  1  0  0  0
 12 13  2  0  0  0
 12101  1  0  0  0
 13 14  1  0  0  0
 13 31  1  0  0  0
 14 15  2  0  0  0
 14102  1  0  0  0
 15103  1  0  0  0
 16 17  2  0  0  0
 16 21  1  0  0  0
 16 31  1  0  0  0
 17 18  1  0  0  0
 17104  1  0  0  0
 18 19  2  0  0  0
 18105  1  0  0  0
 19 20  1  0  0  0
 19 24  1  0  0  0
 20 21  2  0  0  0
 20106  1  0  0  0
 21 23  1  0  0  0
 22 28  1  0  0  0
 22 32  2  0  0  0
 26 27  1  0  0  0
 28107  1  0  0  0
 28108  1  0  0  0
 29109  1  0  0  0
 29110  1  0  0  0
 33 34  1  0  0  0
 33 66  1  0  0  0
 33 70  2  0  0  0
 34 36  1  0  0  0
 34 59  1  0  0  0
 34111  1  0  0  0
 35 44  2  0  0  0
 35 45  1  0  0  0
 35 68  1  0  0  0
 36 56  1  0  0  0
 36112  1  0  0  0
 37 39  1  0  0  0
 37 47  1  0  0  0
 37 66  1  0  0  0
 37113  1  0  0  0
 38 43  2  0  0  0
 38 46  1  0  0  0
 38 47  1  0  0  0
 39 64  1  0  0  0
 39 67  2  0  0  0
 40 52  1  0  0  0
 40 53  2  0  0  0
 40 58  1  0  0  0
 41114  1  0  0  0
 41115  1  0  0  0
 41116  1  0  0  0
 41 48  1  0  0  0
 42 43  1  0  0  0
 42 66  1  0  0  0
 42117  1  0  0  0
 42118  1  0  0  0
 43 44  1  0  0  0
 44119  1  0  0  0
 45 46  2  0  0  0
 45120  1  0  0  0
 46121  1  0  0  0
 47122  1  0  0  0
 47123  1  0  0  0
 48 56  1  0  0  0
 48 65  1  0  0  0
 48124  1  0  0  0
 49 50  1  0  0  0
 49 53  1  0  0  0
 49 64  1  0  0  0
 49125  1  0  0  0
 50 51  1  0  0  0
 50126  1  0  0  0
 50127  1  0  0  0
 51 52  1  0  0  0
 51128  1  0  0  0
 51129  1  0  0  0
 52130  1  0  0  0
 52131  1  0  0  0
 53 54  1  0  0  0
 54 55  2  0  0  0
 54132  1  0  0  0
 55 57  1  0  0  0
 55133  1  0  0  0
 56 69  2  0  0  0
 57 58  2  0  0  0
 57134  1  0  0  0
 58135  1  0  0  0
 59 60  1  0  0  0
 59 61  1  0  0  0
 59 62  1  0  0  0
 60136  1  0  0  0
 60137  1  0  0  0
 60138  1  0  0  0
 61139  1  0  0  0
 61140  1  0  0  0
 61141  1  0  0  0
 62142  1  0  0  0
 62143  1  0  0  0
 62144  1  0  0  0
 63 65  1  0  0  0
 63145  1  0  0  0
 63146  1  0  0  0
 63147  1  0  0  0
 64148  1  0  0  0
 65149  1  0  0  0
 68 86  1  0  0  0
 71 72  1  0  0  0
 71 73  2  0  0  0
 71150  1  0  0  0
 72 74  2  0  0  0
 72 90  1  0  0  0
 73 87  1  0  0  0
 73 79  1  0  0  0
 74 83  1  0  0  0
 74 87  1  0  0  0
 75 77  1  0  0  0
 75 79  1  0  0  0
 75151  1  0  0  0
 75152  1  0  0  0
 76 78  1  0  0  0
 76 79  1  0  0  0
 76153  1  0  0  0
 76154  1  0  0  0
 77 89  1  0  0  0
 77155  1  0  0  0
 77156  1  0  0  0
 78 89  1  0  0  0
 78157  1  0  0  0
 78158  1  0  0  0
 79159  1  0  0  0
 80 84  1  0  0  0
 80160  1  0  0  0
 80161  1  0  0  0
 80162  1  0  0  0
 81163  1  0  0  0
 81164  1  0  0  0
 81165  1  0  0  0
 81 86  1  0  0  0
 82 90  1  0  0  0
 82166  1  0  0  0
 82167  1  0  0  0
 82168  1  0  0  0
 83 88  1  0  0  0
 83169  1  0  0  0
 83170  1  0  0  0
 84 87  1  0  0  0
 84171  1  0  0  0
 84172  1  0  0  0
 85 86  1  0  0  0
 85173  1  0  0  0
 85174  1  0  0  0
 85 89  1  0  0  0
 86175  1  0  0  0
 88176  1  0  0  0
 89177  1  0  0  0
M  CHG  1  89   1
M  ISO  4   1 100  68 101  86 101  88 100
M  END
> <chiral flag>
0

> <version>
0

> <s_m_source_file>
/data/baiqing/PycharmProjects/Reinvent-master-3.2/result/LINK_invent/BTK/process_docking_weight1_custom_sum_contain_oxygen_bond_distance_aromatic_linkinvent_7_9_3/rearranged_h_0158.sdf

> <i_m_source_file_index>
52

> <r_mmod_Potential_Energy-OPLS-2005>
-153.183471679688

> <r_mmod_Stretch_Energy-OPLS-2005>
39.20751953125

> <r_mmod_Bend_Energy-OPLS-2005>
121.242782592773

> <r_mmod_Torsional_Energy-OPLS-2005>
315.3642578125

> <r_mmod_Improper_Torsional_Energy-OPLS-2005>
3.50983929634094

> <r_mmod_Van_der_Waal_Energy-OPLS-2005>
137.254745483398

> <r_mmod_Electrostatic_Energy-OPLS-2005>
-345.356384277344

> <r_mmod_Solvation_Energy-OPLS-2005>
-433.523193359375

> <b_mmod_Minimization_Converged-OPLS-2005>
0

> <r_mmod_RMS_Derivative-OPLS-2005>
3.47629857063293

$$$$
52
                    3D
 Structure written by MMmdl.
157166  0  0  1  0            999 V2000
  -30.4356  -15.4744   20.3205 C   0  0  0  0  0  0
  -30.4181  -12.9700   19.4983 C   0  0  0  0  0  0
  -29.5293  -12.5951   18.2859 C   0  0  0  0  0  0
  -28.0926  -12.2850   18.7341 C   0  0  0  0  0  0
  -27.5956  -13.2943   19.7958 C   0  0  2  0  0  0
  -28.6299  -13.6005   20.9043 C   0  0  0  0  0  0
  -25.2369  -13.8294   20.5785 C   0  0  0  0  0  0
  -24.1736  -13.0467   20.9289 C   0  0  0  0  0  0
  -24.6412  -11.6959   20.8792 C   0  0  0  0  0  0
  -23.9139  -10.4290   21.0386 C   0  0  0  0  0  0
  -24.3656   -9.4197   21.9164 C   0  0  0  0  0  0
  -23.6312   -8.2247   22.0756 C   0  0  0  0  0  0
  -22.4301   -8.0287   21.3549 C   0  0  0  0  0  0
  -21.9952   -9.0263   20.4651 C   0  0  0  0  0  0
  -22.7303  -10.2131   20.3042 C   0  0  0  0  0  0
  -21.6847   -6.0751   22.5281 C   0  0  0  0  0  0
  -21.4012   -6.5663   23.8223 C   0  0  0  0  0  0
  -21.3660   -5.6804   24.9184 C   0  0  0  0  0  0
  -21.6031   -4.3064   24.7216 C   0  0  0  0  0  0
  -21.8817   -3.8161   23.4342 C   0  0  0  0  0  0
  -21.9197   -4.6980   22.3400 C   0  0  0  0  0  0
  -22.7740  -13.5182   21.1900 C   0  0  0  0  0  0
  -22.1640   -4.2162   21.0973 F   0  0  0  0  0  0
  -21.5635   -3.4544   25.7740 F   0  0  0  0  0  0
  -29.8158  -14.1709   20.2264 N   0  0  0  0  0  0
  -26.2789  -12.9582   20.3174 N   0  0  0  0  0  0
  -25.9352  -11.6680   20.5691 N   0  0  0  0  0  0
  -22.0403  -12.8157   22.0450 N   0  0  0  0  0  0
  -25.4057  -15.2000   20.4245 N   0  0  0  0  0  0
  -31.6630  -15.3214   20.1779 O   0  0  0  0  0  0
  -21.6645   -6.8890   21.4251 O   0  0  0  0  0  0
  -22.3403  -14.5465   20.6707 O   0  0  0  0  0  0
  -24.6749  -31.8111   23.1604 C   0  0  0  0  0  0
  -25.9375  -32.4512   23.8107 C   0  0  1  0  0  0
  -27.2108  -26.8063   20.1794 C   0  0  0  0  0  0
  -25.6047  -33.8344   24.2004 N   0  0  0  0  0  0
  -23.4953  -30.4231   21.5108 C   0  0  2  0  0  0
  -24.9452  -28.7895   20.1108 C   0  0  0  0  0  0
  -22.7724  -29.4408   22.4723 C   0  0  0  0  0  0
  -18.0332  -28.1447   22.8466 C   0  0  0  0  0  0
  -24.1467  -36.7131   23.2659 C   0  0  0  0  0  0
  -26.0722  -30.5808   21.4060 C   0  0  0  0  0  0
  -26.1349  -29.1585   20.7510 C   0  0  0  0  0  0
  -27.2617  -28.1933   20.7499 C   0  0  0  0  0  0
  -25.9860  -26.6233   19.4966 C   0  0  0  0  0  0
  -24.9025  -27.5451   19.4627 C   0  0  0  0  0  0
  -23.7417  -29.7367   20.1404 C   0  0  0  0  0  0
  -25.4114  -36.2910   24.0299 C   0  0  1  0  0  0
  -20.5966  -28.3790   23.1163 C   0  0  2  0  0  0
  -20.6817  -26.9477   22.5387 C   0  0  0  0  0  0
  -19.5786  -26.6391   21.5222 C   0  0  0  0  0  0
  -18.1959  -26.7974   22.1605 C   0  0  0  0  0  0
  -19.1606  -28.8927   23.2787 C   0  0  0  0  0  0
  -18.9519  -30.1508   23.8825 C   0  0  0  0  0  0
  -17.6515  -30.6620   24.0561 C   0  0  0  0  0  0
  -25.9107  -34.9316   23.4949 C   0  0  0  0  0  0
  -16.5398  -29.9118   23.6376 C   0  0  0  0  0  0
  -16.7310  -28.6552   23.0367 C   0  0  0  0  0  0
  -26.4614  -31.6508   25.0654 C   0  0  0  0  0  0
  -25.3724  -31.3839   26.1288 C   0  0  0  0  0  0
  -27.0530  -30.2848   24.6511 C   0  0  0  0  0  0
  -27.6038  -32.4388   25.7476 C   0  0  0  0  0  0
  -27.5518  -37.1731   24.8486 C   0  0  0  0  0  0
  -21.4373  -29.3064   22.3493 N   0  0  0  0  0  0
  -26.4223  -37.3669   23.9454 N   0  0  0  0  0  0
  -24.7702  -30.9699   22.0775 N   0  0  0  0  0  0
  -23.4227  -28.7990   23.3007 O   0  0  0  0  0  0
  -28.1836  -25.6280   20.2004 O   0  0  0  0  0  0
  -26.5675  -34.8879   22.4523 O   0  0  0  0  0  0
  -23.5782  -32.1133   23.6625 O   0  0  0  0  0  0
  -28.3387  -20.9731   20.6380 C   0  0  0  0  0  0
  -28.9943  -19.5980   20.3843 C   0  0  0  0  0  0
  -30.0697  -19.5603   19.5392 C   0  0  0  0  0  0
  -28.6919  -22.3654   20.0730 C   0  0  0  0  0  0
  -30.4595  -20.8202   18.9208 C   0  0  0  0  0  0
  -29.7890  -22.1291   19.1477 C   0  0  0  0  0  0
  -28.8409  -17.9649   20.7939 C   0  0  0  0  0  0
  -30.6458  -18.0447   19.4151 C   0  0  0  0  0  0
  -31.6353  -20.7540   17.9409 C   0  0  0  0  0  0
  -30.2002  -23.3453   18.2982 C   0  0  0  0  0  0
  -27.8349  -23.9605   20.2507 C   0  0  0  0  0  0
  -29.8786  -16.9040   20.1468 N   0  0  0  0  0  0
  -30.9356  -24.3579   19.0677 N   0  3  0  0  0  0
  -31.4160  -13.1876   19.1160 H   0  0  0  0  0  0
  -30.5482  -12.1177   20.1667 H   0  0  0  0  0  0
  -29.9486  -11.7379   17.7558 H   0  0  0  0  0  0
  -29.5121  -13.4233   17.5770 H   0  0  0  0  0  0
  -28.0912  -11.2795   19.1569 H   0  0  0  0  0  0
  -27.4184  -12.2546   17.8766 H   0  0  0  0  0  0
  -27.4676  -14.2193   19.2308 H   0  0  0  0  0  0
  -28.8651  -12.7149   21.4978 H   0  0  0  0  0  0
  -28.2287  -14.3453   21.5935 H   0  0  0  0  0  0
  -25.2779   -9.5700   22.4756 H   0  0  0  0  0  0
  -24.0026   -7.4642   22.7488 H   0  0  0  0  0  0
  -21.0881   -8.8787   19.8931 H   0  0  0  0  0  0
  -22.3747  -10.9678   19.6163 H   0  0  0  0  0  0
  -21.1987   -7.6173   23.9723 H   0  0  0  0  0  0
  -21.1470   -6.0531   25.9084 H   0  0  0  0  0  0
  -22.0584   -2.7627   23.2824 H   0  0  0  0  0  0
  -22.4048  -11.9813   22.4773 H   0  0  0  0  0  0
  -21.1010  -13.1124   22.2654 H   0  0  0  0  0  0
  -24.6489  -15.8654   20.5447 H   0  0  0  0  0  0
  -26.2634  -15.6324   20.1040 H   0  0  0  0  0  0
  -26.7410  -32.4986   23.0789 H   0  0  0  0  0  0
  -25.0372  -33.9469   25.0274 H   0  0  0  0  0  0
  -22.8151  -31.2588   21.3317 H   0  0  0  0  0  0
  -23.3745  -35.9441   23.3301 H   0  0  0  0  0  0
  -24.3582  -36.8790   22.2080 H   0  0  0  0  0  0
  -23.7184  -37.6300   23.6723 H   0  0  0  0  0  0
  -26.2669  -31.3168   20.6252 H   0  0  0  0  0  0
  -26.9248  -30.6416   22.0705 H   0  0  0  0  0  0
  -28.1618  -28.4878   21.2681 H   0  0  0  0  0  0
  -25.8298  -25.6837   18.9882 H   0  0  0  0  0  0
  -24.0033  -27.2561   18.9362 H   0  0  0  0  0  0
  -23.9175  -30.5045   19.3872 H   0  0  0  0  0  0
  -22.8494  -29.2046   19.8095 H   0  0  0  0  0  0
  -25.1327  -36.1660   25.0782 H   0  0  0  0  0  0
  -21.0028  -28.3372   24.1296 H   0  0  0  0  0  0
  -20.5720  -26.2431   23.3642 H   0  0  0  0  0  0
  -21.6677  -26.7470   22.1180 H   0  0  0  0  0  0
  -19.6965  -25.6288   21.1304 H   0  0  0  0  0  0
  -19.6722  -27.3163   20.6731 H   0  0  0  0  0  0
  -17.4245  -26.6723   21.3990 H   0  0  0  0  0  0
  -18.0314  -26.0139   22.9010 H   0  0  0  0  0  0
  -19.7999  -30.7338   24.2138 H   0  0  0  0  0  0
  -17.5096  -31.6306   24.5164 H   0  0  0  0  0  0
  -15.5404  -30.3007   23.7789 H   0  0  0  0  0  0
  -15.8694  -28.0868   22.7100 H   0  0  0  0  0  0
  -24.5883  -30.7219   25.7613 H   0  0  0  0  0  0
  -24.8941  -32.3065   26.4569 H   0  0  0  0  0  0
  -25.7920  -30.9090   27.0156 H   0  0  0  0  0  0
  -26.3219  -29.6471   24.1509 H   0  0  0  0  0  0
  -27.4006  -29.7294   25.5240 H   0  0  0  0  0  0
  -27.9209  -30.4004   24.0006 H   0  0  0  0  0  0
  -27.2526  -33.3776   26.1801 H   0  0  0  0  0  0
  -28.3977  -32.6818   25.0390 H   0  0  0  0  0  0
  -28.0556  -31.8668   26.5597 H   0  0  0  0  0  0
  -28.2518  -38.0032   24.7505 H   0  0  0  0  0  0
  -28.0992  -36.2554   24.6304 H   0  0  0  0  0  0
  -27.2273  -37.1384   25.8898 H   0  0  0  0  0  0
  -20.9619  -29.8772   21.6640 H   0  0  0  0  0  0
  -26.0017  -38.2700   24.1486 H   0  0  0  0  0  0
  -27.4814  -20.9591   21.2963 H   0  0  0  0  0  0
  -27.8360  -17.6382   20.5200 H   0  0  0  0  0  0
  -28.9001  -17.8689   21.8800 H   0  0  0  0  0  0
  -31.6689  -18.0506   19.7959 H   0  0  0  0  0  0
  -30.7111  -17.7811   18.3575 H   0  0  0  0  0  0
  -32.1515  -19.7952   17.9603 H   0  0  0  0  0  0
  -32.3864  -21.5094   18.1716 H   0  0  0  0  0  0
  -31.3097  -20.9074   16.9109 H   0  0  0  0  0  0
  -29.3075  -23.8053   17.8734 H   0  0  0  0  0  0
  -30.7931  -23.0737   17.4275 H   0  0  0  0  0  0
  -27.3433  -23.8629   21.2199 H   0  0  0  0  0  0
  -27.0174  -23.8497   19.5392 H   0  0  0  0  0  0
  -30.3307  -24.7742   19.7532 H   0  0  0  0  0  0
  -31.2568  -25.0816   18.4468 H   0  0  0  0  0  0
  -31.7291  -23.9498   19.5248 H   0  0  0  0  0  0
  1 25  1  0  0  0
  1 30  2  0  0  0
  1 82  1  0  0  0
  2  3  1  0  0  0
  2 25  1  0  0  0
  2 84  1  0  0  0
  2 85  1  0  0  0
  3  4  1  0  0  0
  3 86  1  0  0  0
  3 87  1  0  0  0
  4  5  1  0  0  0
  4 88  1  0  0  0
  4 89  1  0  0  0
  5  6  1  0  0  0
  5 26  1  0  0  0
  5 90  1  0  0  0
  6 25  1  0  0  0
  6 91  1  0  0  0
  6 92  1  0  0  0
  7  8  2  0  0  0
  7 26  1  0  0  0
  7 29  1  0  0  0
  8  9  1  0  0  0
  8 22  1  0  0  0
  9 10  1  0  0  0
  9 27  2  0  0  0
 10 11  2  0  0  0
 10 15  1  0  0  0
 11 12  1  0  0  0
 11 93  1  0  0  0
 12 13  2  0  0  0
 12 94  1  0  0  0
 13 14  1  0  0  0
 13 31  1  0  0  0
 14 15  2  0  0  0
 14 95  1  0  0  0
 15 96  1  0  0  0
 16 17  2  0  0  0
 16 21  1  0  0  0
 16 31  1  0  0  0
 17 18  1  0  0  0
 17 97  1  0  0  0
 18 19  2  0  0  0
 18 98  1  0  0  0
 19 20  1  0  0  0
 19 24  1  0  0  0
 20 21  2  0  0  0
 20 99  1  0  0  0
 21 23  1  0  0  0
 22 28  1  0  0  0
 22 32  2  0  0  0
 26 27  1  0  0  0
 28100  1  0  0  0
 28101  1  0  0  0
 29102  1  0  0  0
 29103  1  0  0  0
 33 34  1  0  0  0
 33 66  1  0  0  0
 33 70  2  0  0  0
 34 36  1  0  0  0
 34 59  1  0  0  0
 34104  1  0  0  0
 35 44  2  0  0  0
 35 45  1  0  0  0
 35 68  1  0  0  0
 36 56  1  0  0  0
 36105  1  0  0  0
 37 39  1  0  0  0
 37 47  1  0  0  0
 37 66  1  0  0  0
 37106  1  0  0  0
 38 43  2  0  0  0
 38 46  1  0  0  0
 38 47  1  0  0  0
 39 64  1  0  0  0
 39 67  2  0  0  0
 40 52  1  0  0  0
 40 53  2  0  0  0
 40 58  1  0  0  0
 41107  1  0  0  0
 41108  1  0  0  0
 41109  1  0  0  0
 41 48  1  0  0  0
 42 43  1  0  0  0
 42 66  1  0  0  0
 42110  1  0  0  0
 42111  1  0  0  0
 43 44  1  0  0  0
 44112  1  0  0  0
 45 46  2  0  0  0
 45113  1  0  0  0
 46114  1  0  0  0
 47115  1  0  0  0
 47116  1  0  0  0
 48 56  1  0  0  0
 48 65  1  0  0  0
 48117  1  0  0  0
 49 50  1  0  0  0
 49 53  1  0  0  0
 49 64  1  0  0  0
 49118  1  0  0  0
 50 51  1  0  0  0
 50119  1  0  0  0
 50120  1  0  0  0
 51 52  1  0  0  0
 51121  1  0  0  0
 51122  1  0  0  0
 52123  1  0  0  0
 52124  1  0  0  0
 53 54  1  0  0  0
 54 55  2  0  0  0
 54125  1  0  0  0
 55 57  1  0  0  0
 55126  1  0  0  0
 56 69  2  0  0  0
 57 58  2  0  0  0
 57127  1  0  0  0
 58128  1  0  0  0
 59 60  1  0  0  0
 59 61  1  0  0  0
 59 62  1  0  0  0
 60129  1  0  0  0
 60130  1  0  0  0
 60131  1  0  0  0
 61132  1  0  0  0
 61133  1  0  0  0
 61134  1  0  0  0
 62135  1  0  0  0
 62136  1  0  0  0
 62137  1  0  0  0
 63 65  1  0  0  0
 63138  1  0  0  0
 63139  1  0  0  0
 63140  1  0  0  0
 64141  1  0  0  0
 65142  1  0  0  0
 68 81  1  0  0  0
 71 72  2  0  0  0
 71 74  1  0  0  0
 71143  1  0  0  0
 72 73  1  0  0  0
 72 77  1  0  0  0
 73 75  2  0  0  0
 73 78  1  0  0  0
 74 76  2  0  0  0
 74 81  1  0  0  0
 75 76  1  0  0  0
 75 79  1  0  0  0
 76 80  1  0  0  0
 77 82  1  0  0  0
 77144  1  0  0  0
 77145  1  0  0  0
 78 82  1  0  0  0
 78146  1  0  0  0
 78147  1  0  0  0
 79148  1  0  0  0
 79149  1  0  0  0
 79150  1  0  0  0
 80 83  1  0  0  0
 80151  1  0  0  0
 80152  1  0  0  0
 81153  1  0  0  0
 81154  1  0  0  0
 83155  1  0  0  0
 83156  1  0  0  0
 83157  1  0  0  0
M  CHG  1  83   1
M  ISO  4   1 100  68 101  81 101  82 100
M  END
> <chiral flag>
0

> <version>
0

> <s_m_source_file>
/data/baiqing/PycharmProjects/Reinvent-master-3.2/result/LINK_invent/BTK/process_docking_weight1_custom_sum_contain_oxygen_bond_distance_aromatic_linkinvent_7_9_3/rearranged_h_0158.sdf

> <i_m_source_file_index>
53

> <r_mmod_Potential_Energy-OPLS-2005>
1535.10070800781

> <r_mmod_Stretch_Energy-OPLS-2005>
723.050476074219

> <r_mmod_Bend_Energy-OPLS-2005>
561.64453125

> <r_mmod_Torsional_Energy-OPLS-2005>
258.499206542969

> <r_mmod_Improper_Torsional_Energy-OPLS-2005>
16.3622398376465

> <r_mmod_Van_der_Waal_Energy-OPLS-2005>
125.539199829102

> <r_mmod_Electrostatic_Energy-OPLS-2005>
-354.132904052734

> <r_mmod_Solvation_Energy-OPLS-2005>
-472.476165771484

> <b_mmod_Minimization_Converged-OPLS-2005>
0

> <r_mmod_RMS_Derivative-OPLS-2005>
4.97004890441895

$$$$
53
                    3D
 Structure written by MMmdl.
163172  0  0  1  0            999 V2000
  -30.6178  -14.7955   20.4521 C   0  0  0  0  0  0
  -30.4206  -12.4920   19.4794 C   0  0  0  0  0  0
  -29.5083  -12.5243   18.2348 C   0  0  0  0  0  0
  -28.0323  -12.3489   18.6407 C   0  0  0  0  0  0
  -27.6328  -13.2451   19.8435 C   0  0  2  0  0  0
  -28.6776  -13.1986   20.9786 C   0  0  0  0  0  0
  -25.2461  -13.8200   20.5707 C   0  0  0  0  0  0
  -24.1768  -13.0442   20.9222 C   0  0  0  0  0  0
  -24.6370  -11.6921   20.8748 C   0  0  0  0  0  0
  -23.9050  -10.4286   21.0405 C   0  0  0  0  0  0
  -24.3600   -9.4212   21.9184 C   0  0  0  0  0  0
  -23.6281   -8.2241   22.0756 C   0  0  0  0  0  0
  -22.4264   -8.0267   21.3540 C   0  0  0  0  0  0
  -21.9886   -9.0240   20.4655 C   0  0  0  0  0  0
  -22.7214  -10.2117   20.3059 C   0  0  0  0  0  0
  -21.6850   -6.0718   22.5272 C   0  0  0  0  0  0
  -21.4019   -6.5624   23.8206 C   0  0  0  0  0  0
  -21.3666   -5.6778   24.9171 C   0  0  0  0  0  0
  -21.6037   -4.3036   24.7221 C   0  0  0  0  0  0
  -21.8820   -3.8137   23.4347 C   0  0  0  0  0  0
  -21.9200   -4.6949   22.3398 C   0  0  0  0  0  0
  -22.7800  -13.5236   21.1875 C   0  0  0  0  0  0
  -22.1673   -4.2147   21.0978 F   0  0  0  0  0  0
  -21.5632   -3.4517   25.7732 F   0  0  0  0  0  0
  -29.9647  -13.5763   20.3861 N   0  0  0  0  0  0
  -26.2893  -12.9444   20.3249 N   0  0  0  0  0  0
  -25.9303  -11.6571   20.5708 N   0  0  0  0  0  0
  -22.0424  -12.8244   22.0426 N   0  0  0  0  0  0
  -25.4103  -15.1921   20.4148 N   0  0  0  0  0  0
  -31.8183  -14.8126   20.1567 O   0  0  0  0  0  0
  -21.6641   -6.8856   21.4231 O   0  0  0  0  0  0
  -22.3492  -14.5545   20.6722 O   0  0  0  0  0  0
  -24.6345  -31.8523   23.1953 C   0  0  0  0  0  0
  -25.9148  -32.4739   23.8315 C   0  0  1  0  0  0
  -27.2108  -27.2297   20.1440 C   0  0  0  0  0  0
  -25.5918  -33.8543   24.2231 N   0  0  0  0  0  0
  -23.4340  -30.4739   21.5397 C   0  0  2  0  0  0
  -24.8818  -28.9142   20.1125 C   0  0  0  0  0  0
  -22.7519  -29.4589   22.4894 C   0  0  0  0  0  0
  -18.0293  -28.1388   22.8487 C   0  0  0  0  0  0
  -24.1481  -36.7279   23.2642 C   0  0  0  0  0  0
  -25.9824  -30.7557   21.3796 C   0  0  0  0  0  0
  -26.0566  -29.3745   20.7239 C   0  0  0  0  0  0
  -27.2295  -28.5473   20.7249 C   0  0  0  0  0  0
  -26.0186  -26.8439   19.5014 C   0  0  0  0  0  0
  -24.8695  -27.6565   19.4885 C   0  0  0  0  0  0
  -23.6552  -29.8068   20.1569 C   0  0  0  0  0  0
  -25.4105  -36.3061   24.0327 C   0  0  1  0  0  0
  -20.5903  -28.3700   23.1256 C   0  0  2  0  0  0
  -20.6770  -26.9409   22.5410 C   0  0  0  0  0  0
  -19.5744  -26.6379   21.5214 C   0  0  0  0  0  0
  -18.1926  -26.7928   22.1630 C   0  0  0  0  0  0
  -19.1550  -28.8859   23.2868 C   0  0  0  0  0  0
  -18.9470  -30.1457   23.8893 C   0  0  0  0  0  0
  -17.6467  -30.6591   24.0560 C   0  0  0  0  0  0
  -25.9059  -34.9430   23.5088 C   0  0  0  0  0  0
  -16.5356  -29.9090   23.6333 C   0  0  0  0  0  0
  -16.7276  -28.6506   23.0357 C   0  0  0  0  0  0
  -26.4486  -31.6580   25.0726 C   0  0  0  0  0  0
  -25.3687  -31.3762   26.1437 C   0  0  0  0  0  0
  -27.0332  -30.2980   24.6256 C   0  0  0  0  0  0
  -27.6036  -32.4328   25.7506 C   0  0  0  0  0  0
  -27.5575  -37.1786   24.8456 C   0  0  0  0  0  0
  -21.4224  -29.3045   22.3645 N   0  0  0  0  0  0
  -26.4278  -37.3763   23.9420 N   0  0  0  0  0  0
  -24.7029  -31.0463   22.0944 N   0  0  0  0  0  0
  -23.4201  -28.8119   23.3009 O   0  0  0  0  0  0
  -28.2521  -26.2696   20.1583 O   0  0  0  0  0  0
  -26.5651  -34.8918   22.4676 O   0  0  0  0  0  0
  -23.5483  -32.1360   23.7227 O   0  0  0  0  0  0
  -29.1797  -22.9619   19.7769 C   0  0  0  0  0  0
  -29.4491  -21.5409   19.6708 C   0  0  0  0  0  0
  -28.1331  -21.1312   21.5913 C   0  0  0  0  0  0
  -28.3679  -23.5323   20.8048 C   0  0  0  0  0  0
  -28.9419  -20.5441   20.5743 C   0  0  0  0  0  0
  -27.8562  -22.5465   21.7190 C   0  0  0  0  0  0
  -30.2952  -18.5409   19.6736 C   0  0  0  0  0  0
  -28.9149  -18.1522   21.6011 C   0  0  0  0  0  0
  -30.1648  -17.0110   19.2812 C   0  0  0  0  0  0
  -28.8900  -16.5779   21.2939 C   0  0  0  0  0  0
  -28.9493  -25.5422   22.3082 C   0  0  0  0  0  0
  -26.9208  -22.2292   23.9209 C   0  0  0  0  0  0
  -28.0921  -25.1080   21.1072 C   0  0  1  0  0  0
  -29.1876  -19.0897   20.4780 N   0  0  0  0  0  0
  -29.8988  -16.0040   20.3573 N   0  0  0  0  0  0
  -27.0766  -23.0285   22.7529 O   0  0  0  0  0  0
  -31.4653  -12.6029   19.1814 H   0  0  0  0  0  0
  -30.3577  -11.5230   19.9761 H   0  0  0  0  0  0
  -29.7990  -11.7456   17.5284 H   0  0  0  0  0  0
  -29.6347  -13.4754   17.7145 H   0  0  0  0  0  0
  -27.8792  -11.2983   18.8932 H   0  0  0  0  0  0
  -27.3836  -12.5562   17.7889 H   0  0  0  0  0  0
  -27.6195  -14.2642   19.4559 H   0  0  0  0  0  0
  -28.7300  -12.2012   21.4186 H   0  0  0  0  0  0
  -28.4013  -13.8741   21.7872 H   0  0  0  0  0  0
  -25.2738   -9.5707   22.4766 H   0  0  0  0  0  0
  -23.9990   -7.4635   22.7476 H   0  0  0  0  0  0
  -21.0806   -8.8764   19.8958 H   0  0  0  0  0  0
  -22.3668  -10.9653   19.6175 H   0  0  0  0  0  0
  -21.2005   -7.6128   23.9704 H   0  0  0  0  0  0
  -21.1497   -6.0510   25.9073 H   0  0  0  0  0  0
  -22.0596   -2.7599   23.2843 H   0  0  0  0  0  0
  -22.4021  -11.9909   22.4821 H   0  0  0  0  0  0
  -21.1049  -13.1309   22.2622 H   0  0  0  0  0  0
  -24.6377  -15.8397   20.5244 H   0  0  0  0  0  0
  -26.2516  -15.6308   20.0646 H   0  0  0  0  0  0
  -26.7220  -32.5377   23.1058 H   0  0  0  0  0  0
  -24.9986  -33.9662   25.0324 H   0  0  0  0  0  0
  -22.7317  -31.2955   21.3908 H   0  0  0  0  0  0
  -23.3748  -35.9606   23.3282 H   0  0  0  0  0  0
  -24.3574  -36.8935   22.2062 H   0  0  0  0  0  0
  -23.7227  -37.6470   23.6688 H   0  0  0  0  0  0
  -26.1245  -31.5139   20.6080 H   0  0  0  0  0  0
  -26.8586  -30.8076   22.0146 H   0  0  0  0  0  0
  -28.1304  -28.8925   21.2118 H   0  0  0  0  0  0
  -25.9694  -25.8714   19.0314 H   0  0  0  0  0  0
  -23.9710  -27.2974   19.0051 H   0  0  0  0  0  0
  -23.7839  -30.5819   19.4007 H   0  0  0  0  0  0
  -22.7721  -29.2432   19.8500 H   0  0  0  0  0  0
  -25.1282  -36.1897   25.0817 H   0  0  0  0  0  0
  -20.9992  -28.3285   24.1380 H   0  0  0  0  0  0
  -20.5649  -26.2313   23.3623 H   0  0  0  0  0  0
  -21.6639  -26.7409   22.1220 H   0  0  0  0  0  0
  -19.6893  -25.6284   21.1253 H   0  0  0  0  0  0
  -19.6671  -27.3180   20.6737 H   0  0  0  0  0  0
  -17.4185  -26.6671   21.4041 H   0  0  0  0  0  0
  -18.0321  -26.0077   22.9035 H   0  0  0  0  0  0
  -19.7942  -30.7272   24.2267 H   0  0  0  0  0  0
  -17.5022  -31.6271   24.5154 H   0  0  0  0  0  0
  -15.5353  -30.2987   23.7656 H   0  0  0  0  0  0
  -15.8679  -28.0817   22.7082 H   0  0  0  0  0  0
  -24.5841  -30.7136   25.7760 H   0  0  0  0  0  0
  -24.8893  -32.2948   26.4842 H   0  0  0  0  0  0
  -25.7969  -30.8938   27.0232 H   0  0  0  0  0  0
  -26.2930  -29.6734   24.1240 H   0  0  0  0  0  0
  -27.3933  -29.7247   25.4809 H   0  0  0  0  0  0
  -27.8844  -30.4225   23.9560 H   0  0  0  0  0  0
  -27.2637  -33.3644   26.2049 H   0  0  0  0  0  0
  -28.3860  -32.6868   25.0342 H   0  0  0  0  0  0
  -28.0681  -31.8474   26.5452 H   0  0  0  0  0  0
  -28.2565  -38.0110   24.7541 H   0  0  0  0  0  0
  -28.1096  -36.2643   24.6217 H   0  0  0  0  0  0
  -27.2311  -37.1369   25.8863 H   0  0  0  0  0  0
  -20.9404  -29.8776   21.6859 H   0  0  0  0  0  0
  -26.0148  -38.2833   24.1442 H   0  0  0  0  0  0
  -29.6262  -23.6282   19.0528 H   0  0  0  0  0  0
  -30.0789  -21.2299   18.8508 H   0  0  0  0  0  0
  -27.6932  -20.4595   22.3079 H   0  0  0  0  0  0
  -30.3880  -19.1065   18.7468 H   0  0  0  0  0  0
  -31.2272  -18.6986   20.2170 H   0  0  0  0  0  0
  -29.6659  -18.3401   22.3713 H   0  0  0  0  0  0
  -27.9553  -18.4000   22.0558 H   0  0  0  0  0  0
  -31.0556  -16.7345   18.7155 H   0  0  0  0  0  0
  -29.3448  -16.9181   18.5669 H   0  0  0  0  0  0
  -27.9186  -16.3382   20.8661 H   0  0  0  0  0  0
  -28.9325  -16.0444   22.2439 H   0  0  0  0  0  0
  -28.7843  -24.9049   23.1765 H   0  0  0  0  0  0
  -28.7220  -26.5642   22.6114 H   0  0  0  0  0  0
  -30.0115  -25.4968   22.0647 H   0  0  0  0  0  0
  -26.4420  -22.8190   24.7014 H   0  0  0  0  0  0
  -27.8849  -21.8962   24.3114 H   0  0  0  0  0  0
  -26.2842  -21.3628   23.7372 H   0  0  0  0  0  0
  -27.0502  -25.1359   21.4333 H   0  0  0  0  0  0
  1 25  1  0  0  0
  1 30  2  0  0  0
  1 85  1  0  0  0
  2  3  1  0  0  0
  2 25  1  0  0  0
  2 87  1  0  0  0
  2 88  1  0  0  0
  3  4  1  0  0  0
  3 89  1  0  0  0
  3 90  1  0  0  0
  4  5  1  0  0  0
  4 91  1  0  0  0
  4 92  1  0  0  0
  5  6  1  0  0  0
  5 26  1  0  0  0
  5 93  1  0  0  0
  6 25  1  0  0  0
  6 94  1  0  0  0
  6 95  1  0  0  0
  7  8  2  0  0  0
  7 26  1  0  0  0
  7 29  1  0  0  0
  8  9  1  0  0  0
  8 22  1  0  0  0
  9 10  1  0  0  0
  9 27  2  0  0  0
 10 11  2  0  0  0
 10 15  1  0  0  0
 11 12  1  0  0  0
 11 96  1  0  0  0
 12 13  2  0  0  0
 12 97  1  0  0  0
 13 14  1  0  0  0
 13 31  1  0  0  0
 14 15  2  0  0  0
 14 98  1  0  0  0
 15 99  1  0  0  0
 16 17  2  0  0  0
 16 21  1  0  0  0
 16 31  1  0  0  0
 17 18  1  0  0  0
 17100  1  0  0  0
 18 19  2  0  0  0
 18101  1  0  0  0
 19 20  1  0  0  0
 19 24  1  0  0  0
 20 21  2  0  0  0
 20102  1  0  0  0
 21 23  1  0  0  0
 22 28  1  0  0  0
 22 32  2  0  0  0
 26 27  1  0  0  0
 28103  1  0  0  0
 28104  1  0  0  0
 29105  1  0  0  0
 29106  1  0  0  0
 33 34  1  0  0  0
 33 66  1  0  0  0
 33 70  2  0  0  0
 34 36  1  0  0  0
 34 59  1  0  0  0
 34107  1  0  0  0
 35 44  2  0  0  0
 35 45  1  0  0  0
 35 68  1  0  0  0
 36 56  1  0  0  0
 36108  1  0  0  0
 37 39  1  0  0  0
 37 47  1  0  0  0
 37 66  1  0  0  0
 37109  1  0  0  0
 38 43  2  0  0  0
 38 46  1  0  0  0
 38 47  1  0  0  0
 39 64  1  0  0  0
 39 67  2  0  0  0
 40 52  1  0  0  0
 40 53  2  0  0  0
 40 58  1  0  0  0
 41110  1  0  0  0
 41111  1  0  0  0
 41112  1  0  0  0
 41 48  1  0  0  0
 42 43  1  0  0  0
 42 66  1  0  0  0
 42113  1  0  0  0
 42114  1  0  0  0
 43 44  1  0  0  0
 44115  1  0  0  0
 45 46  2  0  0  0
 45116  1  0  0  0
 46117  1  0  0  0
 47118  1  0  0  0
 47119  1  0  0  0
 48 56  1  0  0  0
 48 65  1  0  0  0
 48120  1  0  0  0
 49 50  1  0  0  0
 49 53  1  0  0  0
 49 64  1  0  0  0
 49121  1  0  0  0
 50 51  1  0  0  0
 50122  1  0  0  0
 50123  1  0  0  0
 51 52  1  0  0  0
 51124  1  0  0  0
 51125  1  0  0  0
 52126  1  0  0  0
 52127  1  0  0  0
 53 54  1  0  0  0
 54 55  2  0  0  0
 54128  1  0  0  0
 55 57  1  0  0  0
 55129  1  0  0  0
 56 69  2  0  0  0
 57 58  2  0  0  0
 57130  1  0  0  0
 58131  1  0  0  0
 59 60  1  0  0  0
 59 61  1  0  0  0
 59 62  1  0  0  0
 60132  1  0  0  0
 60133  1  0  0  0
 60134  1  0  0  0
 61135  1  0  0  0
 61136  1  0  0  0
 61137  1  0  0  0
 62138  1  0  0  0
 62139  1  0  0  0
 62140  1  0  0  0
 63 65  1  0  0  0
 63141  1  0  0  0
 63142  1  0  0  0
 63143  1  0  0  0
 64144  1  0  0  0
 65145  1  0  0  0
 68 83  1  0  0  0
 71 72  2  0  0  0
 71 74  1  0  0  0
 71146  1  0  0  0
 72 75  1  0  0  0
 72147  1  0  0  0
 73 75  2  0  0  0
 73 76  1  0  0  0
 73148  1  0  0  0
 74 76  2  0  0  0
 74 83  1  0  0  0
 75 84  1  0  0  0
 76 86  1  0  0  0
 77 79  1  0  0  0
 77 84  1  0  0  0
 77149  1  0  0  0
 77150  1  0  0  0
 78 80  1  0  0  0
 78 84  1  0  0  0
 78151  1  0  0  0
 78152  1  0  0  0
 79 85  1  0  0  0
 79153  1  0  0  0
 79154  1  0  0  0
 80 85  1  0  0  0
 80155  1  0  0  0
 80156  1  0  0  0
 81157  1  0  0  0
 81158  1  0  0  0
 81159  1  0  0  0
 81 83  1  0  0  0
 82 86  1  0  0  0
 82160  1  0  0  0
 82161  1  0  0  0
 82162  1  0  0  0
 83163  1  0  0  0
M  ISO  4   1 100  68 101  83 101  85 100
M  END
> <chiral flag>
0

> <version>
0

> <s_m_source_file>
/data/baiqing/PycharmProjects/Reinvent-master-3.2/result/LINK_invent/BTK/process_docking_weight1_custom_sum_contain_oxygen_bond_distance_aromatic_linkinvent_7_9_3/rearranged_h_0158.sdf

> <i_m_source_file_index>
54

> <r_mmod_Potential_Energy-OPLS-2005>
475.816711425781

> <r_mmod_Stretch_Energy-OPLS-2005>
141.764862060547

> <r_mmod_Bend_Energy-OPLS-2005>
229.830642700195

> <r_mmod_Torsional_Energy-OPLS-2005>
369.663177490234

> <r_mmod_Improper_Torsional_Energy-OPLS-2005>
18.3899402618408

> <r_mmod_Van_der_Waal_Energy-OPLS-2005>
146.121826171875

> <r_mmod_Electrostatic_Energy-OPLS-2005>
-322.339538574219

> <r_mmod_Solvation_Energy-OPLS-2005>
-218.152435302734

> <b_mmod_Minimization_Converged-OPLS-2005>
0

> <r_mmod_RMS_Derivative-OPLS-2005>
2.48467087745667

$$$$
54
                    3D
 Structure written by MMmdl.
167176  0  0  1  0            999 V2000
  -30.7315  -14.6941   20.4703 C   0  0  0  0  0  0
  -30.4005  -12.4442   19.4581 C   0  0  0  0  0  0
  -29.4889  -12.5000   18.2192 C   0  0  0  0  0  0
  -28.0207  -12.3191   18.6427 C   0  0  0  0  0  0
  -27.6308  -13.2299   19.8389 C   0  0  2  0  0  0
  -28.6853  -13.1940   20.9676 C   0  0  0  0  0  0
  -25.2479  -13.8203   20.5716 C   0  0  0  0  0  0
  -24.1773  -13.0445   20.9214 C   0  0  0  0  0  0
  -24.6363  -11.6922   20.8758 C   0  0  0  0  0  0
  -23.9043  -10.4303   21.0410 C   0  0  0  0  0  0
  -24.3602   -9.4212   21.9174 C   0  0  0  0  0  0
  -23.6288   -8.2240   22.0734 C   0  0  0  0  0  0
  -22.4273   -8.0271   21.3518 C   0  0  0  0  0  0
  -21.9906   -9.0248   20.4629 C   0  0  0  0  0  0
  -22.7222  -10.2134   20.3045 C   0  0  0  0  0  0
  -21.6857   -6.0724   22.5270 C   0  0  0  0  0  0
  -21.4026   -6.5624   23.8207 C   0  0  0  0  0  0
  -21.3664   -5.6769   24.9162 C   0  0  0  0  0  0
  -21.6055   -4.3033   24.7218 C   0  0  0  0  0  0
  -21.8829   -3.8128   23.4338 C   0  0  0  0  0  0
  -21.9199   -4.6948   22.3393 C   0  0  0  0  0  0
  -22.7798  -13.5230   21.1846 C   0  0  0  0  0  0
  -22.1660   -4.2129   21.0973 F   0  0  0  0  0  0
  -21.5626   -3.4524   25.7737 F   0  0  0  0  0  0
  -29.9724  -13.5463   20.3574 N   0  0  0  0  0  0
  -26.2888  -12.9402   20.3279 N   0  0  0  0  0  0
  -25.9296  -11.6549   20.5770 N   0  0  0  0  0  0
  -22.0428  -12.8245   22.0414 N   0  0  0  0  0  0
  -25.4155  -15.1927   20.4151 N   0  0  0  0  0  0
  -31.9387  -14.5798   20.2415 O   0  0  0  0  0  0
  -21.6638   -6.8864   21.4226 O   0  0  0  0  0  0
  -22.3500  -14.5512   20.6637 O   0  0  0  0  0  0
  -24.6274  -31.8589   23.2024 C   0  0  0  0  0  0
  -25.9111  -32.4781   23.8357 C   0  0  1  0  0  0
  -27.2257  -27.2984   20.1227 C   0  0  0  0  0  0
  -25.5913  -33.8577   24.2278 N   0  0  0  0  0  0
  -23.4240  -30.4845   21.5445 C   0  0  2  0  0  0
  -24.8730  -28.9425   20.1119 C   0  0  0  0  0  0
  -22.7482  -29.4632   22.4908 C   0  0  0  0  0  0
  -18.0294  -28.1388   22.8493 C   0  0  0  0  0  0
  -24.1488  -36.7299   23.2642 C   0  0  0  0  0  0
  -25.9689  -30.7855   21.3783 C   0  0  0  0  0  0
  -26.0455  -29.4116   20.7194 C   0  0  0  0  0  0
  -27.2254  -28.6031   20.7140 C   0  0  0  0  0  0
  -26.0285  -26.9005   19.4783 C   0  0  0  0  0  0
  -24.8689  -27.6920   19.4815 C   0  0  0  0  0  0
  -23.6411  -29.8223   20.1602 C   0  0  0  0  0  0
  -25.4112  -36.3090   24.0338 C   0  0  1  0  0  0
  -20.5896  -28.3707   23.1268 C   0  0  2  0  0  0
  -20.6773  -26.9426   22.5403 C   0  0  0  0  0  0
  -19.5746  -26.6392   21.5211 C   0  0  0  0  0  0
  -18.1930  -26.7931   22.1630 C   0  0  0  0  0  0
  -19.1541  -28.8861   23.2881 C   0  0  0  0  0  0
  -18.9465  -30.1456   23.8909 C   0  0  0  0  0  0
  -17.6461  -30.6591   24.0568 C   0  0  0  0  0  0
  -25.9050  -34.9454   23.5117 C   0  0  0  0  0  0
  -16.5356  -29.9092   23.6327 C   0  0  0  0  0  0
  -16.7276  -28.6505   23.0359 C   0  0  0  0  0  0
  -26.4489  -31.6583   25.0720 C   0  0  0  0  0  0
  -25.3716  -31.3730   26.1446 C   0  0  0  0  0  0
  -27.0322  -30.2996   24.6183 C   0  0  0  0  0  0
  -27.6056  -32.4314   25.7475 C   0  0  0  0  0  0
  -27.5584  -37.1800   24.8465 C   0  0  0  0  0  0
  -21.4188  -29.3062   22.3651 N   0  0  0  0  0  0
  -26.4291  -37.3780   23.9412 N   0  0  0  0  0  0
  -24.6927  -31.0586   22.0989 N   0  0  0  0  0  0
  -23.4179  -28.8160   23.2992 O   0  0  0  0  0  0
  -28.3151  -26.4005   20.1896 O   0  0  0  0  0  0
  -26.5625  -34.8922   22.4689 O   0  0  0  0  0  0
  -23.5427  -32.1396   23.7328 O   0  0  0  0  0  0
  -30.5025  -23.1601   17.1859 C   0  0  0  0  0  0
  -30.0105  -23.6988   18.3815 C   0  0  0  0  0  0
  -30.0540  -20.9356   18.0455 C   0  0  0  0  0  0
  -30.4967  -21.7723   17.0045 C   0  0  0  0  0  0
  -29.5023  -22.8861   19.4237 C   0  0  0  0  0  0
  -29.5676  -21.4282   19.2933 C   0  0  0  0  0  0
  -30.8408  -18.5773   20.2451 C   0  0  0  0  0  0
  -28.6518  -18.0618   21.0576 C   0  0  0  0  0  0
  -31.1128  -17.0759   19.9118 C   0  0  0  0  0  0
  -28.8384  -16.5107   20.7676 C   0  0  0  0  0  0
  -29.3800  -19.0240   20.0802 C   0  0  0  0  0  0
  -30.9619  -21.1717   15.6918 C   0  0  0  0  0  0
  -30.0358  -24.1098   21.5949 C   0  0  0  0  0  0
  -27.9628  -24.9484   20.2223 C   0  0  0  0  0  0
  -28.9266  -23.7163   20.6090 C   0  0  1  0  0  0
  -30.2091  -16.0002   20.4525 N   0  0  0  0  0  0
  -29.1892  -20.4896   20.2885 O   0  0  0  0  0  0
  -31.4427  -12.5148   19.1428 H   0  0  0  0  0  0
  -30.3168  -11.4781   19.9593 H   0  0  0  0  0  0
  -29.7727  -11.7272   17.5034 H   0  0  0  0  0  0
  -29.6110  -13.4567   17.7073 H   0  0  0  0  0  0
  -27.8858  -11.2712   18.9172 H   0  0  0  0  0  0
  -27.3588  -12.4981   17.7945 H   0  0  0  0  0  0
  -27.6069  -14.2370   19.4301 H   0  0  0  0  0  0
  -28.7337  -12.2013   21.4168 H   0  0  0  0  0  0
  -28.4272  -13.8665   21.7819 H   0  0  0  0  0  0
  -25.2757   -9.5706   22.4734 H   0  0  0  0  0  0
  -23.9993   -7.4653   22.7483 H   0  0  0  0  0  0
  -21.0814   -8.8771   19.8968 H   0  0  0  0  0  0
  -22.3668  -10.9660   19.6147 H   0  0  0  0  0  0
  -21.2010   -7.6134   23.9701 H   0  0  0  0  0  0
  -21.1477   -6.0495   25.9060 H   0  0  0  0  0  0
  -22.0604   -2.7589   23.2838 H   0  0  0  0  0  0
  -22.4026  -11.9942   22.4883 H   0  0  0  0  0  0
  -21.1028  -13.1268   22.2549 H   0  0  0  0  0  0
  -24.6485  -15.8456   20.5356 H   0  0  0  0  0  0
  -26.2688  -15.6375   20.1039 H   0  0  0  0  0  0
  -26.7173  -32.5450   23.1096 H   0  0  0  0  0  0
  -25.0009  -33.9713   25.0392 H   0  0  0  0  0  0
  -22.7210  -31.3073   21.4007 H   0  0  0  0  0  0
  -23.3755  -35.9627   23.3298 H   0  0  0  0  0  0
  -24.3588  -36.8920   22.2059 H   0  0  0  0  0  0
  -23.7229  -37.6497   23.6663 H   0  0  0  0  0  0
  -26.1023  -31.5496   20.6107 H   0  0  0  0  0  0
  -26.8487  -30.8357   22.0081 H   0  0  0  0  0  0
  -28.1206  -28.9565   21.2067 H   0  0  0  0  0  0
  -25.9466  -25.9538   18.9696 H   0  0  0  0  0  0
  -23.9733  -27.3277   18.9967 H   0  0  0  0  0  0
  -23.7641  -30.6010   19.4066 H   0  0  0  0  0  0
  -22.7616  -29.2523   19.8546 H   0  0  0  0  0  0
  -25.1288  -36.1948   25.0830 H   0  0  0  0  0  0
  -21.0005  -28.3291   24.1381 H   0  0  0  0  0  0
  -20.5685  -26.2314   23.3606 H   0  0  0  0  0  0
  -21.6637  -26.7451   22.1190 H   0  0  0  0  0  0
  -19.6911  -25.6307   21.1233 H   0  0  0  0  0  0
  -19.6676  -27.3206   20.6743 H   0  0  0  0  0  0
  -17.4192  -26.6680   21.4038 H   0  0  0  0  0  0
  -18.0344  -26.0072   22.9030 H   0  0  0  0  0  0
  -19.7939  -30.7267   24.2280 H   0  0  0  0  0  0
  -17.5023  -31.6276   24.5167 H   0  0  0  0  0  0
  -15.5358  -30.3003   23.7645 H   0  0  0  0  0  0
  -15.8674  -28.0829   22.7071 H   0  0  0  0  0  0
  -24.5870  -30.7114   25.7756 H   0  0  0  0  0  0
  -24.8936  -32.2905   26.4888 H   0  0  0  0  0  0
  -25.8025  -30.8871   27.0207 H   0  0  0  0  0  0
  -26.2894  -29.6745   24.1209 H   0  0  0  0  0  0
  -27.4010  -29.7251   25.4688 H   0  0  0  0  0  0
  -27.8774  -30.4267   23.9415 H   0  0  0  0  0  0
  -27.2681  -33.3621   26.2046 H   0  0  0  0  0  0
  -28.3855  -32.6858   25.0287 H   0  0  0  0  0  0
  -28.0738  -31.8441   26.5381 H   0  0  0  0  0  0
  -28.2595  -38.0100   24.7514 H   0  0  0  0  0  0
  -28.1076  -36.2629   24.6280 H   0  0  0  0  0  0
  -27.2302  -37.1443   25.8866 H   0  0  0  0  0  0
  -20.9357  -29.8793   21.6880 H   0  0  0  0  0  0
  -26.0181  -38.2856   24.1411 H   0  0  0  0  0  0
  -30.8632  -23.8188   16.4073 H   0  0  0  0  0  0
  -30.0096  -24.7748   18.4880 H   0  0  0  0  0  0
  -30.1104  -19.8826   17.8288 H   0  0  0  0  0  0
  -31.4966  -19.1938   19.6310 H   0  0  0  0  0  0
  -31.1556  -18.7759   21.2708 H   0  0  0  0  0  0
  -28.9781  -18.2756   22.0760 H   0  0  0  0  0  0
  -27.5859  -18.2942   21.0474 H   0  0  0  0  0  0
  -32.1438  -16.9149   20.2304 H   0  0  0  0  0  0
  -31.1183  -16.9568   18.8271 H   0  0  0  0  0  0
  -28.2183  -16.2790   19.9040 H   0  0  0  0  0  0
  -28.4248  -15.9679   21.6154 H   0  0  0  0  0  0
  -28.9983  -18.7480   19.0974 H   0  0  0  0  0  0
  -31.0475  -21.9321   14.9136 H   0  0  0  0  0  0
  -30.2514  -20.4216   15.3426 H   0  0  0  0  0  0
  -31.9348  -20.6926   15.8044 H   0  0  0  0  0  0
  -30.5601  -23.2235   21.9536 H   0  0  0  0  0  0
  -29.6302  -24.6262   22.4649 H   0  0  0  0  0  0
  -30.7735  -24.7636   21.1284 H   0  0  0  0  0  0
  -27.1365  -24.8777   20.9317 H   0  0  0  0  0  0
  -27.5408  -24.6769   19.2566 H   0  0  0  0  0  0
  -28.2893  -23.0017   21.1318 H   0  0  0  0  0  0
  1 25  1  0  0  0
  1 30  2  0  0  0
  1 86  1  0  0  0
  2  3  1  0  0  0
  2 25  1  0  0  0
  2 88  1  0  0  0
  2 89  1  0  0  0
  3  4  1  0  0  0
  3 90  1  0  0  0
  3 91  1  0  0  0
  4  5  1  0  0  0
  4 92  1  0  0  0
  4 93  1  0  0  0
  5  6  1  0  0  0
  5 26  1  0  0  0
  5 94  1  0  0  0
  6 25  1  0  0  0
  6 95  1  0  0  0
  6 96  1  0  0  0
  7  8  2  0  0  0
  7 26  1  0  0  0
  7 29  1  0  0  0
  8  9  1  0  0  0
  8 22  1  0  0  0
  9 10  1  0  0  0
  9 27  2  0  0  0
 10 11  2  0  0  0
 10 15  1  0  0  0
 11 12  1  0  0  0
 11 97  1  0  0  0
 12 13  2  0  0  0
 12 98  1  0  0  0
 13 14  1  0  0  0
 13 31  1  0  0  0
 14 15  2  0  0  0
 14 99  1  0  0  0
 15100  1  0  0  0
 16 17  2  0  0  0
 16 21  1  0  0  0
 16 31  1  0  0  0
 17 18  1  0  0  0
 17101  1  0  0  0
 18 19  2  0  0  0
 18102  1  0  0  0
 19 20  1  0  0  0
 19 24  1  0  0  0
 20 21  2  0  0  0
 20103  1  0  0  0
 21 23  1  0  0  0
 22 28  1  0  0  0
 22 32  2  0  0  0
 26 27  1  0  0  0
 28104  1  0  0  0
 28105  1  0  0  0
 29106  1  0  0  0
 29107  1  0  0  0
 33 34  1  0  0  0
 33 66  1  0  0  0
 33 70  2  0  0  0
 34 36  1  0  0  0
 34 59  1  0  0  0
 34108  1  0  0  0
 35 44  2  0  0  0
 35 45  1  0  0  0
 35 68  1  0  0  0
 36 56  1  0  0  0
 36109  1  0  0  0
 37 39  1  0  0  0
 37 47  1  0  0  0
 37 66  1  0  0  0
 37110  1  0  0  0
 38 43  2  0  0  0
 38 46  1  0  0  0
 38 47  1  0  0  0
 39 64  1  0  0  0
 39 67  2  0  0  0
 40 52  1  0  0  0
 40 53  2  0  0  0
 40 58  1  0  0  0
 41111  1  0  0  0
 41112  1  0  0  0
 41113  1  0  0  0
 41 48  1  0  0  0
 42 43  1  0  0  0
 42 66  1  0  0  0
 42114  1  0  0  0
 42115  1  0  0  0
 43 44  1  0  0  0
 44116  1  0  0  0
 45 46  2  0  0  0
 45117  1  0  0  0
 46118  1  0  0  0
 47119  1  0  0  0
 47120  1  0  0  0
 48 56  1  0  0  0
 48 65  1  0  0  0
 48121  1  0  0  0
 49 50  1  0  0  0
 49 53  1  0  0  0
 49 64  1  0  0  0
 49122  1  0  0  0
 50 51  1  0  0  0
 50123  1  0  0  0
 50124  1  0  0  0
 51 52  1  0  0  0
 51125  1  0  0  0
 51126  1  0  0  0
 52127  1  0  0  0
 52128  1  0  0  0
 53 54  1  0  0  0
 54 55  2  0  0  0
 54129  1  0  0  0
 55 57  1  0  0  0
 55130  1  0  0  0
 56 69  2  0  0  0
 57 58  2  0  0  0
 57131  1  0  0  0
 58132  1  0  0  0
 59 60  1  0  0  0
 59 61  1  0  0  0
 59 62  1  0  0  0
 60133  1  0  0  0
 60134  1  0  0  0
 60135  1  0  0  0
 61136  1  0  0  0
 61137  1  0  0  0
 61138  1  0  0  0
 62139  1  0  0  0
 62140  1  0  0  0
 62141  1  0  0  0
 63 65  1  0  0  0
 63142  1  0  0  0
 63143  1  0  0  0
 63144  1  0  0  0
 64145  1  0  0  0
 65146  1  0  0  0
 68 84  1  0  0  0
 71 72  2  0  0  0
 71 74  1  0  0  0
 71147  1  0  0  0
 72 75  1  0  0  0
 72148  1  0  0  0
 73 74  2  0  0  0
 73 76  1  0  0  0
 73149  1  0  0  0
 74 82  1  0  0  0
 75 76  2  0  0  0
 75 85  1  0  0  0
 76 87  1  0  0  0
 77 79  1  0  0  0
 77 81  1  0  0  0
 77150  1  0  0  0
 77151  1  0  0  0
 78 80  1  0  0  0
 78 81  1  0  0  0
 78152  1  0  0  0
 78153  1  0  0  0
 79 86  1  0  0  0
 79154  1  0  0  0
 79155  1  0  0  0
 80 86  1  0  0  0
 80156  1  0  0  0
 80157  1  0  0  0
 81 87  1  0  0  0
 81158  1  0  0  0
 82159  1  0  0  0
 82160  1  0  0  0
 82161  1  0  0  0
 83162  1  0  0  0
 83163  1  0  0  0
 83164  1  0  0  0
 83 85  1  0  0  0
 84 85  1  0  0  0
 84165  1  0  0  0
 84166  1  0  0  0
 85167  1  0  0  0
M  ISO  4   1 100  68 101  84 101  86 100
M  END
> <chiral flag>
0

> <version>
0

> <s_m_source_file>
/data/baiqing/PycharmProjects/Reinvent-master-3.2/result/LINK_invent/BTK/process_docking_weight1_custom_sum_contain_oxygen_bond_distance_aromatic_linkinvent_7_9_3/rearranged_h_0158.sdf

> <i_m_source_file_index>
55

> <r_mmod_Potential_Energy-OPLS-2005>
414.021209716797

> <r_mmod_Stretch_Energy-OPLS-2005>
111.539154052734

> <r_mmod_Bend_Energy-OPLS-2005>
221.624923706055

> <r_mmod_Torsional_Energy-OPLS-2005>
312.321014404297

> <r_mmod_Improper_Torsional_Energy-OPLS-2005>
10.2552032470703

> <r_mmod_Van_der_Waal_Energy-OPLS-2005>
171.064117431641

> <r_mmod_Electrostatic_Energy-OPLS-2005>
-290.496643066406

> <r_mmod_Solvation_Energy-OPLS-2005>
-201.139312744141

> <b_mmod_Minimization_Converged-OPLS-2005>
0

> <r_mmod_RMS_Derivative-OPLS-2005>
2.3650541305542

$$$$
55
                    3D
 Structure written by MMmdl.
157166  0  0  1  0            999 V2000
  -30.5437  -14.8380   20.4516 C   0  0  0  0  0  0
  -30.4532  -12.5141   19.4825 C   0  0  0  0  0  0
  -29.5233  -12.5198   18.2464 C   0  0  0  0  0  0
  -28.0513  -12.3220   18.6606 C   0  0  0  0  0  0
  -27.6438  -13.2290   19.8508 C   0  0  2  0  0  0
  -28.6885  -13.1755   20.9877 C   0  0  0  0  0  0
  -25.2525  -13.8181   20.5674 C   0  0  0  0  0  0
  -24.1818  -13.0436   20.9215 C   0  0  0  0  0  0
  -24.6400  -11.6915   20.8755 C   0  0  0  0  0  0
  -23.9062  -10.4299   21.0413 C   0  0  0  0  0  0
  -24.3616   -9.4213   21.9187 C   0  0  0  0  0  0
  -23.6294   -8.2243   22.0751 C   0  0  0  0  0  0
  -22.4276   -8.0282   21.3543 C   0  0  0  0  0  0
  -21.9910   -9.0256   20.4646 C   0  0  0  0  0  0
  -22.7237  -10.2140   20.3060 C   0  0  0  0  0  0
  -21.6852   -6.0737   22.5278 C   0  0  0  0  0  0
  -21.4015   -6.5638   23.8214 C   0  0  0  0  0  0
  -21.3663   -5.6786   24.9174 C   0  0  0  0  0  0
  -21.6045   -4.3049   24.7221 C   0  0  0  0  0  0
  -21.8822   -3.8145   23.4341 C   0  0  0  0  0  0
  -21.9195   -4.6968   22.3401 C   0  0  0  0  0  0
  -22.7839  -13.5227   21.1867 C   0  0  0  0  0  0
  -22.1658   -4.2153   21.0977 F   0  0  0  0  0  0
  -21.5634   -3.4530   25.7735 F   0  0  0  0  0  0
  -29.9820  -13.5722   20.4109 N   0  0  0  0  0  0
  -26.2949  -12.9376   20.3267 N   0  0  0  0  0  0
  -25.9331  -11.6529   20.5753 N   0  0  0  0  0  0
  -22.0469  -12.8237   22.0428 N   0  0  0  0  0  0
  -25.4220  -15.1902   20.4033 N   0  0  0  0  0  0
  -31.7268  -14.9811   20.1252 O   0  0  0  0  0  0
  -21.6641   -6.8878   21.4238 O   0  0  0  0  0  0
  -22.3539  -14.5534   20.6702 O   0  0  0  0  0  0
  -24.6374  -31.8495   23.1926 C   0  0  0  0  0  0
  -25.9170  -32.4727   23.8296 C   0  0  1  0  0  0
  -27.2225  -27.1985   20.1423 C   0  0  0  0  0  0
  -25.5938  -33.8529   24.2215 N   0  0  0  0  0  0
  -23.4384  -30.4707   21.5371 C   0  0  2  0  0  0
  -24.8874  -28.9081   20.1095 C   0  0  0  0  0  0
  -22.7536  -29.4579   22.4879 C   0  0  0  0  0  0
  -18.0303  -28.1392   22.8487 C   0  0  0  0  0  0
  -24.1493  -36.7274   23.2642 C   0  0  0  0  0  0
  -25.9893  -30.7432   21.3822 C   0  0  0  0  0  0
  -26.0621  -29.3602   20.7241 C   0  0  0  0  0  0
  -27.2306  -28.5203   20.7260 C   0  0  0  0  0  0
  -26.0223  -26.8344   19.4892 C   0  0  0  0  0  0
  -24.8769  -27.6559   19.4787 C   0  0  0  0  0  0
  -23.6608  -29.8023   20.1549 C   0  0  0  0  0  0
  -25.4121  -36.3052   24.0322 C   0  0  1  0  0  0
  -20.5913  -28.3712   23.1250 C   0  0  2  0  0  0
  -20.6788  -26.9421   22.5403 C   0  0  0  0  0  0
  -19.5757  -26.6381   21.5215 C   0  0  0  0  0  0
  -18.1941  -26.7932   22.1629 C   0  0  0  0  0  0
  -19.1559  -28.8868   23.2864 C   0  0  0  0  0  0
  -18.9475  -30.1467   23.8886 C   0  0  0  0  0  0
  -17.6473  -30.6590   24.0560 C   0  0  0  0  0  0
  -25.9066  -34.9427   23.5073 C   0  0  0  0  0  0
  -16.5364  -29.9085   23.6335 C   0  0  0  0  0  0
  -16.7288  -28.6502   23.0357 C   0  0  0  0  0  0
  -26.4506  -31.6577   25.0715 C   0  0  0  0  0  0
  -25.3703  -31.3760   26.1423 C   0  0  0  0  0  0
  -27.0359  -30.2980   24.6253 C   0  0  0  0  0  0
  -27.6044  -32.4337   25.7494 C   0  0  0  0  0  0
  -27.5579  -37.1793   24.8464 C   0  0  0  0  0  0
  -21.4236  -29.3048   22.3625 N   0  0  0  0  0  0
  -26.4287  -37.3759   23.9410 N   0  0  0  0  0  0
  -24.7080  -31.0405   22.0932 N   0  0  0  0  0  0
  -23.4201  -28.8120   23.3006 O   0  0  0  0  0  0
  -28.2959  -26.2552   20.2225 O   0  0  0  0  0  0
  -26.5648  -34.8913   22.4650 O   0  0  0  0  0  0
  -23.5505  -32.1344   23.7180 O   0  0  0  0  0  0
  -28.2639  -19.5466   20.4387 C   0  0  0  0  0  0
  -30.6074  -19.7486   20.1920 C   0  0  0  0  0  0
  -28.4194  -18.1219   20.6100 C   0  0  0  0  0  0
  -30.7640  -18.3125   20.3452 C   0  0  0  0  0  0
  -29.3453  -20.4461   20.1948 C   0  0  0  0  0  0
  -29.6649  -17.4178   20.5409 C   0  0  0  0  0  0
  -30.4915  -23.6637   19.8851 C   0  0  0  0  0  0
  -29.1072  -21.9978   19.7152 C   0  0  1  0  0  0
  -29.0560  -23.5155   20.4015 C   0  0  2  0  0  0
  -30.2318  -22.5821   18.8220 C   0  0  1  0  0  0
  -28.0442  -24.7602   19.9981 C   0  0  0  0  0  0
  -29.6787  -15.9135   20.6971 N   0  0  0  0  0  0
  -29.7873  -23.1033   17.5068 N   0  3  0  0  0  0
  -31.4863  -12.6786   19.1724 H   0  0  0  0  0  0
  -30.4404  -11.5409   19.9752 H   0  0  0  0  0  0
  -29.8234  -11.7391   17.5462 H   0  0  0  0  0  0
  -29.6293  -13.4660   17.7138 H   0  0  0  0  0  0
  -27.9265  -11.2746   18.9386 H   0  0  0  0  0  0
  -27.3900  -12.4900   17.8096 H   0  0  0  0  0  0
  -27.6319  -14.2467   19.4605 H   0  0  0  0  0  0
  -28.7483  -12.1726   21.4125 H   0  0  0  0  0  0
  -28.4038  -13.8347   21.8087 H   0  0  0  0  0  0
  -25.2759   -9.5685   22.4761 H   0  0  0  0  0  0
  -24.0005   -7.4633   22.7467 H   0  0  0  0  0  0
  -21.0839   -8.8776   19.8953 H   0  0  0  0  0  0
  -22.3691  -10.9680   19.6171 H   0  0  0  0  0  0
  -21.1998   -7.6143   23.9720 H   0  0  0  0  0  0
  -21.1482   -6.0511   25.9078 H   0  0  0  0  0  0
  -22.0599   -2.7608   23.2838 H   0  0  0  0  0  0
  -22.4062  -11.9892   22.4827 H   0  0  0  0  0  0
  -21.1092  -13.1283   22.2618 H   0  0  0  0  0  0
  -24.6447  -15.8361   20.4872 H   0  0  0  0  0  0
  -26.2431  -15.6125   19.9909 H   0  0  0  0  0  0
  -26.7236  -32.5351   23.1031 H   0  0  0  0  0  0
  -25.0062  -33.9650   25.0345 H   0  0  0  0  0  0
  -22.7388  -31.2957   21.3867 H   0  0  0  0  0  0
  -23.3755  -35.9605   23.3290 H   0  0  0  0  0  0
  -24.3587  -36.8912   22.2059 H   0  0  0  0  0  0
  -23.7241  -37.6468   23.6679 H   0  0  0  0  0  0
  -26.1362  -31.5005   20.6112 H   0  0  0  0  0  0
  -26.8635  -30.7931   22.0196 H   0  0  0  0  0  0
  -28.1253  -28.8605   21.2286 H   0  0  0  0  0  0
  -25.9305  -25.8780   18.9971 H   0  0  0  0  0  0
  -23.9802  -27.3039   18.9876 H   0  0  0  0  0  0
  -23.7897  -30.5777   19.3985 H   0  0  0  0  0  0
  -22.7775  -29.2398   19.8475 H   0  0  0  0  0  0
  -25.1306  -36.1891   25.0813 H   0  0  0  0  0  0
  -21.0014  -28.3296   24.1368 H   0  0  0  0  0  0
  -20.5692  -26.2322   23.3616 H   0  0  0  0  0  0
  -21.6654  -26.7437   22.1194 H   0  0  0  0  0  0
  -19.6918  -25.6288   21.1252 H   0  0  0  0  0  0
  -19.6692  -27.3184   20.6738 H   0  0  0  0  0  0
  -17.4211  -26.6682   21.4032 H   0  0  0  0  0  0
  -18.0341  -26.0077   22.9025 H   0  0  0  0  0  0
  -19.7951  -30.7289   24.2246 H   0  0  0  0  0  0
  -17.5026  -31.6273   24.5158 H   0  0  0  0  0  0
  -15.5363  -30.2980   23.7668 H   0  0  0  0  0  0
  -15.8689  -28.0815   22.7079 H   0  0  0  0  0  0
  -24.5858  -30.7142   25.7740 H   0  0  0  0  0  0
  -24.8926  -32.2946   26.4837 H   0  0  0  0  0  0
  -25.7990  -30.8925   27.0208 H   0  0  0  0  0  0
  -26.2957  -29.6720   24.1258 H   0  0  0  0  0  0
  -27.3987  -29.7265   25.4806 H   0  0  0  0  0  0
  -27.8860  -30.4232   23.9545 H   0  0  0  0  0  0
  -27.2628  -33.3632   26.2062 H   0  0  0  0  0  0
  -28.3853  -32.6912   25.0326 H   0  0  0  0  0  0
  -28.0716  -31.8477   26.5417 H   0  0  0  0  0  0
  -28.2592  -38.0095   24.7515 H   0  0  0  0  0  0
  -28.1079  -36.2626   24.6285 H   0  0  0  0  0  0
  -27.2302  -37.1435   25.8868 H   0  0  0  0  0  0
  -20.9431  -29.8761   21.6818 H   0  0  0  0  0  0
  -26.0162  -38.2830   24.1410 H   0  0  0  0  0  0
  -27.2590  -19.9464   20.4509 H   0  0  0  0  0  0
  -31.5138  -20.3110   20.0242 H   0  0  0  0  0  0
  -27.5178  -17.5490   20.7728 H   0  0  0  0  0  0
  -31.7623  -17.9002   20.2970 H   0  0  0  0  0  0
  -31.2247  -23.3427   20.6279 H   0  0  0  0  0  0
  -30.7434  -24.6533   19.5009 H   0  0  0  0  0  0
  -28.1865  -21.9196   19.1351 H   0  0  0  0  0  0
  -29.0784  -23.4052   21.4861 H   0  0  0  0  0  0
  -31.1008  -21.9406   18.6862 H   0  0  0  0  0  0
  -27.0932  -24.5406   20.4850 H   0  0  0  0  0  0
  -27.8341  -24.6683   18.9332 H   0  0  0  0  0  0
  -28.7722  -15.5508   20.9490 H   0  0  0  0  0  0
  -28.9892  -23.7069   17.5692 H   0  0  0  0  0  0
  -29.5503  -22.3422   16.8950 H   0  0  0  0  0  0
  -30.5300  -23.6133   17.0622 H   0  0  0  0  0  0
  1 25  1  0  0  0
  1 30  2  0  0  0
  1 82  1  0  0  0
  2  3  1  0  0  0
  2 25  1  0  0  0
  2 84  1  0  0  0
  2 85  1  0  0  0
  3  4  1  0  0  0
  3 86  1  0  0  0
  3 87  1  0  0  0
  4  5  1  0  0  0
  4 88  1  0  0  0
  4 89  1  0  0  0
  5  6  1  0  0  0
  5 26  1  0  0  0
  5 90  1  0  0  0
  6 25  1  0  0  0
  6 91  1  0  0  0
  6 92  1  0  0  0
  7  8  2  0  0  0
  7 26  1  0  0  0
  7 29  1  0  0  0
  8  9  1  0  0  0
  8 22  1  0  0  0
  9 10  1  0  0  0
  9 27  2  0  0  0
 10 11  2  0  0  0
 10 15  1  0  0  0
 11 12  1  0  0  0
 11 93  1  0  0  0
 12 13  2  0  0  0
 12 94  1  0  0  0
 13 14  1  0  0  0
 13 31  1  0  0  0
 14 15  2  0  0  0
 14 95  1  0  0  0
 15 96  1  0  0  0
 16 17  2  0  0  0
 16 21  1  0  0  0
 16 31  1  0  0  0
 17 18  1  0  0  0
 17 97  1  0  0  0
 18 19  2  0  0  0
 18 98  1  0  0  0
 19 20  1  0  0  0
 19 24  1  0  0  0
 20 21  2  0  0  0
 20 99  1  0  0  0
 21 23  1  0  0  0
 22 28  1  0  0  0
 22 32  2  0  0  0
 26 27  1  0  0  0
 28100  1  0  0  0
 28101  1  0  0  0
 29102  1  0  0  0
 29103  1  0  0  0
 33 34  1  0  0  0
 33 66  1  0  0  0
 33 70  2  0  0  0
 34 36  1  0  0  0
 34 59  1  0  0  0
 34104  1  0  0  0
 35 44  2  0  0  0
 35 45  1  0  0  0
 35 68  1  0  0  0
 36 56  1  0  0  0
 36105  1  0  0  0
 37 39  1  0  0  0
 37 47  1  0  0  0
 37 66  1  0  0  0
 37106  1  0  0  0
 38 43  2  0  0  0
 38 46  1  0  0  0
 38 47  1  0  0  0
 39 64  1  0  0  0
 39 67  2  0  0  0
 40 52  1  0  0  0
 40 53  2  0  0  0
 40 58  1  0  0  0
 41107  1  0  0  0
 41108  1  0  0  0
 41109  1  0  0  0
 41 48  1  0  0  0
 42 43  1  0  0  0
 42 66  1  0  0  0
 42110  1  0  0  0
 42111  1  0  0  0
 43 44  1  0  0  0
 44112  1  0  0  0
 45 46  2  0  0  0
 45113  1  0  0  0
 46114  1  0  0  0
 47115  1  0  0  0
 47116  1  0  0  0
 48 56  1  0  0  0
 48 65  1  0  0  0
 48117  1  0  0  0
 49 50  1  0  0  0
 49 53  1  0  0  0
 49 64  1  0  0  0
 49118  1  0  0  0
 50 51  1  0  0  0
 50119  1  0  0  0
 50120  1  0  0  0
 51 52  1  0  0  0
 51121  1  0  0  0
 51122  1  0  0  0
 52123  1  0  0  0
 52124  1  0  0  0
 53 54  1  0  0  0
 54 55  2  0  0  0
 54125  1  0  0  0
 55 57  1  0  0  0
 55126  1  0  0  0
 56 69  2  0  0  0
 57 58  2  0  0  0
 57127  1  0  0  0
 58128  1  0  0  0
 59 60  1  0  0  0
 59 61  1  0  0  0
 59 62  1  0  0  0
 60129  1  0  0  0
 60130  1  0  0  0
 60131  1  0  0  0
 61132  1  0  0  0
 61133  1  0  0  0
 61134  1  0  0  0
 62135  1  0  0  0
 62136  1  0  0  0
 62137  1  0  0  0
 63 65  1  0  0  0
 63138  1  0  0  0
 63139  1  0  0  0
 63140  1  0  0  0
 64141  1  0  0  0
 65142  1  0  0  0
 68 81  1  0  0  0
 71 73  2  0  0  0
 71 75  1  0  0  0
 71143  1  0  0  0
 72 74  1  0  0  0
 72 75  2  0  0  0
 72144  1  0  0  0
 73 76  1  0  0  0
 73145  1  0  0  0
 74 76  2  0  0  0
 74146  1  0  0  0
 75 78  1  0  0  0
 76 82  1  0  0  0
 77 79  1  0  0  0
 77 80  1  0  0  0
 77147  1  0  0  0
 77148  1  0  0  0
 78 79  1  0  0  0
 78 80  1  0  0  0
 78149  1  0  0  0
 79 81  1  0  0  0
 79150  1  0  0  0
 80 83  1  0  0  0
 80151  1  0  0  0
 81152  1  0  0  0
 81153  1  0  0  0
 82154  1  0  0  0
 83155  1  0  0  0
 83156  1  0  0  0
 83157  1  0  0  0
M  CHG  1  83   1
M  ISO  4   1 100  68 101  81 101  82 100
M  END
> <chiral flag>
0

> <version>
0

> <s_m_source_file>
/data/baiqing/PycharmProjects/Reinvent-master-3.2/result/LINK_invent/BTK/process_docking_weight1_custom_sum_contain_oxygen_bond_distance_aromatic_linkinvent_7_9_3/rearranged_h_0158.sdf

> <i_m_source_file_index>
56

> <r_mmod_Potential_Energy-OPLS-2005>
119.497703552246

> <r_mmod_Stretch_Energy-OPLS-2005>
181.816040039062

> <r_mmod_Bend_Energy-OPLS-2005>
235.654113769531

> <r_mmod_Torsional_Energy-OPLS-2005>
271.023712158203

> <r_mmod_Improper_Torsional_Energy-OPLS-2005>
5.97105026245117

> <r_mmod_Van_der_Waal_Energy-OPLS-2005>
135.360626220703

> <r_mmod_Electrostatic_Energy-OPLS-2005>
-320.122161865234

> <r_mmod_Solvation_Energy-OPLS-2005>
-521.818237304688

> <b_mmod_Minimization_Converged-OPLS-2005>
0

> <r_mmod_RMS_Derivative-OPLS-2005>
1.01086628437042

$$$$
56
                    3D
 Structure written by MMmdl.
173183  0  0  1  0            999 V2000
  -30.6995  -14.4274   20.5766 C   0  0  0  0  0  0
  -30.4274  -12.2936   19.3911 C   0  0  0  0  0  0
  -29.4865  -12.5194   18.1889 C   0  0  0  0  0  0
  -28.0027  -12.3947   18.6015 C   0  0  0  0  0  0
  -27.6651  -13.1932   19.8921 C   0  0  2  0  0  0
  -28.7155  -12.8712   20.9784 C   0  0  0  0  0  0
  -25.2612  -13.8131   20.5716 C   0  0  0  0  0  0
  -24.1837  -13.0414   20.9192 C   0  0  0  0  0  0
  -24.6380  -11.6891   20.8759 C   0  0  0  0  0  0
  -23.9049  -10.4287   21.0436 C   0  0  0  0  0  0
  -24.3619   -9.4195   21.9192 C   0  0  0  0  0  0
  -23.6298   -8.2229   22.0752 C   0  0  0  0  0  0
  -22.4277   -8.0280   21.3547 C   0  0  0  0  0  0
  -21.9918   -9.0251   20.4633 C   0  0  0  0  0  0
  -22.7243  -10.2132   20.3056 C   0  0  0  0  0  0
  -21.6840   -6.0748   22.5293 C   0  0  0  0  0  0
  -21.4008   -6.5646   23.8233 C   0  0  0  0  0  0
  -21.3662   -5.6796   24.9186 C   0  0  0  0  0  0
  -21.6049   -4.3060   24.7231 C   0  0  0  0  0  0
  -21.8819   -3.8156   23.4351 C   0  0  0  0  0  0
  -21.9196   -4.6980   22.3411 C   0  0  0  0  0  0
  -22.7864  -13.5232   21.1837 C   0  0  0  0  0  0
  -22.1657   -4.2170   21.0984 F   0  0  0  0  0  0
  -21.5624   -3.4542   25.7742 F   0  0  0  0  0  0
  -30.0255  -13.2510   20.4332 N   0  0  0  0  0  0
  -26.3045  -12.9269   20.3475 N   0  0  0  0  0  0
  -25.9307  -11.6442   20.5812 N   0  0  0  0  0  0
  -22.0496  -12.8242   22.0397 N   0  0  0  0  0  0
  -25.4338  -15.1832   20.4090 N   0  0  0  0  0  0
  -31.8808  -14.5246   20.2162 O   0  0  0  0  0  0
  -21.6625   -6.8891   21.4254 O   0  0  0  0  0  0
  -22.3557  -14.5535   20.6683 O   0  0  0  0  0  0
  -24.6056  -31.8728   23.2142 C   0  0  0  0  0  0
  -25.8983  -32.4845   23.8418 C   0  0  1  0  0  0
  -27.2385  -27.4951   20.1010 C   0  0  0  0  0  0
  -25.5860  -33.8641   24.2361 N   0  0  0  0  0  0
  -23.3903  -30.4940   21.5528 C   0  0  2  0  0  0
  -24.8400  -28.9649   20.1187 C   0  0  0  0  0  0
  -22.7354  -29.4668   22.5019 C   0  0  0  0  0  0
  -18.0253  -28.1378   22.8494 C   0  0  0  0  0  0
  -24.1482  -36.7331   23.2644 C   0  0  0  0  0  0
  -25.9096  -30.8573   21.3587 C   0  0  0  0  0  0
  -25.9908  -29.4927   20.7156 C   0  0  0  0  0  0
  -27.1935  -28.7638   20.7105 C   0  0  0  0  0  0
  -26.0825  -26.9695   19.4916 C   0  0  0  0  0  0
  -24.8761  -27.6983   19.5050 C   0  0  0  0  0  0
  -23.5966  -29.8225   20.1683 C   0  0  0  0  0  0
  -25.4103  -36.3130   24.0351 C   0  0  1  0  0  0
  -20.5830  -28.3647   23.1358 C   0  0  2  0  0  0
  -20.6747  -26.9393   22.5440 C   0  0  0  0  0  0
  -19.5731  -26.6382   21.5237 C   0  0  0  0  0  0
  -18.1899  -26.7930   22.1623 C   0  0  0  0  0  0
  -19.1493  -28.8834   23.2918 C   0  0  0  0  0  0
  -18.9422  -30.1455   23.8911 C   0  0  0  0  0  0
  -17.6431  -30.6588   24.0578 C   0  0  0  0  0  0
  -25.9028  -34.9490   23.5153 C   0  0  0  0  0  0
  -16.5331  -29.9080   23.6346 C   0  0  0  0  0  0
  -16.7245  -28.6514   23.0345 C   0  0  0  0  0  0
  -26.4446  -31.6587   25.0714 C   0  0  0  0  0  0
  -25.3735  -31.3667   26.1472 C   0  0  0  0  0  0
  -27.0282  -30.3041   24.6055 C   0  0  0  0  0  0
  -27.6015  -32.4297   25.7493 C   0  0  0  0  0  0
  -27.5587  -37.1814   24.8463 C   0  0  0  0  0  0
  -21.4092  -29.3019   22.3771 N   0  0  0  0  0  0
  -26.4291  -37.3806   23.9422 N   0  0  0  0  0  0
  -24.6521  -31.0877   22.1014 N   0  0  0  0  0  0
  -23.4152  -28.8234   23.3055 O   0  0  0  0  0  0
  -28.3992  -26.7727   20.0482 O   0  0  0  0  0  0
  -26.5583  -34.8934   22.4707 O   0  0  0  0  0  0
  -23.5265  -32.1441   23.7592 O   0  0  0  0  0  0
  -27.9173  -21.8475   20.4254 C   0  0  0  0  0  0
  -29.4993  -22.0375   22.2529 C   0  0  0  0  0  0
  -28.7644  -22.6408   21.2157 C   0  0  0  0  0  0
  -28.8895  -19.8242   21.3921 C   0  0  0  0  0  0
  -27.9533  -20.4443   20.5154 C   0  0  0  0  0  0
  -29.5577  -20.6340   22.3553 C   0  0  0  0  0  0
  -30.4129  -24.5453   20.7131 C   0  0  0  0  0  0
  -30.4254  -26.0455   21.0351 C   0  0  0  0  0  0
  -28.4686  -17.3032   21.8750 C   0  0  0  0  0  0
  -29.5863  -17.9341   19.7786 C   0  0  0  0  0  0
  -28.3147  -25.1318   21.7948 C   0  0  0  0  0  0
  -29.1514  -15.9181   21.8542 C   0  0  0  0  0  0
  -30.4290  -16.6646   19.7708 C   0  0  0  0  0  0
  -28.9460  -24.1048   20.8585 C   0  0  2  0  0  0
  -29.3367  -18.3634   21.2225 C   0  0  0  0  0  0
  -28.9685  -26.4318   21.3111 C   0  0  2  0  0  0
  -27.0029  -19.6828   19.6056 C   0  0  0  0  0  0
  -30.3949  -20.0382   23.4799 C   0  0  0  0  0  0
  -29.9409  -15.5616   20.6404 N   0  0  0  0  0  0
  -31.4653  -12.4141   19.0759 H   0  0  0  0  0  0
  -30.3504  -11.2693   19.7592 H   0  0  0  0  0  0
  -29.7152  -11.8095   17.3930 H   0  0  0  0  0  0
  -29.6660  -13.5127   17.7718 H   0  0  0  0  0  0
  -27.7899  -11.3360   18.7550 H   0  0  0  0  0  0
  -27.3574  -12.7136   17.7826 H   0  0  0  0  0  0
  -27.7277  -14.2539   19.6501 H   0  0  0  0  0  0
  -28.7021  -11.7970   21.1692 H   0  0  0  0  0  0
  -28.5052  -13.2801   21.9603 H   0  0  0  0  0  0
  -25.2773   -9.5651   22.4750 H   0  0  0  0  0  0
  -24.0012   -7.4613   22.7463 H   0  0  0  0  0  0
  -21.0850   -8.8769   19.8932 H   0  0  0  0  0  0
  -22.3725  -10.9666   19.6148 H   0  0  0  0  0  0
  -21.1987   -7.6152   23.9740 H   0  0  0  0  0  0
  -21.1476   -6.0518   25.9090 H   0  0  0  0  0  0
  -22.0592   -2.7617   23.2847 H   0  0  0  0  0  0
  -22.4140  -11.9948   22.4835 H   0  0  0  0  0  0
  -21.1089  -13.1236   22.2542 H   0  0  0  0  0  0
  -24.6666  -15.8388   20.5063 H   0  0  0  0  0  0
  -26.2958  -15.6181   20.1060 H   0  0  0  0  0  0
  -26.7061  -32.5610   23.1202 H   0  0  0  0  0  0
  -25.0005  -33.9820   25.0494 H   0  0  0  0  0  0
  -22.6738  -31.3074   21.4153 H   0  0  0  0  0  0
  -23.3741  -35.9671   23.3311 H   0  0  0  0  0  0
  -24.3579  -36.8940   22.2061 H   0  0  0  0  0  0
  -23.7237  -37.6539   23.6645 H   0  0  0  0  0  0
  -26.0074  -31.6238   20.5882 H   0  0  0  0  0  0
  -26.8011  -30.9170   21.9708 H   0  0  0  0  0  0
  -28.0851  -29.1835   21.1562 H   0  0  0  0  0  0
  -26.1210  -25.9989   19.0162 H   0  0  0  0  0  0
  -23.9924  -27.2831   19.0407 H   0  0  0  0  0  0
  -23.6959  -30.5968   19.4064 H   0  0  0  0  0  0
  -22.7234  -29.2366   19.8770 H   0  0  0  0  0  0
  -25.1271  -36.2004   25.0845 H   0  0  0  0  0  0
  -20.9921  -28.3206   24.1476 H   0  0  0  0  0  0
  -20.5672  -26.2245   23.3608 H   0  0  0  0  0  0
  -21.6615  -26.7441   22.1230 H   0  0  0  0  0  0
  -19.6900  -25.6301   21.1244 H   0  0  0  0  0  0
  -19.6692  -27.3214   20.6788 H   0  0  0  0  0  0
  -17.4186  -26.6716   21.4007 H   0  0  0  0  0  0
  -18.0264  -26.0058   22.8988 H   0  0  0  0  0  0
  -19.7896  -30.7289   24.2253 H   0  0  0  0  0  0
  -17.4978  -31.6264   24.5186 H   0  0  0  0  0  0
  -15.5332  -30.2995   23.7661 H   0  0  0  0  0  0
  -15.8644  -28.0870   22.7014 H   0  0  0  0  0  0
  -24.5897  -30.7025   25.7809 H   0  0  0  0  0  0
  -24.8948  -32.2812   26.4969 H   0  0  0  0  0  0
  -25.8121  -30.8796   27.0189 H   0  0  0  0  0  0
  -26.2830  -29.6810   24.1088 H   0  0  0  0  0  0
  -27.4036  -29.7262   25.4517 H   0  0  0  0  0  0
  -27.8664  -30.4373   23.9209 H   0  0  0  0  0  0
  -27.2602  -33.3541   26.2158 H   0  0  0  0  0  0
  -28.3788  -32.6932   25.0306 H   0  0  0  0  0  0
  -28.0708  -31.8354   26.5346 H   0  0  0  0  0  0
  -28.2583  -38.0125   24.7521 H   0  0  0  0  0  0
  -28.1104  -36.2655   24.6263 H   0  0  0  0  0  0
  -27.2319  -37.1458   25.8869 H   0  0  0  0  0  0
  -20.9231  -29.8711   21.6983 H   0  0  0  0  0  0
  -26.0191  -38.2891   24.1416 H   0  0  0  0  0  0
  -27.2874  -22.3129   19.6804 H   0  0  0  0  0  0
  -30.0934  -22.6484   22.9202 H   0  0  0  0  0  0
  -31.0666  -24.0418   21.4238 H   0  0  0  0  0  0
  -30.7974  -24.3188   19.7182 H   0  0  0  0  0  0
  -30.8574  -26.6367   20.2261 H   0  0  0  0  0  0
  -31.0307  -26.2235   21.9243 H   0  0  0  0  0  0
  -28.2380  -17.5803   22.9040 H   0  0  0  0  0  0
  -27.5098  -17.2334   21.3645 H   0  0  0  0  0  0
  -28.6656  -17.7464   19.2331 H   0  0  0  0  0  0
  -30.1186  -18.7164   19.2347 H   0  0  0  0  0  0
  -28.5921  -24.9401   22.8308 H   0  0  0  0  0  0
  -27.2257  -25.1486   21.7380 H   0  0  0  0  0  0
  -28.3187  -15.2456   22.0077 H   0  0  0  0  0  0
  -29.8023  -15.8191   22.7243 H   0  0  0  0  0  0
  -31.4369  -16.9489   20.0831 H   0  0  0  0  0  0
  -30.5210  -16.3124   18.7408 H   0  0  0  0  0  0
  -28.4815  -24.2481   19.8824 H   0  0  0  0  0  0
  -30.3157  -18.2914   21.6931 H   0  0  0  0  0  0
  -28.8979  -27.2345   22.0467 H   0  0  0  0  0  0
  -26.0737  -20.2378   19.4812 H   0  0  0  0  0  0
  -26.7231  -18.7163   20.0139 H   0  0  0  0  0  0
  -27.4371  -19.5495   18.6151 H   0  0  0  0  0  0
  -30.5277  -20.7529   24.2929 H   0  0  0  0  0  0
  -31.3831  -19.7485   23.1244 H   0  0  0  0  0  0
  -29.9061  -19.1614   23.9052 H   0  0  0  0  0  0
  1 25  1  0  0  0
  1 30  2  0  0  0
  1 89  1  0  0  0
  2  3  1  0  0  0
  2 25  1  0  0  0
  2 90  1  0  0  0
  2 91  1  0  0  0
  3  4  1  0  0  0
  3 92  1  0  0  0
  3 93  1  0  0  0
  4  5  1  0  0  0
  4 94  1  0  0  0
  4 95  1  0  0  0
  5  6  1  0  0  0
  5 26  1  0  0  0
  5 96  1  0  0  0
  6 25  1  0  0  0
  6 97  1  0  0  0
  6 98  1  0  0  0
  7  8  2  0  0  0
  7 26  1  0  0  0
  7 29  1  0  0  0
  8  9  1  0  0  0
  8 22  1  0  0  0
  9 10  1  0  0  0
  9 27  2  0  0  0
 10 11  2  0  0  0
 10 15  1  0  0  0
 11 12  1  0  0  0
 11 99  1  0  0  0
 12 13  2  0  0  0
 12100  1  0  0  0
 13 14  1  0  0  0
 13 31  1  0  0  0
 14 15  2  0  0  0
 14101  1  0  0  0
 15102  1  0  0  0
 16 17  2  0  0  0
 16 21  1  0  0  0
 16 31  1  0  0  0
 17 18  1  0  0  0
 17103  1  0  0  0
 18 19  2  0  0  0
 18104  1  0  0  0
 19 20  1  0  0  0
 19 24  1  0  0  0
 20 21  2  0  0  0
 20105  1  0  0  0
 21 23  1  0  0  0
 22 28  1  0  0  0
 22 32  2  0  0  0
 26 27  1  0  0  0
 28106  1  0  0  0
 28107  1  0  0  0
 29108  1  0  0  0
 29109  1  0  0  0
 33 34  1  0  0  0
 33 66  1  0  0  0
 33 70  2  0  0  0
 34 36  1  0  0  0
 34 59  1  0  0  0
 34110  1  0  0  0
 35 44  2  0  0  0
 35 45  1  0  0  0
 35 68  1  0  0  0
 36 56  1  0  0  0
 36111  1  0  0  0
 37 39  1  0  0  0
 37 47  1  0  0  0
 37 66  1  0  0  0
 37112  1  0  0  0
 38 43  2  0  0  0
 38 46  1  0  0  0
 38 47  1  0  0  0
 39 64  1  0  0  0
 39 67  2  0  0  0
 40 52  1  0  0  0
 40 53  2  0  0  0
 40 58  1  0  0  0
 41113  1  0  0  0
 41114  1  0  0  0
 41115  1  0  0  0
 41 48  1  0  0  0
 42 43  1  0  0  0
 42 66  1  0  0  0
 42116  1  0  0  0
 42117  1  0  0  0
 43 44  1  0  0  0
 44118  1  0  0  0
 45 46  2  0  0  0
 45119  1  0  0  0
 46120  1  0  0  0
 47121  1  0  0  0
 47122  1  0  0  0
 48 56  1  0  0  0
 48 65  1  0  0  0
 48123  1  0  0  0
 49 50  1  0  0  0
 49 53  1  0  0  0
 49 64  1  0  0  0
 49124  1  0  0  0
 50 51  1  0  0  0
 50125  1  0  0  0
 50126  1  0  0  0
 51 52  1  0  0  0
 51127  1  0  0  0
 51128  1  0  0  0
 52129  1  0  0  0
 52130  1  0  0  0
 53 54  1  0  0  0
 54 55  2  0  0  0
 54131  1  0  0  0
 55 57  1  0  0  0
 55132  1  0  0  0
 56 69  2  0  0  0
 57 58  2  0  0  0
 57133  1  0  0  0
 58134  1  0  0  0
 59 60  1  0  0  0
 59 61  1  0  0  0
 59 62  1  0  0  0
 60135  1  0  0  0
 60136  1  0  0  0
 60137  1  0  0  0
 61138  1  0  0  0
 61139  1  0  0  0
 61140  1  0  0  0
 62141  1  0  0  0
 62142  1  0  0  0
 62143  1  0  0  0
 63 65  1  0  0  0
 63144  1  0  0  0
 63145  1  0  0  0
 63146  1  0  0  0
 64147  1  0  0  0
 65148  1  0  0  0
 68 86  1  0  0  0
 71 73  2  0  0  0
 71 75  1  0  0  0
 71149  1  0  0  0
 72 73  1  0  0  0
 72 76  2  0  0  0
 72150  1  0  0  0
 73 84  1  0  0  0
 74 75  2  0  0  0
 74 76  1  0  0  0
 74 85  1  0  0  0
 75 87  1  0  0  0
 76 88  1  0  0  0
 77 78  1  0  0  0
 77 84  1  0  0  0
 77151  1  0  0  0
 77152  1  0  0  0
 78 86  1  0  0  0
 78153  1  0  0  0
 78154  1  0  0  0
 79 82  1  0  0  0
 79 85  1  0  0  0
 79155  1  0  0  0
 79156  1  0  0  0
 80 83  1  0  0  0
 80 85  1  0  0  0
 80157  1  0  0  0
 80158  1  0  0  0
 81 84  1  0  0  0
 81 86  1  0  0  0
 81159  1  0  0  0
 81160  1  0  0  0
 82 89  1  0  0  0
 82161  1  0  0  0
 82162  1  0  0  0
 83 89  1  0  0  0
 83163  1  0  0  0
 83164  1  0  0  0
 84165  1  0  0  0
 85166  1  0  0  0
 86167  1  0  0  0
 87168  1  0  0  0
 87169  1  0  0  0
 87170  1  0  0  0
 88171  1  0  0  0
 88172  1  0  0  0
 88173  1  0  0  0
M  ISO  4   1 100  68 101  86 101  89 100
M  END
> <chiral flag>
0

> <version>
0

> <s_m_source_file>
/data/baiqing/PycharmProjects/Reinvent-master-3.2/result/LINK_invent/BTK/process_docking_weight1_custom_sum_contain_oxygen_bond_distance_aromatic_linkinvent_7_9_3/rearranged_h_0158.sdf

> <i_m_source_file_index>
57

> <r_mmod_Potential_Energy-OPLS-2005>
302.051361083984

> <r_mmod_Stretch_Energy-OPLS-2005>
40.0653266906738

> <r_mmod_Bend_Energy-OPLS-2005>
153.95539855957

> <r_mmod_Torsional_Energy-OPLS-2005>
404.576019287109

> <r_mmod_Improper_Torsional_Energy-OPLS-2005>
18.4098358154297

> <r_mmod_Van_der_Waal_Energy-OPLS-2005>
176.720718383789

> <r_mmod_Electrostatic_Energy-OPLS-2005>
-321.178161621094

> <r_mmod_Solvation_Energy-OPLS-2005>
-184.611083984375

> <b_mmod_Minimization_Converged-OPLS-2005>
0

> <r_mmod_RMS_Derivative-OPLS-2005>
2.7573127746582

$$$$
57
                    3D
 Structure written by MMmdl.
164173  0  0  1  0            999 V2000
  -30.6460  -14.7337   20.4827 C   0  0  0  0  0  0
  -30.4244  -12.4573   19.4744 C   0  0  0  0  0  0
  -29.5064  -12.5056   18.2350 C   0  0  0  0  0  0
  -28.0318  -12.3369   18.6478 C   0  0  0  0  0  0
  -27.6387  -13.2390   19.8485 C   0  0  2  0  0  0
  -28.6830  -13.1911   20.9838 C   0  0  0  0  0  0
  -25.2495  -13.8217   20.5721 C   0  0  0  0  0  0
  -24.1788  -13.0447   20.9203 C   0  0  0  0  0  0
  -24.6391  -11.6923   20.8742 C   0  0  0  0  0  0
  -23.9063  -10.4293   21.0402 C   0  0  0  0  0  0
  -24.3614   -9.4202   21.9179 C   0  0  0  0  0  0
  -23.6285   -8.2239   22.0754 C   0  0  0  0  0  0
  -22.4264   -8.0276   21.3543 C   0  0  0  0  0  0
  -21.9898   -9.0245   20.4641 C   0  0  0  0  0  0
  -22.7230  -10.2126   20.3052 C   0  0  0  0  0  0
  -21.6849   -6.0724   22.5272 C   0  0  0  0  0  0
  -21.4009   -6.5634   23.8201 C   0  0  0  0  0  0
  -21.3663   -5.6794   24.9168 C   0  0  0  0  0  0
  -21.6047   -4.3055   24.7224 C   0  0  0  0  0  0
  -21.8820   -3.8140   23.4347 C   0  0  0  0  0  0
  -21.9192   -4.6952   22.3400 C   0  0  0  0  0  0
  -22.7807  -13.5217   21.1863 C   0  0  0  0  0  0
  -22.1662   -4.2138   21.0977 F   0  0  0  0  0  0
  -21.5631   -3.4536   25.7735 F   0  0  0  0  0  0
  -29.9801  -13.5310   20.3953 N   0  0  0  0  0  0
  -26.2925  -12.9437   20.3292 N   0  0  0  0  0  0
  -25.9324  -11.6563   20.5744 N   0  0  0  0  0  0
  -22.0459  -12.8207   22.0422 N   0  0  0  0  0  0
  -25.4202  -15.1948   20.4197 N   0  0  0  0  0  0
  -31.8418  -14.7807   20.1768 O   0  0  0  0  0  0
  -21.6641   -6.8863   21.4231 O   0  0  0  0  0  0
  -22.3488  -14.5513   20.6700 O   0  0  0  0  0  0
  -24.6339  -31.8545   23.1999 C   0  0  0  0  0  0
  -25.9156  -32.4753   23.8345 C   0  0  1  0  0  0
  -27.2112  -27.2588   20.1434 C   0  0  0  0  0  0
  -25.5956  -33.8558   24.2263 N   0  0  0  0  0  0
  -23.4318  -30.4781   21.5409 C   0  0  2  0  0  0
  -24.8810  -28.9296   20.1053 C   0  0  0  0  0  0
  -22.7525  -29.4604   22.4900 C   0  0  0  0  0  0
  -18.0298  -28.1412   22.8474 C   0  0  0  0  0  0
  -24.1489  -36.7282   23.2641 C   0  0  0  0  0  0
  -25.9789  -30.7701   21.3788 C   0  0  0  0  0  0
  -26.0518  -29.3925   20.7208 C   0  0  0  0  0  0
  -27.2251  -28.5694   20.7285 C   0  0  0  0  0  0
  -26.0288  -26.8740   19.4789 C   0  0  0  0  0  0
  -24.8752  -27.6798   19.4669 C   0  0  0  0  0  0
  -23.6515  -29.8159   20.1547 C   0  0  0  0  0  0
  -25.4113  -36.3066   24.0330 C   0  0  1  0  0  0
  -20.5905  -28.3718   23.1265 C   0  0  2  0  0  0
  -20.6790  -26.9429   22.5412 C   0  0  0  0  0  0
  -19.5760  -26.6396   21.5226 C   0  0  0  0  0  0
  -18.1938  -26.7949   22.1629 C   0  0  0  0  0  0
  -19.1550  -28.8880   23.2861 C   0  0  0  0  0  0
  -18.9466  -30.1478   23.8876 C   0  0  0  0  0  0
  -17.6465  -30.6598   24.0570 C   0  0  0  0  0  0
  -25.9056  -34.9441   23.5095 C   0  0  0  0  0  0
  -16.5357  -29.9092   23.6344 C   0  0  0  0  0  0
  -16.7283  -28.6520   23.0348 C   0  0  0  0  0  0
  -26.4503  -31.6578   25.0740 C   0  0  0  0  0  0
  -25.3718  -31.3718   26.1459 C   0  0  0  0  0  0
  -27.0357  -30.2998   24.6228 C   0  0  0  0  0  0
  -27.6060  -32.4319   25.7502 C   0  0  0  0  0  0
  -27.5571  -37.1796   24.8463 C   0  0  0  0  0  0
  -21.4226  -29.3063   22.3651 N   0  0  0  0  0  0
  -26.4278  -37.3779   23.9413 N   0  0  0  0  0  0
  -24.7006  -31.0511   22.0968 N   0  0  0  0  0  0
  -23.4210  -28.8136   23.3005 O   0  0  0  0  0  0
  -28.2420  -26.2951   20.2146 O   0  0  0  0  0  0
  -26.5617  -34.8912   22.4659 O   0  0  0  0  0  0
  -23.5481  -32.1366   23.7291 O   0  0  0  0  0  0
  -28.7072  -21.2730   21.8467 C   0  0  0  0  0  0
  -28.8987  -22.9899   19.6571 C   0  0  0  0  0  0
  -29.1797  -20.6787   20.6477 C   0  0  0  0  0  0
  -28.3389  -22.6551   21.9559 C   0  0  0  0  0  0
  -28.4366  -23.5829   20.8647 C   0  0  0  0  0  0
  -29.2525  -21.5865   19.5400 C   0  0  0  0  0  0
  -29.6872  -18.2856   21.8753 C   0  0  0  0  0  0
  -28.9988  -18.1704   19.5737 C   0  0  0  0  0  0
  -30.3751  -16.8572   21.7524 C   0  0  0  0  0  0
  -29.7097  -16.7586   19.4319 C   0  0  0  0  0  0
  -29.6833  -19.1485   20.5742 C   0  0  0  0  0  0
  -27.8006  -23.1186   23.3008 C   0  0  0  0  0  0
  -29.4763  -21.7741   17.1543 C   0  0  0  0  0  0
  -27.8878  -25.0862   21.0327 C   0  0  0  0  0  0
  -29.9379  -15.9300   20.6594 N   0  0  0  0  0  0
  -29.6865  -21.0395   18.3530 O   0  0  0  0  0  0
  -31.4656  -12.5735   19.1685 H   0  0  0  0  0  0
  -30.3648  -11.4847   19.9661 H   0  0  0  0  0  0
  -29.7872  -11.7252   17.5266 H   0  0  0  0  0  0
  -29.6364  -13.4556   17.7137 H   0  0  0  0  0  0
  -27.8821  -11.2886   18.9087 H   0  0  0  0  0  0
  -27.3770  -12.5343   17.7978 H   0  0  0  0  0  0
  -27.6275  -14.2587   19.4633 H   0  0  0  0  0  0
  -28.7189  -12.2039   21.4457 H   0  0  0  0  0  0
  -28.4230  -13.8978   21.7736 H   0  0  0  0  0  0
  -25.2759   -9.5680   22.4751 H   0  0  0  0  0  0
  -23.9986   -7.4636   22.7480 H   0  0  0  0  0  0
  -21.0831   -8.8761   19.8947 H   0  0  0  0  0  0
  -22.3683  -10.9661   19.6162 H   0  0  0  0  0  0
  -21.1992   -7.6141   23.9700 H   0  0  0  0  0  0
  -21.1489   -6.0526   25.9072 H   0  0  0  0  0  0
  -22.0595   -2.7600   23.2855 H   0  0  0  0  0  0
  -22.4071  -11.9868   22.4817 H   0  0  0  0  0  0
  -21.1075  -13.1222   22.2615 H   0  0  0  0  0  0
  -24.6592  -15.8537   20.5409 H   0  0  0  0  0  0
  -26.2890  -15.6361   20.1450 H   0  0  0  0  0  0
  -26.7232  -32.5377   23.1092 H   0  0  0  0  0  0
  -25.0123  -33.9694   25.0419 H   0  0  0  0  0  0
  -22.7294  -31.3014   21.3939 H   0  0  0  0  0  0
  -23.3755  -35.9611   23.3295 H   0  0  0  0  0  0
  -24.3579  -36.8912   22.2059 H   0  0  0  0  0  0
  -23.7248  -37.6480   23.6670 H   0  0  0  0  0  0
  -26.1186  -31.5302   20.6081 H   0  0  0  0  0  0
  -26.8569  -30.8175   22.0112 H   0  0  0  0  0  0
  -28.1174  -28.9130   21.2329 H   0  0  0  0  0  0
  -25.9840  -25.9076   18.9980 H   0  0  0  0  0  0
  -23.9843  -27.3238   18.9711 H   0  0  0  0  0  0
  -23.7757  -30.5950   19.4011 H   0  0  0  0  0  0
  -22.7703  -29.2488   19.8489 H   0  0  0  0  0  0
  -25.1298  -36.1908   25.0821 H   0  0  0  0  0  0
  -20.9985  -28.3293   24.1395 H   0  0  0  0  0  0
  -20.5710  -26.2320   23.3616 H   0  0  0  0  0  0
  -21.6650  -26.7472   22.1183 H   0  0  0  0  0  0
  -19.6918  -25.6304   21.1262 H   0  0  0  0  0  0
  -19.6703  -27.3201   20.6749 H   0  0  0  0  0  0
  -17.4213  -26.6709   21.4022 H   0  0  0  0  0  0
  -18.0311  -26.0105   22.9028 H   0  0  0  0  0  0
  -19.7941  -30.7313   24.2227 H   0  0  0  0  0  0
  -17.5017  -31.6269   24.5190 H   0  0  0  0  0  0
  -15.5356  -30.2993   23.7680 H   0  0  0  0  0  0
  -15.8684  -28.0842   22.7069 H   0  0  0  0  0  0
  -24.5915  -30.7046   25.7780 H   0  0  0  0  0  0
  -24.8880  -32.2874   26.4871 H   0  0  0  0  0  0
  -25.8033  -30.8907   27.0248 H   0  0  0  0  0  0
  -26.2942  -29.6735   24.1259 H   0  0  0  0  0  0
  -27.4051  -29.7274   25.4747 H   0  0  0  0  0  0
  -27.8808  -30.4279   23.9466 H   0  0  0  0  0  0
  -27.2691  -33.3645   26.2038 H   0  0  0  0  0  0
  -28.3877  -32.6849   25.0326 H   0  0  0  0  0  0
  -28.0720  -31.8476   26.5442 H   0  0  0  0  0  0
  -28.2584  -38.0098   24.7525 H   0  0  0  0  0  0
  -28.1071  -36.2635   24.6261 H   0  0  0  0  0  0
  -27.2288  -37.1407   25.8864 H   0  0  0  0  0  0
  -20.9425  -29.8769   21.6828 H   0  0  0  0  0  0
  -26.0147  -38.2839   24.1432 H   0  0  0  0  0  0
  -28.6224  -20.6480   22.7245 H   0  0  0  0  0  0
  -28.9677  -23.6463   18.8027 H   0  0  0  0  0  0
  -30.1978  -18.8366   22.6663 H   0  0  0  0  0  0
  -28.6614  -18.1584   22.2234 H   0  0  0  0  0  0
  -27.9559  -18.0271   19.8585 H   0  0  0  0  0  0
  -28.9710  -18.6295   18.5860 H   0  0  0  0  0  0
  -30.2557  -16.3341   22.7027 H   0  0  0  0  0  0
  -31.4493  -17.0178   21.6453 H   0  0  0  0  0  0
  -30.6828  -16.9267   18.9647 H   0  0  0  0  0  0
  -29.1463  -16.1586   18.7159 H   0  0  0  0  0  0
  -30.7264  -19.2380   20.2642 H   0  0  0  0  0  0
  -27.6819  -22.2889   23.9981 H   0  0  0  0  0  0
  -26.8208  -23.5835   23.1907 H   0  0  0  0  0  0
  -28.4809  -23.8369   23.7575 H   0  0  0  0  0  0
  -29.6350  -21.1147   16.3018 H   0  0  0  0  0  0
  -30.1811  -22.6026   17.0746 H   0  0  0  0  0  0
  -28.4567  -22.1562   17.0795 H   0  0  0  0  0  0
  -28.1608  -25.3968   22.0403 H   0  0  0  0  0  0
  -26.8043  -24.9691   21.0714 H   0  0  0  0  0  0
  1 25  1  0  0  0
  1 30  2  0  0  0
  1 85  1  0  0  0
  2  3  1  0  0  0
  2 25  1  0  0  0
  2 87  1  0  0  0
  2 88  1  0  0  0
  3  4  1  0  0  0
  3 89  1  0  0  0
  3 90  1  0  0  0
  4  5  1  0  0  0
  4 91  1  0  0  0
  4 92  1  0  0  0
  5  6  1  0  0  0
  5 26  1  0  0  0
  5 93  1  0  0  0
  6 25  1  0  0  0
  6 94  1  0  0  0
  6 95  1  0  0  0
  7  8  2  0  0  0
  7 26  1  0  0  0
  7 29  1  0  0  0
  8  9  1  0  0  0
  8 22  1  0  0  0
  9 10  1  0  0  0
  9 27  2  0  0  0
 10 11  2  0  0  0
 10 15  1  0  0  0
 11 12  1  0  0  0
 11 96  1  0  0  0
 12 13  2  0  0  0
 12 97  1  0  0  0
 13 14  1  0  0  0
 13 31  1  0  0  0
 14 15  2  0  0  0
 14 98  1  0  0  0
 15 99  1  0  0  0
 16 17  2  0  0  0
 16 21  1  0  0  0
 16 31  1  0  0  0
 17 18  1  0  0  0
 17100  1  0  0  0
 18 19  2  0  0  0
 18101  1  0  0  0
 19 20  1  0  0  0
 19 24  1  0  0  0
 20 21  2  0  0  0
 20102  1  0  0  0
 21 23  1  0  0  0
 22 28  1  0  0  0
 22 32  2  0  0  0
 26 27  1  0  0  0
 28103  1  0  0  0
 28104  1  0  0  0
 29105  1  0  0  0
 29106  1  0  0  0
 33 34  1  0  0  0
 33 66  1  0  0  0
 33 70  2  0  0  0
 34 36  1  0  0  0
 34 59  1  0  0  0
 34107  1  0  0  0
 35 44  2  0  0  0
 35 45  1  0  0  0
 35 68  1  0  0  0
 36 56  1  0  0  0
 36108  1  0  0  0
 37 39  1  0  0  0
 37 47  1  0  0  0
 37 66  1  0  0  0
 37109  1  0  0  0
 38 43  2  0  0  0
 38 46  1  0  0  0
 38 47  1  0  0  0
 39 64  1  0  0  0
 39 67  2  0  0  0
 40 52  1  0  0  0
 40 53  2  0  0  0
 40 58  1  0  0  0
 41110  1  0  0  0
 41111  1  0  0  0
 41112  1  0  0  0
 41 48  1  0  0  0
 42 43  1  0  0  0
 42 66  1  0  0  0
 42113  1  0  0  0
 42114  1  0  0  0
 43 44  1  0  0  0
 44115  1  0  0  0
 45 46  2  0  0  0
 45116  1  0  0  0
 46117  1  0  0  0
 47118  1  0  0  0
 47119  1  0  0  0
 48 56  1  0  0  0
 48 65  1  0  0  0
 48120  1  0  0  0
 49 50  1  0  0  0
 49 53  1  0  0  0
 49 64  1  0  0  0
 49121  1  0  0  0
 50 51  1  0  0  0
 50122  1  0  0  0
 50123  1  0  0  0
 51 52  1  0  0  0
 51124  1  0  0  0
 51125  1  0  0  0
 52126  1  0  0  0
 52127  1  0  0  0
 53 54  1  0  0  0
 54 55  2  0  0  0
 54128  1  0  0  0
 55 57  1  0  0  0
 55129  1  0  0  0
 56 69  2  0  0  0
 57 58  2  0  0  0
 57130  1  0  0  0
 58131  1  0  0  0
 59 60  1  0  0  0
 59 61  1  0  0  0
 59 62  1  0  0  0
 60132  1  0  0  0
 60133  1  0  0  0
 60134  1  0  0  0
 61135  1  0  0  0
 61136  1  0  0  0
 61137  1  0  0  0
 62138  1  0  0  0
 62139  1  0  0  0
 62140  1  0  0  0
 63 65  1  0  0  0
 63141  1  0  0  0
 63142  1  0  0  0
 63143  1  0  0  0
 64144  1  0  0  0
 65145  1  0  0  0
 68 84  1  0  0  0
 71 73  2  0  0  0
 71 74  1  0  0  0
 71146  1  0  0  0
 72 75  1  0  0  0
 72 76  2  0  0  0
 72147  1  0  0  0
 73 76  1  0  0  0
 73 81  1  0  0  0
 74 75  2  0  0  0
 74 82  1  0  0  0
 75 84  1  0  0  0
 76 86  1  0  0  0
 77 79  1  0  0  0
 77 81  1  0  0  0
 77148  1  0  0  0
 77149  1  0  0  0
 78 80  1  0  0  0
 78 81  1  0  0  0
 78150  1  0  0  0
 78151  1  0  0  0
 79 85  1  0  0  0
 79152  1  0  0  0
 79153  1  0  0  0
 80 85  1  0  0  0
 80154  1  0  0  0
 80155  1  0  0  0
 81156  1  0  0  0
 82157  1  0  0  0
 82158  1  0  0  0
 82159  1  0  0  0
 83 86  1  0  0  0
 83160  1  0  0  0
 83161  1  0  0  0
 83162  1  0  0  0
 84163  1  0  0  0
 84164  1  0  0  0
M  ISO  4   1 100  68 101  84 101  85 100
M  END
> <chiral flag>
0

> <version>
0

> <s_m_source_file>
/data/baiqing/PycharmProjects/Reinvent-master-3.2/result/LINK_invent/BTK/process_docking_weight1_custom_sum_contain_oxygen_bond_distance_aromatic_linkinvent_7_9_3/rearranged_h_0158.sdf

> <i_m_source_file_index>
58

> <r_mmod_Potential_Energy-OPLS-2005>
453.220550537109

> <r_mmod_Stretch_Energy-OPLS-2005>
121.585014343262

> <r_mmod_Bend_Energy-OPLS-2005>
202.737823486328

> <r_mmod_Torsional_Energy-OPLS-2005>
358.231658935547

> <r_mmod_Improper_Torsional_Energy-OPLS-2005>
11.1885671615601

> <r_mmod_Van_der_Waal_Energy-OPLS-2005>
147.166534423828

> <r_mmod_Electrostatic_Energy-OPLS-2005>
-289.130889892578

> <r_mmod_Solvation_Energy-OPLS-2005>
-192.023010253906

> <b_mmod_Minimization_Converged-OPLS-2005>
0

> <r_mmod_RMS_Derivative-OPLS-2005>
2.07681846618652

$$$$
58
                    3D
 Structure written by MMmdl.
155164  0  0  1  0            999 V2000
  -30.4276  -15.3269   20.3670 C   0  0  0  0  0  0
  -30.4330  -12.8567   19.5327 C   0  0  0  0  0  0
  -29.5363  -12.5902   18.2972 C   0  0  0  0  0  0
  -28.0892  -12.3017   18.7269 C   0  0  0  0  0  0
  -27.6069  -13.2849   19.8212 C   0  0  2  0  0  0
  -28.6356  -13.4951   20.9531 C   0  0  0  0  0  0
  -25.2359  -13.8260   20.5746 C   0  0  0  0  0  0
  -24.1726  -13.0438   20.9260 C   0  0  0  0  0  0
  -24.6396  -11.6934   20.8767 C   0  0  0  0  0  0
  -23.9097  -10.4289   21.0402 C   0  0  0  0  0  0
  -24.3636   -9.4203   21.9178 C   0  0  0  0  0  0
  -23.6297   -8.2245   22.0756 C   0  0  0  0  0  0
  -22.4279   -8.0285   21.3546 C   0  0  0  0  0  0
  -21.9919   -9.0261   20.4646 C   0  0  0  0  0  0
  -22.7264  -10.2131   20.3051 C   0  0  0  0  0  0
  -21.6857   -6.0732   22.5273 C   0  0  0  0  0  0
  -21.4022   -6.5637   23.8207 C   0  0  0  0  0  0
  -21.3657   -5.6789   24.9169 C   0  0  0  0  0  0
  -21.6039   -4.3054   24.7218 C   0  0  0  0  0  0
  -21.8820   -3.8145   23.4342 C   0  0  0  0  0  0
  -21.9194   -4.6959   22.3398 C   0  0  0  0  0  0
  -22.7740  -13.5185   21.1907 C   0  0  0  0  0  0
  -22.1661   -4.2147   21.0974 F   0  0  0  0  0  0
  -21.5621   -3.4539   25.7732 F   0  0  0  0  0  0
  -29.8593  -14.0152   20.3213 N   0  0  0  0  0  0
  -26.2797  -12.9556   20.3226 N   0  0  0  0  0  0
  -25.9341  -11.6647   20.5723 N   0  0  0  0  0  0
  -22.0401  -12.8164   22.0458 N   0  0  0  0  0  0
  -25.3953  -15.1998   20.4160 N   0  0  0  0  0  0
  -31.6482  -15.3006   20.1536 O   0  0  0  0  0  0
  -21.6643   -6.8882   21.4237 O   0  0  0  0  0  0
  -22.3415  -14.5481   20.6742 O   0  0  0  0  0  0
  -24.6664  -31.8177   23.1660 C   0  0  0  0  0  0
  -25.9317  -32.4557   23.8148 C   0  0  1  0  0  0
  -27.2242  -26.8777   20.1995 C   0  0  0  0  0  0
  -25.5961  -33.8376   24.2044 N   0  0  0  0  0  0
  -23.4855  -30.4255   21.5157 C   0  0  2  0  0  0
  -24.9417  -28.8026   20.1097 C   0  0  0  0  0  0
  -22.7691  -29.4394   22.4753 C   0  0  0  0  0  0
  -18.0323  -28.1409   22.8457 C   0  0  0  0  0  0
  -24.1481  -36.7203   23.2653 C   0  0  0  0  0  0
  -26.0564  -30.6055   21.4057 C   0  0  0  0  0  0
  -26.1249  -29.1905   20.7517 C   0  0  0  0  0  0
  -27.2559  -28.2495   20.7744 C   0  0  0  0  0  0
  -26.0172  -26.6583   19.4942 C   0  0  0  0  0  0
  -24.9169  -27.5578   19.4590 C   0  0  0  0  0  0
  -23.7292  -29.7355   20.1430 C   0  0  0  0  0  0
  -25.4131  -36.2956   24.0292 C   0  0  1  0  0  0
  -20.5951  -28.3755   23.1174 C   0  0  2  0  0  0
  -20.6796  -26.9427   22.5407 C   0  0  0  0  0  0
  -19.5768  -26.6363   21.5223 C   0  0  0  0  0  0
  -18.1945  -26.7941   22.1617 C   0  0  0  0  0  0
  -19.1587  -28.8903   23.2803 C   0  0  0  0  0  0
  -18.9504  -30.1492   23.8839 C   0  0  0  0  0  0
  -17.6501  -30.6598   24.0556 C   0  0  0  0  0  0
  -25.9105  -34.9332   23.5004 C   0  0  0  0  0  0
  -16.5388  -29.9081   23.6352 C   0  0  0  0  0  0
  -16.7313  -28.6504   23.0362 C   0  0  0  0  0  0
  -26.4558  -31.6525   25.0698 C   0  0  0  0  0  0
  -25.3661  -31.3801   26.1343 C   0  0  0  0  0  0
  -27.0472  -30.2880   24.6479 C   0  0  0  0  0  0
  -27.6041  -32.4364   25.7489 C   0  0  0  0  0  0
  -27.5565  -37.1763   24.8479 C   0  0  0  0  0  0
  -21.4355  -29.3031   22.3514 N   0  0  0  0  0  0
  -26.4289  -37.3689   23.9398 N   0  0  0  0  0  0
  -24.7579  -30.9780   22.0825 N   0  0  0  0  0  0
  -23.4204  -28.7963   23.3023 O   0  0  0  0  0  0
  -28.2061  -25.7407   20.3276 O   0  0  0  0  0  0
  -26.5732  -34.8877   22.4613 O   0  0  0  0  0  0
  -23.5717  -32.1171   23.6704 O   0  0  0  0  0  0
  -28.8482  -21.1510   20.0040 C   0  0  0  0  0  0
  -29.3195  -22.6572   21.8443 C   0  0  0  0  0  0
  -29.4824  -19.8888   20.6578 C   0  0  0  0  0  0
  -28.7462  -22.6126   20.5528 C   0  0  0  0  0  0
  -29.9614  -21.5449   22.4686 C   0  0  0  0  0  0
  -30.0773  -20.2618   21.8643 C   0  0  0  0  0  0
  -30.1043  -18.2691   20.3094 C   0  0  1  0  0  0
  -31.2721  -18.3641   21.3414 C   0  0  1  0  0  0
  -30.6041  -21.7514   23.8277 C   0  0  0  0  0  0
  -32.6079  -18.7722   20.7039 C   0  0  0  0  0  0
  -28.0024  -24.1182   19.9796 C   0  0  0  0  0  0
  -29.6973  -16.6347   20.4535 N   0  0  0  0  0  0
  -30.9098  -19.3010   22.3663 O   0  0  0  0  0  0
  -31.4484  -13.0671   19.1943 H   0  0  0  0  0  0
  -30.5145  -11.9643   20.1549 H   0  0  0  0  0  0
  -29.9298  -11.7578   17.7120 H   0  0  0  0  0  0
  -29.5556  -13.4622   17.6415 H   0  0  0  0  0  0
  -28.0585  -11.2824   19.1125 H   0  0  0  0  0  0
  -27.4215  -12.3253   17.8657 H   0  0  0  0  0  0
  -27.5100  -14.2427   19.3079 H   0  0  0  0  0  0
  -28.8174  -12.5755   21.5113 H   0  0  0  0  0  0
  -28.2620  -14.2276   21.6712 H   0  0  0  0  0  0
  -25.2777   -9.5676   22.4766 H   0  0  0  0  0  0
  -23.9996   -7.4637   22.7490 H   0  0  0  0  0  0
  -21.0849   -8.8787   19.8962 H   0  0  0  0  0  0
  -22.3720  -10.9671   19.6168 H   0  0  0  0  0  0
  -21.2024   -7.6152   23.9712 H   0  0  0  0  0  0
  -21.1474   -6.0520   25.9071 H   0  0  0  0  0  0
  -22.0601   -2.7605   23.2842 H   0  0  0  0  0  0
  -22.4037  -11.9835   22.4847 H   0  0  0  0  0  0
  -21.1022  -13.1174   22.2675 H   0  0  0  0  0  0
  -24.6170  -15.8430   20.5144 H   0  0  0  0  0  0
  -26.2273  -15.6411   20.0471 H   0  0  0  0  0  0
  -26.7391  -32.5074   23.0861 H   0  0  0  0  0  0
  -25.0054  -33.9461   25.0161 H   0  0  0  0  0  0
  -22.8031  -31.2595   21.3378 H   0  0  0  0  0  0
  -23.3743  -35.9541   23.3338 H   0  0  0  0  0  0
  -24.3547  -36.8829   22.2067 H   0  0  0  0  0  0
  -23.7249  -37.6397   23.6711 H   0  0  0  0  0  0
  -26.2419  -31.3397   20.6209 H   0  0  0  0  0  0
  -26.9165  -30.6634   22.0621 H   0  0  0  0  0  0
  -28.1430  -28.5405   21.3203 H   0  0  0  0  0  0
  -25.8840  -25.7073   18.9988 H   0  0  0  0  0  0
  -24.0200  -27.2540   18.9367 H   0  0  0  0  0  0
  -23.8866  -30.5032   19.3844 H   0  0  0  0  0  0
  -22.8379  -29.1916   19.8250 H   0  0  0  0  0  0
  -25.1323  -36.1768   25.0787 H   0  0  0  0  0  0
  -21.0048  -28.3367   24.1298 H   0  0  0  0  0  0
  -20.5678  -26.2369   23.3648 H   0  0  0  0  0  0
  -21.6653  -26.7394   22.1201 H   0  0  0  0  0  0
  -19.6939  -25.6264   21.1267 H   0  0  0  0  0  0
  -19.6718  -27.3158   20.6738 H   0  0  0  0  0  0
  -17.4220  -26.6704   21.4009 H   0  0  0  0  0  0
  -18.0333  -26.0091   22.9024 H   0  0  0  0  0  0
  -19.7988  -30.7319   24.2166 H   0  0  0  0  0  0
  -17.5054  -31.6269   24.5168 H   0  0  0  0  0  0
  -15.5384  -30.2963   23.7709 H   0  0  0  0  0  0
  -15.8712  -28.0804   22.7112 H   0  0  0  0  0  0
  -24.5861  -30.7137   25.7651 H   0  0  0  0  0  0
  -24.8823  -32.3000   26.4638 H   0  0  0  0  0  0
  -25.7845  -30.9053   27.0225 H   0  0  0  0  0  0
  -26.3160  -29.6526   24.1464 H   0  0  0  0  0  0
  -27.3968  -29.7276   25.5161 H   0  0  0  0  0  0
  -27.9103  -30.4056   23.9922 H   0  0  0  0  0  0
  -27.2623  -33.3753   26.1875 H   0  0  0  0  0  0
  -28.3929  -32.6797   25.0355 H   0  0  0  0  0  0
  -28.0619  -31.8616   26.5556 H   0  0  0  0  0  0
  -28.2583  -38.0048   24.7470 H   0  0  0  0  0  0
  -28.1047  -36.2570   24.6373 H   0  0  0  0  0  0
  -27.2273  -37.1487   25.8878 H   0  0  0  0  0  0
  -20.9625  -29.8748   21.6650 H   0  0  0  0  0  0
  -26.0134  -38.2758   24.1379 H   0  0  0  0  0  0
  -28.4540  -21.0069   19.0085 H   0  0  0  0  0  0
  -29.2891  -23.6017   22.3706 H   0  0  0  0  0  0
  -30.5043  -18.3409   19.2966 H   0  0  0  0  0  0
  -31.4504  -17.4224   21.8595 H   0  0  0  0  0  0
  -30.2232  -22.6453   24.3215 H   0  0  0  0  0  0
  -31.6868  -21.8456   23.7328 H   0  0  0  0  0  0
  -30.3918  -20.9017   24.4782 H   0  0  0  0  0  0
  -32.5391  -19.7358   20.1989 H   0  0  0  0  0  0
  -32.9230  -18.0293   19.9699 H   0  0  0  0  0  0
  -33.3939  -18.8414   21.4569 H   0  0  0  0  0  0
  -26.9415  -23.9418   20.1575 H   0  0  0  0  0  0
  -28.1041  -24.0689   18.8964 H   0  0  0  0  0  0
  -28.7068  -16.5013   20.5975 H   0  0  0  0  0  0
  1 25  1  0  0  0
  1 30  2  0  0  0
  1 82  1  0  0  0
  2  3  1  0  0  0
  2 25  1  0  0  0
  2 84  1  0  0  0
  2 85  1  0  0  0
  3  4  1  0  0  0
  3 86  1  0  0  0
  3 87  1  0  0  0
  4  5  1  0  0  0
  4 88  1  0  0  0
  4 89  1  0  0  0
  5  6  1  0  0  0
  5 26  1  0  0  0
  5 90  1  0  0  0
  6 25  1  0  0  0
  6 91  1  0  0  0
  6 92  1  0  0  0
  7  8  2  0  0  0
  7 26  1  0  0  0
  7 29  1  0  0  0
  8  9  1  0  0  0
  8 22  1  0  0  0
  9 10  1  0  0  0
  9 27  2  0  0  0
 10 11  2  0  0  0
 10 15  1  0  0  0
 11 12  1  0  0  0
 11 93  1  0  0  0
 12 13  2  0  0  0
 12 94  1  0  0  0
 13 14  1  0  0  0
 13 31  1  0  0  0
 14 15  2  0  0  0
 14 95  1  0  0  0
 15 96  1  0  0  0
 16 17  2  0  0  0
 16 21  1  0  0  0
 16 31  1  0  0  0
 17 18  1  0  0  0
 17 97  1  0  0  0
 18 19  2  0  0  0
 18 98  1  0  0  0
 19 20  1  0  0  0
 19 24  1  0  0  0
 20 21  2  0  0  0
 20 99  1  0  0  0
 21 23  1  0  0  0
 22 28  1  0  0  0
 22 32  2  0  0  0
 26 27  1  0  0  0
 28100  1  0  0  0
 28101  1  0  0  0
 29102  1  0  0  0
 29103  1  0  0  0
 33 34  1  0  0  0
 33 66  1  0  0  0
 33 70  2  0  0  0
 34 36  1  0  0  0
 34 59  1  0  0  0
 34104  1  0  0  0
 35 44  2  0  0  0
 35 45  1  0  0  0
 35 68  1  0  0  0
 36 56  1  0  0  0
 36105  1  0  0  0
 37 39  1  0  0  0
 37 47  1  0  0  0
 37 66  1  0  0  0
 37106  1  0  0  0
 38 43  2  0  0  0
 38 46  1  0  0  0
 38 47  1  0  0  0
 39 64  1  0  0  0
 39 67  2  0  0  0
 40 52  1  0  0  0
 40 53  2  0  0  0
 40 58  1  0  0  0
 41107  1  0  0  0
 41108  1  0  0  0
 41109  1  0  0  0
 41 48  1  0  0  0
 42 43  1  0  0  0
 42 66  1  0  0  0
 42110  1  0  0  0
 42111  1  0  0  0
 43 44  1  0  0  0
 44112  1  0  0  0
 45 46  2  0  0  0
 45113  1  0  0  0
 46114  1  0  0  0
 47115  1  0  0  0
 47116  1  0  0  0
 48 56  1  0  0  0
 48 65  1  0  0  0
 48117  1  0  0  0
 49 50  1  0  0  0
 49 53  1  0  0  0
 49 64  1  0  0  0
 49118  1  0  0  0
 50 51  1  0  0  0
 50119  1  0  0  0
 50120  1  0  0  0
 51 52  1  0  0  0
 51121  1  0  0  0
 51122  1  0  0  0
 52123  1  0  0  0
 52124  1  0  0  0
 53 54  1  0  0  0
 54 55  2  0  0  0
 54125  1  0  0  0
 55 57  1  0  0  0
 55126  1  0  0  0
 56 69  2  0  0  0
 57 58  2  0  0  0
 57127  1  0  0  0
 58128  1  0  0  0
 59 60  1  0  0  0
 59 61  1  0  0  0
 59 62  1  0  0  0
 60129  1  0  0  0
 60130  1  0  0  0
 60131  1  0  0  0
 61132  1  0  0  0
 61133  1  0  0  0
 61134  1  0  0  0
 62135  1  0  0  0
 62136  1  0  0  0
 62137  1  0  0  0
 63 65  1  0  0  0
 63138  1  0  0  0
 63139  1  0  0  0
 63140  1  0  0  0
 64141  1  0  0  0
 65142  1  0  0  0
 68 81  1  0  0  0
 71 73  2  0  0  0
 71 74  1  0  0  0
 71143  1  0  0  0
 72 74  2  0  0  0
 72 75  1  0  0  0
 72144  1  0  0  0
 73 76  1  0  0  0
 73 77  1  0  0  0
 74 81  1  0  0  0
 75 76  2  0  0  0
 75 79  1  0  0  0
 76 83  1  0  0  0
 77 78  1  0  0  0
 77 82  1  0  0  0
 77145  1  0  0  0
 78 80  1  0  0  0
 78 83  1  0  0  0
 78146  1  0  0  0
 79147  1  0  0  0
 79148  1  0  0  0
 79149  1  0  0  0
 80150  1  0  0  0
 80151  1  0  0  0
 80152  1  0  0  0
 81153  1  0  0  0
 81154  1  0  0  0
 82155  1  0  0  0
M  ISO  4   1 100  68 101  81 101  82 100
M  END
> <chiral flag>
0

> <version>
0

> <s_m_source_file>
/data/baiqing/PycharmProjects/Reinvent-master-3.2/result/LINK_invent/BTK/process_docking_weight1_custom_sum_contain_oxygen_bond_distance_aromatic_linkinvent_7_9_3/rearranged_h_0158.sdf

> <i_m_source_file_index>
59

> <r_mmod_Potential_Energy-OPLS-2005>
1421.91613769531

> <r_mmod_Stretch_Energy-OPLS-2005>
645.446472167969

> <r_mmod_Bend_Energy-OPLS-2005>
527.201782226562

> <r_mmod_Torsional_Energy-OPLS-2005>
237.081634521484

> <r_mmod_Improper_Torsional_Energy-OPLS-2005>
9.51332950592041

> <r_mmod_Van_der_Waal_Energy-OPLS-2005>
124.157127380371

> <r_mmod_Electrostatic_Energy-OPLS-2005>
-446.255401611328

> <r_mmod_Solvation_Energy-OPLS-2005>
-210.524826049805

> <b_mmod_Minimization_Converged-OPLS-2005>
0

> <r_mmod_RMS_Derivative-OPLS-2005>
2.08155918121338

$$$$
59
                    3D
 Structure written by MMmdl.
164173  0  0  1  0            999 V2000
  -30.6840  -14.6856   20.4792 C   0  0  0  0  0  0
  -30.4148  -12.4310   19.4541 C   0  0  0  0  0  0
  -29.4962  -12.5022   18.2179 C   0  0  0  0  0  0
  -28.0215  -12.3430   18.6346 C   0  0  0  0  0  0
  -27.6386  -13.2354   19.8470 C   0  0  2  0  0  0
  -28.6885  -13.1541   20.9736 C   0  0  0  0  0  0
  -25.2502  -13.8204   20.5705 C   0  0  0  0  0  0
  -24.1795  -13.0443   20.9205 C   0  0  0  0  0  0
  -24.6391  -11.6922   20.8742 C   0  0  0  0  0  0
  -23.9072  -10.4296   21.0405 C   0  0  0  0  0  0
  -24.3622   -9.4213   21.9183 C   0  0  0  0  0  0
  -23.6302   -8.2245   22.0750 C   0  0  0  0  0  0
  -22.4282   -8.0280   21.3543 C   0  0  0  0  0  0
  -21.9917   -9.0255   20.4648 C   0  0  0  0  0  0
  -22.7242  -10.2138   20.3057 C   0  0  0  0  0  0
  -21.6857   -6.0733   22.5279 C   0  0  0  0  0  0
  -21.4017   -6.5636   23.8211 C   0  0  0  0  0  0
  -21.3660   -5.6790   24.9174 C   0  0  0  0  0  0
  -21.6045   -4.3052   24.7223 C   0  0  0  0  0  0
  -21.8820   -3.8143   23.4344 C   0  0  0  0  0  0
  -21.9194   -4.6960   22.3401 C   0  0  0  0  0  0
  -22.7821  -13.5225   21.1866 C   0  0  0  0  0  0
  -22.1666   -4.2145   21.0980 F   0  0  0  0  0  0
  -21.5629   -3.4537   25.7736 F   0  0  0  0  0  0
  -29.9817  -13.5060   20.3770 N   0  0  0  0  0  0
  -26.2929  -12.9422   20.3291 N   0  0  0  0  0  0
  -25.9322  -11.6556   20.5750 N   0  0  0  0  0  0
  -22.0472  -12.8213   22.0423 N   0  0  0  0  0  0
  -25.4199  -15.1923   20.4133 N   0  0  0  0  0  0
  -31.8912  -14.6705   20.2157 O   0  0  0  0  0  0
  -21.6644   -6.8878   21.4242 O   0  0  0  0  0  0
  -22.3504  -14.5532   20.6716 O   0  0  0  0  0  0
  -24.6300  -31.8591   23.2037 C   0  0  0  0  0  0
  -25.9141  -32.4770   23.8360 C   0  0  1  0  0  0
  -27.2067  -27.2862   20.1107 C   0  0  0  0  0  0
  -25.5948  -33.8574   24.2278 N   0  0  0  0  0  0
  -23.4233  -30.4873   21.5477 C   0  0  2  0  0  0
  -24.8654  -28.9465   20.1102 C   0  0  0  0  0  0
  -22.7493  -29.4626   22.4924 C   0  0  0  0  0  0
  -18.0290  -28.1384   22.8487 C   0  0  0  0  0  0
  -24.1490  -36.7288   23.2636 C   0  0  0  0  0  0
  -25.9709  -30.7795   21.3816 C   0  0  0  0  0  0
  -26.0408  -29.4079   20.7163 C   0  0  0  0  0  0
  -27.2164  -28.5913   20.7050 C   0  0  0  0  0  0
  -26.0012  -26.8940   19.4795 C   0  0  0  0  0  0
  -24.8498  -27.6965   19.4824 C   0  0  0  0  0  0
  -23.6384  -29.8321   20.1606 C   0  0  0  0  0  0
  -25.4115  -36.3076   24.0326 C   0  0  1  0  0  0
  -20.5895  -28.3693   23.1276 C   0  0  2  0  0  0
  -20.6781  -26.9416   22.5407 C   0  0  0  0  0  0
  -19.5754  -26.6385   21.5214 C   0  0  0  0  0  0
  -18.1934  -26.7928   22.1624 C   0  0  0  0  0  0
  -19.1543  -28.8855   23.2877 C   0  0  0  0  0  0
  -18.9462  -30.1455   23.8894 C   0  0  0  0  0  0
  -17.6463  -30.6587   24.0560 C   0  0  0  0  0  0
  -25.9059  -34.9445   23.5100 C   0  0  0  0  0  0
  -16.5353  -29.9083   23.6332 C   0  0  0  0  0  0
  -16.7277  -28.6499   23.0356 C   0  0  0  0  0  0
  -26.4504  -31.6590   25.0745 C   0  0  0  0  0  0
  -25.3728  -31.3752   26.1468 C   0  0  0  0  0  0
  -27.0346  -30.3000   24.6241 C   0  0  0  0  0  0
  -27.6055  -32.4332   25.7520 C   0  0  0  0  0  0
  -27.5583  -37.1796   24.8458 C   0  0  0  0  0  0
  -21.4202  -29.3050   22.3670 N   0  0  0  0  0  0
  -26.4285  -37.3777   23.9413 N   0  0  0  0  0  0
  -24.6939  -31.0584   22.1001 N   0  0  0  0  0  0
  -23.4209  -28.8156   23.2999 O   0  0  0  0  0  0
  -28.2971  -26.3895   20.1604 O   0  0  0  0  0  0
  -26.5622  -34.8914   22.4663 O   0  0  0  0  0  0
  -23.5457  -32.1400   23.7350 O   0  0  0  0  0  0
  -31.3536  -22.9751   19.6661 C   0  0  0  0  0  0
  -28.7534  -22.4382   20.4848 C   0  0  0  0  0  0
  -30.4114  -24.0267   19.6561 C   0  0  0  0  0  0
  -31.0228  -21.6691   20.0881 C   0  0  0  0  0  0
  -29.0839  -23.7964   20.0929 C   0  0  0  0  0  0
  -29.7024  -21.3477   20.4830 C   0  0  0  0  0  0
  -29.8079  -18.2263   19.2088 C   0  0  0  0  0  0
  -28.4005  -17.7714   21.2028 C   0  0  0  0  0  0
  -30.7043  -17.0251   19.6719 C   0  0  0  0  0  0
  -29.3741  -16.5836   21.5707 C   0  0  0  0  0  0
  -28.9322  -18.9254   20.2849 C   0  0  0  0  0  0
  -30.8572  -25.3911   19.1577 C   0  0  0  0  0  0
  -32.1356  -20.6356   20.1467 C   0  0  0  0  0  0
  -27.9888  -24.9320   20.0051 C   0  0  0  0  0  0
  -30.0228  -15.9166   20.4120 N   0  0  0  0  0  0
  -29.4731  -20.0663   21.0375 O   0  0  0  0  0  0
  -31.4573  -12.5265   19.1457 H   0  0  0  0  0  0
  -30.3389  -11.4553   19.9369 H   0  0  0  0  0  0
  -29.7690  -11.7294   17.4980 H   0  0  0  0  0  0
  -29.6334  -13.4580   17.7091 H   0  0  0  0  0  0
  -27.8648  -11.2934   18.8847 H   0  0  0  0  0  0
  -27.3650  -12.5527   17.7896 H   0  0  0  0  0  0
  -27.6371  -14.2626   19.4802 H   0  0  0  0  0  0
  -28.7242  -12.1494   21.3979 H   0  0  0  0  0  0
  -28.4262  -13.8126   21.7976 H   0  0  0  0  0  0
  -25.2768   -9.5694   22.4757 H   0  0  0  0  0  0
  -24.0011   -7.4635   22.7467 H   0  0  0  0  0  0
  -21.0845   -8.8778   19.8956 H   0  0  0  0  0  0
  -22.3699  -10.9676   19.6166 H   0  0  0  0  0  0
  -21.2013   -7.6146   23.9713 H   0  0  0  0  0  0
  -21.1484   -6.0521   25.9078 H   0  0  0  0  0  0
  -22.0600   -2.7604   23.2843 H   0  0  0  0  0  0
  -22.4098  -11.9878   22.4813 H   0  0  0  0  0  0
  -21.1090  -13.1238   22.2629 H   0  0  0  0  0  0
  -24.6564  -15.8497   20.5282 H   0  0  0  0  0  0
  -26.2787  -15.6287   20.1052 H   0  0  0  0  0  0
  -26.7205  -32.5419   23.1100 H   0  0  0  0  0  0
  -25.0097  -33.9716   25.0423 H   0  0  0  0  0  0
  -22.7182  -31.3096   21.4090 H   0  0  0  0  0  0
  -23.3758  -35.9614   23.3282 H   0  0  0  0  0  0
  -24.3586  -36.8928   22.2055 H   0  0  0  0  0  0
  -23.7234  -37.6481   23.6670 H   0  0  0  0  0  0
  -26.1139  -31.5462   20.6189 H   0  0  0  0  0  0
  -26.8467  -30.8181   22.0179 H   0  0  0  0  0  0
  -28.1161  -28.9405   21.1919 H   0  0  0  0  0  0
  -25.8938  -25.9454   18.9798 H   0  0  0  0  0  0
  -23.9496  -27.3377   19.0019 H   0  0  0  0  0  0
  -23.7646  -30.6135   19.4104 H   0  0  0  0  0  0
  -22.7556  -29.2694   19.8522 H   0  0  0  0  0  0
  -25.1292  -36.1919   25.0818 H   0  0  0  0  0  0
  -20.9984  -28.3266   24.1397 H   0  0  0  0  0  0
  -20.5690  -26.2303   23.3607 H   0  0  0  0  0  0
  -21.6647  -26.7447   22.1195 H   0  0  0  0  0  0
  -19.6918  -25.6295   21.1248 H   0  0  0  0  0  0
  -19.6694  -27.3192   20.6742 H   0  0  0  0  0  0
  -17.4207  -26.6674   21.4025 H   0  0  0  0  0  0
  -18.0334  -26.0070   22.9018 H   0  0  0  0  0  0
  -19.7937  -30.7271   24.2264 H   0  0  0  0  0  0
  -17.5017  -31.6268   24.5161 H   0  0  0  0  0  0
  -15.5354  -30.2984   23.7661 H   0  0  0  0  0  0
  -15.8676  -28.0819   22.7075 H   0  0  0  0  0  0
  -24.5896  -30.7107   25.7801 H   0  0  0  0  0  0
  -24.8930  -32.2930   26.4877 H   0  0  0  0  0  0
  -25.8043  -30.8939   27.0253 H   0  0  0  0  0  0
  -26.2936  -29.6755   24.1238 H   0  0  0  0  0  0
  -27.3983  -29.7258   25.4772 H   0  0  0  0  0  0
  -27.8836  -30.4257   23.9517 H   0  0  0  0  0  0
  -27.2651  -33.3626   26.2095 H   0  0  0  0  0  0
  -28.3868  -32.6904   25.0357 H   0  0  0  0  0  0
  -28.0723  -31.8465   26.5440 H   0  0  0  0  0  0
  -28.2578  -38.0115   24.7528 H   0  0  0  0  0  0
  -28.1097  -36.2646   24.6244 H   0  0  0  0  0  0
  -27.2307  -37.1399   25.8862 H   0  0  0  0  0  0
  -20.9382  -29.8781   21.6889 H   0  0  0  0  0  0
  -26.0162  -38.2845   24.1431 H   0  0  0  0  0  0
  -32.3692  -23.1771   19.3537 H   0  0  0  0  0  0
  -27.7450  -22.2328   20.8145 H   0  0  0  0  0  0
  -29.1286  -17.8290   18.4535 H   0  0  0  0  0  0
  -30.4052  -18.9652   18.6770 H   0  0  0  0  0  0
  -27.9894  -18.2035   22.1156 H   0  0  0  0  0  0
  -27.5446  -17.3269   20.6943 H   0  0  0  0  0  0
  -31.5223  -17.4055   20.2863 H   0  0  0  0  0  0
  -31.1770  -16.6211   18.7741 H   0  0  0  0  0  0
  -28.8255  -15.8609   22.1700 H   0  0  0  0  0  0
  -30.1572  -16.9615   22.2305 H   0  0  0  0  0  0
  -28.0690  -19.3488   19.7679 H   0  0  0  0  0  0
  -31.8510  -25.3522   18.7113 H   0  0  0  0  0  0
  -30.8911  -26.1051   19.9807 H   0  0  0  0  0  0
  -30.1746  -25.7701   18.3967 H   0  0  0  0  0  0
  -33.0579  -21.0892   20.5103 H   0  0  0  0  0  0
  -32.3316  -20.2298   19.1547 H   0  0  0  0  0  0
  -31.8999  -19.8097   20.8169 H   0  0  0  0  0  0
  -27.1927  -24.6724   20.7046 H   0  0  0  0  0  0
  -27.5916  -24.7813   19.0024 H   0  0  0  0  0  0
  1 25  1  0  0  0
  1 30  2  0  0  0
  1 85  1  0  0  0
  2  3  1  0  0  0
  2 25  1  0  0  0
  2 87  1  0  0  0
  2 88  1  0  0  0
  3  4  1  0  0  0
  3 89  1  0  0  0
  3 90  1  0  0  0
  4  5  1  0  0  0
  4 91  1  0  0  0
  4 92  1  0  0  0
  5  6  1  0  0  0
  5 26  1  0  0  0
  5 93  1  0  0  0
  6 25  1  0  0  0
  6 94  1  0  0  0
  6 95  1  0  0  0
  7  8  2  0  0  0
  7 26  1  0  0  0
  7 29  1  0  0  0
  8  9  1  0  0  0
  8 22  1  0  0  0
  9 10  1  0  0  0
  9 27  2  0  0  0
 10 11  2  0  0  0
 10 15  1  0  0  0
 11 12  1  0  0  0
 11 96  1  0  0  0
 12 13  2  0  0  0
 12 97  1  0  0  0
 13 14  1  0  0  0
 13 31  1  0  0  0
 14 15  2  0  0  0
 14 98  1  0  0  0
 15 99  1  0  0  0
 16 17  2  0  0  0
 16 21  1  0  0  0
 16 31  1  0  0  0
 17 18  1  0  0  0
 17100  1  0  0  0
 18 19  2  0  0  0
 18101  1  0  0  0
 19 20  1  0  0  0
 19 24  1  0  0  0
 20 21  2  0  0  0
 20102  1  0  0  0
 21 23  1  0  0  0
 22 28  1  0  0  0
 22 32  2  0  0  0
 26 27  1  0  0  0
 28103  1  0  0  0
 28104  1  0  0  0
 29105  1  0  0  0
 29106  1  0  0  0
 33 34  1  0  0  0
 33 66  1  0  0  0
 33 70  2  0  0  0
 34 36  1  0  0  0
 34 59  1  0  0  0
 34107  1  0  0  0
 35 44  2  0  0  0
 35 45  1  0  0  0
 35 68  1  0  0  0
 36 56  1  0  0  0
 36108  1  0  0  0
 37 39  1  0  0  0
 37 47  1  0  0  0
 37 66  1  0  0  0
 37109  1  0  0  0
 38 43  2  0  0  0
 38 46  1  0  0  0
 38 47  1  0  0  0
 39 64  1  0  0  0
 39 67  2  0  0  0
 40 52  1  0  0  0
 40 53  2  0  0  0
 40 58  1  0  0  0
 41110  1  0  0  0
 41111  1  0  0  0
 41112  1  0  0  0
 41 48  1  0  0  0
 42 43  1  0  0  0
 42 66  1  0  0  0
 42113  1  0  0  0
 42114  1  0  0  0
 43 44  1  0  0  0
 44115  1  0  0  0
 45 46  2  0  0  0
 45116  1  0  0  0
 46117  1  0  0  0
 47118  1  0  0  0
 47119  1  0  0  0
 48 56  1  0  0  0
 48 65  1  0  0  0
 48120  1  0  0  0
 49 50  1  0  0  0
 49 53  1  0  0  0
 49 64  1  0  0  0
 49121  1  0  0  0
 50 51  1  0  0  0
 50122  1  0  0  0
 50123  1  0  0  0
 51 52  1  0  0  0
 51124  1  0  0  0
 51125  1  0  0  0
 52126  1  0  0  0
 52127  1  0  0  0
 53 54  1  0  0  0
 54 55  2  0  0  0
 54128  1  0  0  0
 55 57  1  0  0  0
 55129  1  0  0  0
 56 69  2  0  0  0
 57 58  2  0  0  0
 57130  1  0  0  0
 58131  1  0  0  0
 59 60  1  0  0  0
 59 61  1  0  0  0
 59 62  1  0  0  0
 60132  1  0  0  0
 60133  1  0  0  0
 60134  1  0  0  0
 61135  1  0  0  0
 61136  1  0  0  0
 61137  1  0  0  0
 62138  1  0  0  0
 62139  1  0  0  0
 62140  1  0  0  0
 63 65  1  0  0  0
 63141  1  0  0  0
 63142  1  0  0  0
 63143  1  0  0  0
 64144  1  0  0  0
 65145  1  0  0  0
 68 84  1  0  0  0
 71 73  2  0  0  0
 71 74  1  0  0  0
 71146  1  0  0  0
 72 75  2  0  0  0
 72 76  1  0  0  0
 72147  1  0  0  0
 73 75  1  0  0  0
 73 82  1  0  0  0
 74 76  2  0  0  0
 74 83  1  0  0  0
 75 84  1  0  0  0
 76 86  1  0  0  0
 77 79  1  0  0  0
 77 81  1  0  0  0
 77148  1  0  0  0
 77149  1  0  0  0
 78 80  1  0  0  0
 78 81  1  0  0  0
 78150  1  0  0  0
 78151  1  0  0  0
 79 85  1  0  0  0
 79152  1  0  0  0
 79153  1  0  0  0
 80 85  1  0  0  0
 80154  1  0  0  0
 80155  1  0  0  0
 81 86  1  0  0  0
 81156  1  0  0  0
 82157  1  0  0  0
 82158  1  0  0  0
 82159  1  0  0  0
 83160  1  0  0  0
 83161  1  0  0  0
 83162  1  0  0  0
 84163  1  0  0  0
 84164  1  0  0  0
M  ISO  4   1 100  68 101  84 101  85 100
M  END
> <chiral flag>
0

> <version>
0

> <s_m_source_file>
/data/baiqing/PycharmProjects/Reinvent-master-3.2/result/LINK_invent/BTK/process_docking_weight1_custom_sum_contain_oxygen_bond_distance_aromatic_linkinvent_7_9_3/rearranged_h_0158.sdf

> <i_m_source_file_index>
60

> <r_mmod_Potential_Energy-OPLS-2005>
385.795562744141

> <r_mmod_Stretch_Energy-OPLS-2005>
99.2583618164062

> <r_mmod_Bend_Energy-OPLS-2005>
187.7763671875

> <r_mmod_Torsional_Energy-OPLS-2005>
350.688842773438

> <r_mmod_Improper_Torsional_Energy-OPLS-2005>
19.6671009063721

> <r_mmod_Van_der_Waal_Energy-OPLS-2005>
151.998016357422

> <r_mmod_Electrostatic_Energy-OPLS-2005>
-300.790222167969

> <r_mmod_Solvation_Energy-OPLS-2005>
-194.421081542969

> <b_mmod_Minimization_Converged-OPLS-2005>
0

> <r_mmod_RMS_Derivative-OPLS-2005>
0.701591610908508

$$$$
60
                    3D
 Structure written by MMmdl.
176186  0  0  1  0            999 V2000
  -30.7276  -14.4044   20.5677 C   0  0  0  0  0  0
  -30.4137  -12.2641   19.4105 C   0  0  0  0  0  0
  -29.4928  -12.4946   18.1957 C   0  0  0  0  0  0
  -28.0107  -12.3731   18.6045 C   0  0  0  0  0  0
  -27.6592  -13.1993   19.8722 C   0  0  2  0  0  0
  -28.7014  -12.9676   20.9892 C   0  0  0  0  0  0
  -25.2606  -13.8142   20.5689 C   0  0  0  0  0  0
  -24.1844  -13.0428   20.9172 C   0  0  0  0  0  0
  -24.6372  -11.6895   20.8708 C   0  0  0  0  0  0
  -23.9029  -10.4295   21.0388 C   0  0  0  0  0  0
  -24.3587   -9.4212   21.9167 C   0  0  0  0  0  0
  -23.6266   -8.2254   22.0744 C   0  0  0  0  0  0
  -22.4250   -8.0284   21.3547 C   0  0  0  0  0  0
  -21.9876   -9.0250   20.4652 C   0  0  0  0  0  0
  -22.7195  -10.2133   20.3039 C   0  0  0  0  0  0
  -21.6861   -6.0714   22.5271 C   0  0  0  0  0  0
  -21.4024   -6.5611   23.8204 C   0  0  0  0  0  0
  -21.3664   -5.6764   24.9160 C   0  0  0  0  0  0
  -21.6059   -4.3035   24.7230 C   0  0  0  0  0  0
  -21.8814   -3.8123   23.4351 C   0  0  0  0  0  0
  -21.9198   -4.6937   22.3400 C   0  0  0  0  0  0
  -22.7868  -13.5255   21.1838 C   0  0  0  0  0  0
  -22.1664   -4.2114   21.0985 F   0  0  0  0  0  0
  -21.5625   -3.4535   25.7755 F   0  0  0  0  0  0
  -30.0345  -13.2466   20.4324 N   0  0  0  0  0  0
  -26.3014  -12.9293   20.3345 N   0  0  0  0  0  0
  -25.9303  -11.6456   20.5739 N   0  0  0  0  0  0
  -22.0471  -12.8290   22.0400 N   0  0  0  0  0  0
  -25.4348  -15.1869   20.4150 N   0  0  0  0  0  0
  -31.8752  -14.5606   20.1353 O   0  0  0  0  0  0
  -21.6623   -6.8871   21.4238 O   0  0  0  0  0  0
  -22.3565  -14.5545   20.6636 O   0  0  0  0  0  0
  -24.6067  -31.8729   23.2112 C   0  0  0  0  0  0
  -25.8960  -32.4859   23.8404 C   0  0  1  0  0  0
  -27.2402  -27.4803   20.0880 C   0  0  0  0  0  0
  -25.5830  -33.8669   24.2299 N   0  0  0  0  0  0
  -23.3982  -30.4919   21.5529 C   0  0  2  0  0  0
  -24.8497  -28.9660   20.1111 C   0  0  0  0  0  0
  -22.7402  -29.4654   22.5006 C   0  0  0  0  0  0
  -18.0270  -28.1385   22.8498 C   0  0  0  0  0  0
  -24.1475  -36.7351   23.2654 C   0  0  0  0  0  0
  -25.9220  -30.8500   21.3618 C   0  0  0  0  0  0
  -26.0032  -29.4883   20.7080 C   0  0  0  0  0  0
  -27.2047  -28.7495   20.7004 C   0  0  0  0  0  0
  -26.0801  -26.9651   19.4810 C   0  0  0  0  0  0
  -24.8790  -27.7028   19.4945 C   0  0  0  0  0  0
  -23.6059  -29.8226   20.1672 C   0  0  0  0  0  0
  -25.4116  -36.3159   24.0329 C   0  0  1  0  0  0
  -20.5861  -28.3648   23.1329 C   0  0  2  0  0  0
  -20.6745  -26.9388   22.5425 C   0  0  0  0  0  0
  -19.5718  -26.6392   21.5228 C   0  0  0  0  0  0
  -18.1903  -26.7934   22.1634 C   0  0  0  0  0  0
  -19.1521  -28.8835   23.2907 C   0  0  0  0  0  0
  -18.9458  -30.1445   23.8911 C   0  0  0  0  0  0
  -17.6457  -30.6593   24.0566 C   0  0  0  0  0  0
  -25.9033  -34.9519   23.5133 C   0  0  0  0  0  0
  -16.5348  -29.9090   23.6339 C   0  0  0  0  0  0
  -16.7264  -28.6513   23.0365 C   0  0  0  0  0  0
  -26.4430  -31.6669   25.0728 C   0  0  0  0  0  0
  -25.3709  -31.3791   26.1488 C   0  0  0  0  0  0
  -27.0306  -30.3122   24.6154 C   0  0  0  0  0  0
  -27.6004  -32.4453   25.7431 C   0  0  0  0  0  0
  -27.5595  -37.1840   24.8458 C   0  0  0  0  0  0
  -21.4136  -29.3009   22.3744 N   0  0  0  0  0  0
  -26.4313  -37.3834   23.9386 N   0  0  0  0  0  0
  -24.6600  -31.0847   22.1007 N   0  0  0  0  0  0
  -23.4191  -28.8217   23.3049 O   0  0  0  0  0  0
  -28.3719  -26.7085   20.1313 O   0  0  0  0  0  0
  -26.5631  -34.8968   22.4706 O   0  0  0  0  0  0
  -23.5249  -32.1481   23.7503 O   0  0  0  0  0  0
  -28.4810  -20.4366   21.3680 C   0  0  0  0  0  0
  -30.7072  -20.5651   22.3415 C   0  0  0  0  0  0
  -29.6940  -19.8074   21.7213 C   0  0  0  0  0  0
  -28.2957  -21.8156   21.5961 C   0  0  0  0  0  0
  -29.3271  -22.5743   22.2043 C   0  0  0  0  0  0
  -30.5293  -21.9421   22.6008 C   0  0  0  0  0  0
  -32.4542  -23.0969   25.4158 C   0  0  0  0  0  0
  -31.2619  -22.1777   25.6067 C   0  0  0  0  0  0
  -29.6421  -17.4015   22.5723 C   0  0  0  0  0  0
  -29.2118  -17.8056   20.1897 C   0  0  0  0  0  0
  -30.1717  -15.9803   22.2966 C   0  0  0  0  0  0
  -29.7497  -16.4270   19.7975 C   0  0  0  0  0  0
  -29.9623  -18.3407   21.4099 C   0  0  0  0  0  0
  -32.1055  -22.0815   24.3570 C   0  0  0  0  0  0
  -26.9871  -22.4588   21.1635 C   0  0  0  0  0  0
  -30.8932  -25.2288   21.2758 C   0  0  0  0  0  0
  -28.4768  -26.0371   21.3854 C   0  0  0  0  0  0
  -29.4150  -24.8174   21.3229 C   0  0  2  0  0  0
  -29.9881  -15.4794   20.9146 N   0  0  0  0  0  0
  -29.1436  -23.9410   22.4606 N   0  0  0  0  0  0
  -31.4989  -22.6900   23.2291 O   0  0  0  0  0  0
  -31.4624  -12.3398   19.1160 H   0  0  0  0  0  0
  -30.2895  -11.2532   19.8010 H   0  0  0  0  0  0
  -29.7257  -11.7774   17.4066 H   0  0  0  0  0  0
  -29.6840  -13.4830   17.7748 H   0  0  0  0  0  0
  -27.8038  -11.3183   18.7844 H   0  0  0  0  0  0
  -27.3696  -12.6672   17.7727 H   0  0  0  0  0  0
  -27.7007  -14.2476   19.5855 H   0  0  0  0  0  0
  -28.6658  -11.9366   21.3444 H   0  0  0  0  0  0
  -28.4764  -13.5869   21.8582 H   0  0  0  0  0  0
  -25.2739   -9.5703   22.4725 H   0  0  0  0  0  0
  -23.9986   -7.4648   22.7459 H   0  0  0  0  0  0
  -21.0806   -8.8760   19.8973 H   0  0  0  0  0  0
  -22.3648  -10.9654   19.6136 H   0  0  0  0  0  0
  -21.2013   -7.6119   23.9708 H   0  0  0  0  0  0
  -21.1490   -6.0490   25.9066 H   0  0  0  0  0  0
  -22.0592   -2.7591   23.2852 H   0  0  0  0  0  0
  -22.4068  -11.9982   22.4876 H   0  0  0  0  0  0
  -21.1074  -13.1346   22.2528 H   0  0  0  0  0  0
  -24.6738  -15.8468   20.5357 H   0  0  0  0  0  0
  -26.3029  -15.6284   20.1357 H   0  0  0  0  0  0
  -26.7012  -32.5583   23.1161 H   0  0  0  0  0  0
  -24.9843  -33.9820   25.0344 H   0  0  0  0  0  0
  -22.6830  -31.3053   21.4153 H   0  0  0  0  0  0
  -23.3736  -35.9692   23.3336 H   0  0  0  0  0  0
  -24.3528  -36.8959   22.2067 H   0  0  0  0  0  0
  -23.7219  -37.6551   23.6667 H   0  0  0  0  0  0
  -26.0279  -31.6196   20.5960 H   0  0  0  0  0  0
  -26.8128  -30.9007   21.9773 H   0  0  0  0  0  0
  -28.0940  -29.1446   21.1692 H   0  0  0  0  0  0
  -26.0995  -25.9881   19.0202 H   0  0  0  0  0  0
  -23.9919  -27.2900   19.0346 H   0  0  0  0  0  0
  -23.6997  -30.5980   19.4082 H   0  0  0  0  0  0
  -22.7367  -29.2312   19.8752 H   0  0  0  0  0  0
  -25.1294  -36.2070   25.0829 H   0  0  0  0  0  0
  -20.9925  -28.3210   24.1458 H   0  0  0  0  0  0
  -20.5647  -26.2250   23.3600 H   0  0  0  0  0  0
  -21.6616  -26.7435   22.1226 H   0  0  0  0  0  0
  -19.6852  -25.6312   21.1232 H   0  0  0  0  0  0
  -19.6665  -27.3220   20.6779 H   0  0  0  0  0  0
  -17.4176  -26.6712   21.4023 H   0  0  0  0  0  0
  -18.0279  -26.0075   22.9024 H   0  0  0  0  0  0
  -19.7940  -30.7262   24.2269 H   0  0  0  0  0  0
  -17.5032  -31.6267   24.5186 H   0  0  0  0  0  0
  -15.5346  -30.2997   23.7678 H   0  0  0  0  0  0
  -15.8667  -28.0837   22.7068 H   0  0  0  0  0  0
  -24.5780  -30.7264   25.7802 H   0  0  0  0  0  0
  -24.9022  -32.2969   26.5041 H   0  0  0  0  0  0
  -25.8044  -30.8833   27.0165 H   0  0  0  0  0  0
  -26.2883  -29.6788   24.1285 H   0  0  0  0  0  0
  -27.4166  -29.7460   25.4652 H   0  0  0  0  0  0
  -27.8633  -30.4419   23.9253 H   0  0  0  0  0  0
  -27.2593  -33.3735   26.2024 H   0  0  0  0  0  0
  -28.3743  -32.7074   25.0212 H   0  0  0  0  0  0
  -28.0768  -31.8627   26.5314 H   0  0  0  0  0  0
  -28.2637  -38.0126   24.7533 H   0  0  0  0  0  0
  -28.1075  -36.2667   24.6258 H   0  0  0  0  0  0
  -27.2316  -37.1464   25.8865 H   0  0  0  0  0  0
  -20.9307  -29.8707   21.6935 H   0  0  0  0  0  0
  -26.0210  -38.2906   24.1397 H   0  0  0  0  0  0
  -27.6883  -19.8718   20.8985 H   0  0  0  0  0  0
  -31.6368  -20.0774   22.5959 H   0  0  0  0  0  0
  -33.3316  -22.9118   26.0336 H   0  0  0  0  0  0
  -32.2612  -24.1422   25.1807 H   0  0  0  0  0  0
  -30.2689  -22.6160   25.5172 H   0  0  0  0  0  0
  -31.3468  -21.3649   26.3263 H   0  0  0  0  0  0
  -30.0888  -17.7701   23.4972 H   0  0  0  0  0  0
  -28.5639  -17.3761   22.7461 H   0  0  0  0  0  0
  -28.1413  -17.7370   20.3861 H   0  0  0  0  0  0
  -29.3255  -18.4818   19.3398 H   0  0  0  0  0  0
  -29.7082  -15.2829   22.9976 H   0  0  0  0  0  0
  -31.2377  -15.9696   22.5363 H   0  0  0  0  0  0
  -30.6785  -16.5903   19.2443 H   0  0  0  0  0  0
  -29.0620  -15.9781   19.0793 H   0  0  0  0  0  0
  -31.0308  -18.2691   21.1980 H   0  0  0  0  0  0
  -32.7690  -21.2358   24.1836 H   0  0  0  0  0  0
  -26.3002  -21.7244   20.7446 H   0  0  0  0  0  0
  -27.1664  -23.2147   20.3998 H   0  0  0  0  0  0
  -26.4886  -22.9322   22.0081 H   0  0  0  0  0  0
  -31.0999  -25.8346   20.3934 H   0  0  0  0  0  0
  -31.5535  -24.3629   21.2281 H   0  0  0  0  0  0
  -31.1712  -25.8138   22.1517 H   0  0  0  0  0  0
  -28.8036  -26.7325   22.1606 H   0  0  0  0  0  0
  -27.4835  -25.6931   21.6839 H   0  0  0  0  0  0
  -29.1875  -24.2733   20.4046 H   0  0  0  0  0  0
  -28.2083  -24.1127   22.8131 H   0  0  0  0  0  0
  1 25  1  0  0  0
  1 30  2  0  0  0
  1 89  1  0  0  0
  2  3  1  0  0  0
  2 25  1  0  0  0
  2 92  1  0  0  0
  2 93  1  0  0  0
  3  4  1  0  0  0
  3 94  1  0  0  0
  3 95  1  0  0  0
  4  5  1  0  0  0
  4 96  1  0  0  0
  4 97  1  0  0  0
  5  6  1  0  0  0
  5 26  1  0  0  0
  5 98  1  0  0  0
  6 25  1  0  0  0
  6 99  1  0  0  0
  6100  1  0  0  0
  7  8  2  0  0  0
  7 26  1  0  0  0
  7 29  1  0  0  0
  8  9  1  0  0  0
  8 22  1  0  0  0
  9 10  1  0  0  0
  9 27  2  0  0  0
 10 11  2  0  0  0
 10 15  1  0  0  0
 11 12  1  0  0  0
 11101  1  0  0  0
 12 13  2  0  0  0
 12102  1  0  0  0
 13 14  1  0  0  0
 13 31  1  0  0  0
 14 15  2  0  0  0
 14103  1  0  0  0
 15104  1  0  0  0
 16 17  2  0  0  0
 16 21  1  0  0  0
 16 31  1  0  0  0
 17 18  1  0  0  0
 17105  1  0  0  0
 18 19  2  0  0  0
 18106  1  0  0  0
 19 20  1  0  0  0
 19 24  1  0  0  0
 20 21  2  0  0  0
 20107  1  0  0  0
 21 23  1  0  0  0
 22 28  1  0  0  0
 22 32  2  0  0  0
 26 27  1  0  0  0
 28108  1  0  0  0
 28109  1  0  0  0
 29110  1  0  0  0
 29111  1  0  0  0
 33 34  1  0  0  0
 33 66  1  0  0  0
 33 70  2  0  0  0
 34 36  1  0  0  0
 34 59  1  0  0  0
 34112  1  0  0  0
 35 44  2  0  0  0
 35 45  1  0  0  0
 35 68  1  0  0  0
 36 56  1  0  0  0
 36113  1  0  0  0
 37 39  1  0  0  0
 37 47  1  0  0  0
 37 66  1  0  0  0
 37114  1  0  0  0
 38 43  2  0  0  0
 38 46  1  0  0  0
 38 47  1  0  0  0
 39 64  1  0  0  0
 39 67  2  0  0  0
 40 52  1  0  0  0
 40 53  2  0  0  0
 40 58  1  0  0  0
 41115  1  0  0  0
 41116  1  0  0  0
 41117  1  0  0  0
 41 48  1  0  0  0
 42 43  1  0  0  0
 42 66  1  0  0  0
 42118  1  0  0  0
 42119  1  0  0  0
 43 44  1  0  0  0
 44120  1  0  0  0
 45 46  2  0  0  0
 45121  1  0  0  0
 46122  1  0  0  0
 47123  1  0  0  0
 47124  1  0  0  0
 48 56  1  0  0  0
 48 65  1  0  0  0
 48125  1  0  0  0
 49 50  1  0  0  0
 49 53  1  0  0  0
 49 64  1  0  0  0
 49126  1  0  0  0
 50 51  1  0  0  0
 50127  1  0  0  0
 50128  1  0  0  0
 51 52  1  0  0  0
 51129  1  0  0  0
 51130  1  0  0  0
 52131  1  0  0  0
 52132  1  0  0  0
 53 54  1  0  0  0
 54 55  2  0  0  0
 54133  1  0  0  0
 55 57  1  0  0  0
 55134  1  0  0  0
 56 69  2  0  0  0
 57 58  2  0  0  0
 57135  1  0  0  0
 58136  1  0  0  0
 59 60  1  0  0  0
 59 61  1  0  0  0
 59 62  1  0  0  0
 60137  1  0  0  0
 60138  1  0  0  0
 60139  1  0  0  0
 61140  1  0  0  0
 61141  1  0  0  0
 61142  1  0  0  0
 62143  1  0  0  0
 62144  1  0  0  0
 62145  1  0  0  0
 63 65  1  0  0  0
 63146  1  0  0  0
 63147  1  0  0  0
 63148  1  0  0  0
 64149  1  0  0  0
 65150  1  0  0  0
 68 87  1  0  0  0
 71 73  2  0  0  0
 71 74  1  0  0  0
 71151  1  0  0  0
 72 73  1  0  0  0
 72 76  2  0  0  0
 72152  1  0  0  0
 73 83  1  0  0  0
 74 75  2  0  0  0
 74 85  1  0  0  0
 75 76  1  0  0  0
 75 90  1  0  0  0
 76 91  1  0  0  0
 77 78  1  0  0  0
 77 84  1  0  0  0
 77153  1  0  0  0
 77154  1  0  0  0
 78 84  1  0  0  0
 78155  1  0  0  0
 78156  1  0  0  0
 79 81  1  0  0  0
 79 83  1  0  0  0
 79157  1  0  0  0
 79158  1  0  0  0
 80 82  1  0  0  0
 80 83  1  0  0  0
 80159  1  0  0  0
 80160  1  0  0  0
 81 89  1  0  0  0
 81161  1  0  0  0
 81162  1  0  0  0
 82 89  1  0  0  0
 82163  1  0  0  0
 82164  1  0  0  0
 83165  1  0  0  0
 84 91  1  0  0  0
 84166  1  0  0  0
 85167  1  0  0  0
 85168  1  0  0  0
 85169  1  0  0  0
 86170  1  0  0  0
 86171  1  0  0  0
 86172  1  0  0  0
 86 88  1  0  0  0
 87 88  1  0  0  0
 87173  1  0  0  0
 87174  1  0  0  0
 88 90  1  0  0  0
 88175  1  0  0  0
 90176  1  0  0  0
M  ISO  4   1 100  68 101  87 101  89 100
M  END
> <chiral flag>
0

> <version>
0

> <s_m_source_file>
/data/baiqing/PycharmProjects/Reinvent-master-3.2/result/LINK_invent/BTK/process_docking_weight1_custom_sum_contain_oxygen_bond_distance_aromatic_linkinvent_7_9_3/rearranged_h_0158.sdf

> <i_m_source_file_index>
61

> <r_mmod_Potential_Energy-OPLS-2005>
202.848434448242

> <r_mmod_Stretch_Energy-OPLS-2005>
35.055046081543

> <r_mmod_Bend_Energy-OPLS-2005>
110.13451385498

> <r_mmod_Torsional_Energy-OPLS-2005>
416.271636962891

> <r_mmod_Improper_Torsional_Energy-OPLS-2005>
15.8423566818237

> <r_mmod_Van_der_Waal_Energy-OPLS-2005>
156.262313842773

> <r_mmod_Electrostatic_Energy-OPLS-2005>
-339.419494628906

> <r_mmod_Solvation_Energy-OPLS-2005>
-203.392807006836

> <b_mmod_Minimization_Converged-OPLS-2005>
0

> <r_mmod_RMS_Derivative-OPLS-2005>
3.60491347312927

$$$$
61
                    3D
 Structure written by MMmdl.
171181  0  0  1  0            999 V2000
  -30.7276  -14.6031   20.5307 C   0  0  0  0  0  0
  -30.4073  -12.3819   19.4647 C   0  0  0  0  0  0
  -29.4965  -12.5065   18.2272 C   0  0  0  0  0  0
  -28.0222  -12.3406   18.6375 C   0  0  0  0  0  0
  -27.6506  -13.2125   19.8646 C   0  0  2  0  0  0
  -28.6984  -13.0889   21.0012 C   0  0  0  0  0  0
  -25.2553  -13.8148   20.5688 C   0  0  0  0  0  0
  -24.1831  -13.0423   20.9203 C   0  0  0  0  0  0
  -24.6413  -11.6898   20.8756 C   0  0  0  0  0  0
  -23.9087  -10.4284   21.0427 C   0  0  0  0  0  0
  -24.3635   -9.4197   21.9204 C   0  0  0  0  0  0
  -23.6315   -8.2227   22.0756 C   0  0  0  0  0  0
  -22.4303   -8.0282   21.3539 C   0  0  0  0  0  0
  -21.9939   -9.0261   20.4642 C   0  0  0  0  0  0
  -22.7265  -10.2144   20.3070 C   0  0  0  0  0  0
  -21.6858   -6.0745   22.5280 C   0  0  0  0  0  0
  -21.4006   -6.5639   23.8212 C   0  0  0  0  0  0
  -21.3650   -5.6787   24.9171 C   0  0  0  0  0  0
  -21.6046   -4.3052   24.7212 C   0  0  0  0  0  0
  -21.8818   -3.8152   23.4334 C   0  0  0  0  0  0
  -21.9193   -4.6971   22.3392 C   0  0  0  0  0  0
  -22.7860  -13.5232   21.1854 C   0  0  0  0  0  0
  -22.1670   -4.2165   21.0967 F   0  0  0  0  0  0
  -21.5647   -3.4529   25.7717 F   0  0  0  0  0  0
  -30.0028  -13.4364   20.4268 N   0  0  0  0  0  0
  -26.2989  -12.9343   20.3354 N   0  0  0  0  0  0
  -25.9344  -11.6499   20.5786 N   0  0  0  0  0  0
  -22.0499  -12.8230   22.0405 N   0  0  0  0  0  0
  -25.4218  -15.1850   20.4053 N   0  0  0  0  0  0
  -31.8778  -14.6155   20.0792 O   0  0  0  0  0  0
  -21.6665   -6.8885   21.4241 O   0  0  0  0  0  0
  -22.3554  -14.5536   20.6686 O   0  0  0  0  0  0
  -24.6219  -31.8627   23.2058 C   0  0  0  0  0  0
  -25.9087  -32.4782   23.8384 C   0  0  1  0  0  0
  -27.2176  -27.3485   20.1036 C   0  0  0  0  0  0
  -25.5929  -33.8590   24.2303 N   0  0  0  0  0  0
  -23.4132  -30.4905   21.5458 C   0  0  2  0  0  0
  -24.8583  -28.9536   20.1120 C   0  0  0  0  0  0
  -22.7451  -29.4650   22.4919 C   0  0  0  0  0  0
  -18.0282  -28.1385   22.8471 C   0  0  0  0  0  0
  -24.1492  -36.7298   23.2639 C   0  0  0  0  0  0
  -25.9537  -30.8033   21.3735 C   0  0  0  0  0  0
  -26.0268  -29.4334   20.7161 C   0  0  0  0  0  0
  -27.2096  -28.6408   20.7072 C   0  0  0  0  0  0
  -26.0237  -26.9194   19.4755 C   0  0  0  0  0  0
  -24.8563  -27.6999   19.4862 C   0  0  0  0  0  0
  -23.6277  -29.8311   20.1602 C   0  0  0  0  0  0
  -25.4110  -36.3080   24.0331 C   0  0  1  0  0  0
  -20.5877  -28.3692   23.1277 C   0  0  2  0  0  0
  -20.6774  -26.9420   22.5408 C   0  0  0  0  0  0
  -19.5763  -26.6387   21.5198 C   0  0  0  0  0  0
  -18.1935  -26.7928   22.1599 C   0  0  0  0  0  0
  -19.1532  -28.8850   23.2867 C   0  0  0  0  0  0
  -18.9462  -30.1449   23.8883 C   0  0  0  0  0  0
  -17.6468  -30.6588   24.0557 C   0  0  0  0  0  0
  -25.9047  -34.9453   23.5108 C   0  0  0  0  0  0
  -16.5354  -29.9093   23.6326 C   0  0  0  0  0  0
  -16.7270  -28.6511   23.0339 C   0  0  0  0  0  0
  -26.4497  -31.6567   25.0732 C   0  0  0  0  0  0
  -25.3775  -31.3694   26.1491 C   0  0  0  0  0  0
  -27.0323  -30.2986   24.6162 C   0  0  0  0  0  0
  -27.6057  -32.4297   25.7506 C   0  0  0  0  0  0
  -27.5576  -37.1799   24.8462 C   0  0  0  0  0  0
  -21.4166  -29.3053   22.3669 N   0  0  0  0  0  0
  -26.4278  -37.3780   23.9421 N   0  0  0  0  0  0
  -24.6808  -31.0693   22.0976 N   0  0  0  0  0  0
  -23.4196  -28.8179   23.2971 O   0  0  0  0  0  0
  -28.3412  -26.5155   20.1503 O   0  0  0  0  0  0
  -26.5599  -34.8908   22.4663 O   0  0  0  0  0  0
  -23.5391  -32.1403   23.7410 O   0  0  0  0  0  0
  -29.1845  -22.5030   18.3004 C   0  0  0  0  0  0
  -29.2960  -21.2575   17.6660 C   0  0  0  0  0  0
  -29.4922  -20.0679   18.4097 C   0  0  0  0  0  0
  -29.4612  -20.1024   19.8443 C   0  0  0  0  0  0
  -29.2095  -22.6199   19.6985 C   0  0  0  0  0  0
  -29.2672  -21.4014   20.4699 C   0  0  0  0  0  0
  -29.2092  -21.2232   16.1484 C   0  0  0  0  0  0
  -29.8312  -18.8107   17.5942 C   0  0  0  0  0  0
  -28.5566  -17.6906   20.6131 C   0  0  0  0  0  0
  -31.0599  -18.0966   20.5365 C   0  0  0  0  0  0
  -28.8729  -16.3104   21.3057 C   0  0  0  0  0  0
  -31.1900  -16.8599   21.4645 C   0  0  0  0  0  0
  -29.8464  -19.9711   15.5451 C   0  0  0  0  0  0
  -29.6778  -18.7794   20.6915 C   0  0  0  0  0  0
  -29.1164  -21.5031   21.9835 C   0  0  0  0  0  0
  -29.2896  -24.0843   20.2573 C   0  0  0  0  0  0
  -28.1406  -25.0860   19.8657 C   0  0  0  0  0  0
  -30.2443  -15.7802   21.0833 N   0  0  0  0  0  0
  -29.3562  -18.8435   16.2517 O   0  0  0  0  0  0
  -31.4556  -12.4444   19.1663 H   0  0  0  0  0  0
  -30.3045  -11.3944   19.9148 H   0  0  0  0  0  0
  -29.7661  -11.7623   17.4774 H   0  0  0  0  0  0
  -29.6422  -13.4789   17.7548 H   0  0  0  0  0  0
  -27.8615  -11.2866   18.8703 H   0  0  0  0  0  0
  -27.3657  -12.5721   17.7971 H   0  0  0  0  0  0
  -27.6603  -14.2333   19.4872 H   0  0  0  0  0  0
  -28.7179  -12.0686   21.3868 H   0  0  0  0  0  0
  -28.4603  -13.7042   21.8677 H   0  0  0  0  0  0
  -25.2783   -9.5688   22.4778 H   0  0  0  0  0  0
  -24.0021   -7.4628   22.7481 H   0  0  0  0  0  0
  -21.0870   -8.8816   19.8953 H   0  0  0  0  0  0
  -22.3748  -10.9705   19.6189 H   0  0  0  0  0  0
  -21.1996   -7.6151   23.9714 H   0  0  0  0  0  0
  -21.1477   -6.0519   25.9074 H   0  0  0  0  0  0
  -22.0605   -2.7611   23.2825 H   0  0  0  0  0  0
  -22.4122  -11.9875   22.4750 H   0  0  0  0  0  0
  -21.1115  -13.1260   22.2604 H   0  0  0  0  0  0
  -24.6541  -15.8367   20.5265 H   0  0  0  0  0  0
  -26.2669  -15.6251   20.0659 H   0  0  0  0  0  0
  -26.7161  -32.5470   23.1144 H   0  0  0  0  0  0
  -25.0094  -33.9748   25.0455 H   0  0  0  0  0  0
  -22.7030  -31.3079   21.4066 H   0  0  0  0  0  0
  -23.3746  -35.9637   23.3283 H   0  0  0  0  0  0
  -24.3597  -36.8932   22.2058 H   0  0  0  0  0  0
  -23.7243  -37.6497   23.6667 H   0  0  0  0  0  0
  -26.0875  -31.5673   20.6059 H   0  0  0  0  0  0
  -26.8325  -30.8480   22.0054 H   0  0  0  0  0  0
  -28.1046  -29.0054   21.1921 H   0  0  0  0  0  0
  -25.9542  -25.9665   18.9732 H   0  0  0  0  0  0
  -23.9605  -27.3258   19.0093 H   0  0  0  0  0  0
  -23.7487  -30.6074   19.4035 H   0  0  0  0  0  0
  -22.7475  -29.2618   19.8570 H   0  0  0  0  0  0
  -25.1280  -36.1928   25.0821 H   0  0  0  0  0  0
  -20.9975  -28.3276   24.1392 H   0  0  0  0  0  0
  -20.5670  -26.2310   23.3606 H   0  0  0  0  0  0
  -21.6647  -26.7457   22.1207 H   0  0  0  0  0  0
  -19.6939  -25.6299   21.1228 H   0  0  0  0  0  0
  -19.6703  -27.3185   20.6719 H   0  0  0  0  0  0
  -17.4213  -26.6662   21.3993 H   0  0  0  0  0  0
  -18.0340  -26.0069   22.8998 H   0  0  0  0  0  0
  -19.7944  -30.7255   24.2249 H   0  0  0  0  0  0
  -17.5035  -31.6261   24.5173 H   0  0  0  0  0  0
  -15.5356  -30.3000   23.7662 H   0  0  0  0  0  0
  -15.8665  -28.0839   22.7053 H   0  0  0  0  0  0
  -24.5969  -30.6994   25.7865 H   0  0  0  0  0  0
  -24.8948  -32.2854   26.4909 H   0  0  0  0  0  0
  -25.8160  -30.8919   27.0267 H   0  0  0  0  0  0
  -26.2879  -29.6745   24.1202 H   0  0  0  0  0  0
  -27.4037  -29.7220   25.4644 H   0  0  0  0  0  0
  -27.8747  -30.4247   23.9358 H   0  0  0  0  0  0
  -27.2650  -33.3579   26.2109 H   0  0  0  0  0  0
  -28.3865  -32.6890   25.0344 H   0  0  0  0  0  0
  -28.0741  -31.8420   26.5414 H   0  0  0  0  0  0
  -28.2581  -38.0107   24.7505 H   0  0  0  0  0  0
  -28.1077  -36.2633   24.6267 H   0  0  0  0  0  0
  -27.2311  -37.1431   25.8871 H   0  0  0  0  0  0
  -20.9334  -29.8791   21.6898 H   0  0  0  0  0  0
  -26.0148  -38.2850   24.1432 H   0  0  0  0  0  0
  -29.1084  -23.3938   17.6910 H   0  0  0  0  0  0
  -29.6687  -22.1133   15.7186 H   0  0  0  0  0  0
  -28.1527  -21.2554   15.8781 H   0  0  0  0  0  0
  -29.4573  -17.8913   18.0247 H   0  0  0  0  0  0
  -30.9168  -18.7112   17.5598 H   0  0  0  0  0  0
  -27.6537  -18.1009   21.0649 H   0  0  0  0  0  0
  -28.2525  -17.4892   19.5915 H   0  0  0  0  0  0
  -31.2502  -17.7668   19.5196 H   0  0  0  0  0  0
  -31.8428  -18.8163   20.7799 H   0  0  0  0  0  0
  -28.1031  -15.6205   21.0002 H   0  0  0  0  0  0
  -28.7415  -16.4239   22.3819 H   0  0  0  0  0  0
  -30.9962  -17.1535   22.4978 H   0  0  0  0  0  0
  -32.2285  -16.5257   21.4808 H   0  0  0  0  0  0
  -30.9338  -20.0180   15.6130 H   0  0  0  0  0  0
  -29.5977  -19.8895   14.4855 H   0  0  0  0  0  0
  -29.6881  -19.0660   21.7395 H   0  0  0  0  0  0
  -30.0864  -21.4854   22.4806 H   0  0  0  0  0  0
  -28.5039  -20.6931   22.3777 H   0  0  0  0  0  0
  -28.5853  -22.4048   22.2842 H   0  0  0  0  0  0
  -30.2202  -24.4934   19.8608 H   0  0  0  0  0  0
  -29.4338  -24.1013   21.3346 H   0  0  0  0  0  0
  -27.2372  -24.7362   20.3672 H   0  0  0  0  0  0
  -27.9621  -25.0016   18.7936 H   0  0  0  0  0  0
  1 25  1  0  0  0
  1 30  2  0  0  0
  1 88  1  0  0  0
  2  3  1  0  0  0
  2 25  1  0  0  0
  2 90  1  0  0  0
  2 91  1  0  0  0
  3  4  1  0  0  0
  3 92  1  0  0  0
  3 93  1  0  0  0
  4  5  1  0  0  0
  4 94  1  0  0  0
  4 95  1  0  0  0
  5  6  1  0  0  0
  5 26  1  0  0  0
  5 96  1  0  0  0
  6 25  1  0  0  0
  6 97  1  0  0  0
  6 98  1  0  0  0
  7  8  2  0  0  0
  7 26  1  0  0  0
  7 29  1  0  0  0
  8  9  1  0  0  0
  8 22  1  0  0  0
  9 10  1  0  0  0
  9 27  2  0  0  0
 10 11  2  0  0  0
 10 15  1  0  0  0
 11 12  1  0  0  0
 11 99  1  0  0  0
 12 13  2  0  0  0
 12100  1  0  0  0
 13 14  1  0  0  0
 13 31  1  0  0  0
 14 15  2  0  0  0
 14101  1  0  0  0
 15102  1  0  0  0
 16 17  2  0  0  0
 16 21  1  0  0  0
 16 31  1  0  0  0
 17 18  1  0  0  0
 17103  1  0  0  0
 18 19  2  0  0  0
 18104  1  0  0  0
 19 20  1  0  0  0
 19 24  1  0  0  0
 20 21  2  0  0  0
 20105  1  0  0  0
 21 23  1  0  0  0
 22 28  1  0  0  0
 22 32  2  0  0  0
 26 27  1  0  0  0
 28106  1  0  0  0
 28107  1  0  0  0
 29108  1  0  0  0
 29109  1  0  0  0
 33 34  1  0  0  0
 33 66  1  0  0  0
 33 70  2  0  0  0
 34 36  1  0  0  0
 34 59  1  0  0  0
 34110  1  0  0  0
 35 44  2  0  0  0
 35 45  1  0  0  0
 35 68  1  0  0  0
 36 56  1  0  0  0
 36111  1  0  0  0
 37 39  1  0  0  0
 37 47  1  0  0  0
 37 66  1  0  0  0
 37112  1  0  0  0
 38 43  2  0  0  0
 38 46  1  0  0  0
 38 47  1  0  0  0
 39 64  1  0  0  0
 39 67  2  0  0  0
 40 52  1  0  0  0
 40 53  2  0  0  0
 40 58  1  0  0  0
 41113  1  0  0  0
 41114  1  0  0  0
 41115  1  0  0  0
 41 48  1  0  0  0
 42 43  1  0  0  0
 42 66  1  0  0  0
 42116  1  0  0  0
 42117  1  0  0  0
 43 44  1  0  0  0
 44118  1  0  0  0
 45 46  2  0  0  0
 45119  1  0  0  0
 46120  1  0  0  0
 47121  1  0  0  0
 47122  1  0  0  0
 48 56  1  0  0  0
 48 65  1  0  0  0
 48123  1  0  0  0
 49 50  1  0  0  0
 49 53  1  0  0  0
 49 64  1  0  0  0
 49124  1  0  0  0
 50 51  1  0  0  0
 50125  1  0  0  0
 50126  1  0  0  0
 51 52  1  0  0  0
 51127  1  0  0  0
 51128  1  0  0  0
 52129  1  0  0  0
 52130  1  0  0  0
 53 54  1  0  0  0
 54 55  2  0  0  0
 54131  1  0  0  0
 55 57  1  0  0  0
 55132  1  0  0  0
 56 69  2  0  0  0
 57 58  2  0  0  0
 57133  1  0  0  0
 58134  1  0  0  0
 59 60  1  0  0  0
 59 61  1  0  0  0
 59 62  1  0  0  0
 60135  1  0  0  0
 60136  1  0  0  0
 60137  1  0  0  0
 61138  1  0  0  0
 61139  1  0  0  0
 61140  1  0  0  0
 62141  1  0  0  0
 62142  1  0  0  0
 62143  1  0  0  0
 63 65  1  0  0  0
 63144  1  0  0  0
 63145  1  0  0  0
 63146  1  0  0  0
 64147  1  0  0  0
 65148  1  0  0  0
 68 87  1  0  0  0
 71 72  2  0  0  0
 71 75  1  0  0  0
 71149  1  0  0  0
 72 73  1  0  0  0
 72 77  1  0  0  0
 73 74  2  0  0  0
 73 78  1  0  0  0
 74 76  1  0  0  0
 74 84  1  0  0  0
 75 76  2  0  0  0
 75 86  1  0  0  0
 76 85  1  0  0  0
 77 83  1  0  0  0
 77150  1  0  0  0
 77151  1  0  0  0
 78 89  1  0  0  0
 78152  1  0  0  0
 78153  1  0  0  0
 79 81  1  0  0  0
 79 84  1  0  0  0
 79154  1  0  0  0
 79155  1  0  0  0
 80 82  1  0  0  0
 80 84  1  0  0  0
 80156  1  0  0  0
 80157  1  0  0  0
 81 88  1  0  0  0
 81158  1  0  0  0
 81159  1  0  0  0
 82 88  1  0  0  0
 82160  1  0  0  0
 82161  1  0  0  0
 83 89  1  0  0  0
 83162  1  0  0  0
 83163  1  0  0  0
 84164  1  0  0  0
 85165  1  0  0  0
 85166  1  0  0  0
 85167  1  0  0  0
 86 87  1  0  0  0
 86168  1  0  0  0
 86169  1  0  0  0
 87170  1  0  0  0
 87171  1  0  0  0
M  ISO  4   1 100  68 101  87 101  88 100
M  END
> <chiral flag>
0

> <version>
0

> <s_m_source_file>
/data/baiqing/PycharmProjects/Reinvent-master-3.2/result/LINK_invent/BTK/process_docking_weight1_custom_sum_contain_oxygen_bond_distance_aromatic_linkinvent_7_9_3/rearranged_h_0158.sdf

> <i_m_source_file_index>
62

> <r_mmod_Potential_Energy-OPLS-2005>
314.686706542969

> <r_mmod_Stretch_Energy-OPLS-2005>
85.6801147460938

> <r_mmod_Bend_Energy-OPLS-2005>
174.526870727539

> <r_mmod_Torsional_Energy-OPLS-2005>
301.159576416016

> <r_mmod_Improper_Torsional_Energy-OPLS-2005>
2.17994332313538

> <r_mmod_Van_der_Waal_Energy-OPLS-2005>
185.281951904297

> <r_mmod_Electrostatic_Energy-OPLS-2005>
-267.892700195312

> <r_mmod_Solvation_Energy-OPLS-2005>
-205.588638305664

> <b_mmod_Minimization_Converged-OPLS-2005>
0

> <r_mmod_RMS_Derivative-OPLS-2005>
2.3595712184906

$$$$
62
                    3D
 Structure written by MMmdl.
171180  0  0  1  0            999 V2000
  -30.5274  -14.9901   20.4230 C   0  0  0  0  0  0
  -30.4471  -12.6099   19.5211 C   0  0  0  0  0  0
  -29.5344  -12.5715   18.2707 C   0  0  0  0  0  0
  -28.0612  -12.3595   18.6694 C   0  0  0  0  0  0
  -27.6370  -13.2629   19.8553 C   0  0  2  0  0  0
  -28.6824  -13.2773   20.9959 C   0  0  0  0  0  0
  -25.2388  -13.8151   20.5593 C   0  0  0  0  0  0
  -24.1764  -13.0389   20.9218 C   0  0  0  0  0  0
  -24.6408  -11.6889   20.8758 C   0  0  0  0  0  0
  -23.9070  -10.4274   21.0398 C   0  0  0  0  0  0
  -24.3614   -9.4199   21.9177 C   0  0  0  0  0  0
  -23.6303   -8.2234   22.0755 C   0  0  0  0  0  0
  -22.4289   -8.0258   21.3537 C   0  0  0  0  0  0
  -21.9918   -9.0225   20.4639 C   0  0  0  0  0  0
  -22.7241  -10.2108   20.3050 C   0  0  0  0  0  0
  -21.6868   -6.0712   22.5266 C   0  0  0  0  0  0
  -21.4026   -6.5630   23.8198 C   0  0  0  0  0  0
  -21.3672   -5.6788   24.9163 C   0  0  0  0  0  0
  -21.6047   -4.3047   24.7228 C   0  0  0  0  0  0
  -21.8821   -3.8129   23.4354 C   0  0  0  0  0  0
  -21.9196   -4.6940   22.3407 C   0  0  0  0  0  0
  -22.7777  -13.5152   21.1878 C   0  0  0  0  0  0
  -22.1661   -4.2121   21.0985 F   0  0  0  0  0  0
  -21.5636   -3.4537   25.7748 F   0  0  0  0  0  0
  -29.9672  -13.7046   20.4201 N   0  0  0  0  0  0
  -26.2928  -12.9474   20.3307 N   0  0  0  0  0  0
  -25.9377  -11.6584   20.5781 N   0  0  0  0  0  0
  -22.0470  -12.8169   22.0483 N   0  0  0  0  0  0
  -25.3818  -15.1825   20.3672 N   0  0  0  0  0  0
  -31.6887  -15.0933   20.0174 O   0  0  0  0  0  0
  -21.6652   -6.8861   21.4233 O   0  0  0  0  0  0
  -22.3454  -14.5452   20.6720 O   0  0  0  0  0  0
  -24.6413  -31.8426   23.1895 C   0  0  0  0  0  0
  -25.9186  -32.4691   23.8263 C   0  0  1  0  0  0
  -27.2240  -27.1359   20.1501 C   0  0  0  0  0  0
  -25.5935  -33.8500   24.2197 N   0  0  0  0  0  0
  -23.4453  -30.4605   21.5377 C   0  0  2  0  0  0
  -24.8968  -28.8894   20.1075 C   0  0  0  0  0  0
  -22.7551  -29.4525   22.4902 C   0  0  0  0  0  0
  -18.0289  -28.1395   22.8493 C   0  0  0  0  0  0
  -24.1496  -36.7253   23.2645 C   0  0  0  0  0  0
  -25.9991  -30.7180   21.3851 C   0  0  0  0  0  0
  -26.0722  -29.3276   20.7297 C   0  0  0  0  0  0
  -27.2341  -28.4672   20.7360 C   0  0  0  0  0  0
  -26.0270  -26.8049   19.4769 C   0  0  0  0  0  0
  -24.8888  -27.6421   19.4639 C   0  0  0  0  0  0
  -23.6681  -29.7869   20.1574 C   0  0  0  0  0  0
  -25.4133  -36.3046   24.0324 C   0  0  1  0  0  0
  -20.5896  -28.3703   23.1271 C   0  0  2  0  0  0
  -20.6787  -26.9410   22.5422 C   0  0  0  0  0  0
  -19.5757  -26.6393   21.5233 C   0  0  0  0  0  0
  -18.1932  -26.7941   22.1637 C   0  0  0  0  0  0
  -19.1543  -28.8878   23.2869 C   0  0  0  0  0  0
  -18.9457  -30.1481   23.8879 C   0  0  0  0  0  0
  -17.6450  -30.6593   24.0572 C   0  0  0  0  0  0
  -25.9075  -34.9411   23.5071 C   0  0  0  0  0  0
  -16.5342  -29.9080   23.6342 C   0  0  0  0  0  0
  -16.7275  -28.6503   23.0360 C   0  0  0  0  0  0
  -26.4522  -31.6534   25.0675 C   0  0  0  0  0  0
  -25.3697  -31.3660   26.1342 C   0  0  0  0  0  0
  -27.0400  -30.2952   24.6204 C   0  0  0  0  0  0
  -27.6063  -32.4285   25.7448 C   0  0  0  0  0  0
  -27.5586  -37.1787   24.8469 C   0  0  0  0  0  0
  -21.4250  -29.3013   22.3637 N   0  0  0  0  0  0
  -26.4306  -37.3755   23.9401 N   0  0  0  0  0  0
  -24.7156  -31.0272   22.0936 N   0  0  0  0  0  0
  -23.4184  -28.8054   23.3055 O   0  0  0  0  0  0
  -28.2808  -26.1535   20.2380 O   0  0  0  0  0  0
  -26.5670  -34.8908   22.4657 O   0  0  0  0  0  0
  -23.5540  -32.1308   23.7125 O   0  0  0  0  0  0
  -30.2007  -19.3226   23.4273 C   0  0  0  0  0  0
  -31.0649  -20.3451   22.9923 C   0  0  0  0  0  0
  -29.5475  -19.0083   21.1571 C   0  0  0  0  0  0
  -29.8132  -20.4733   20.8905 C   0  0  0  0  0  0
  -29.2854  -18.7466   22.5143 C   0  0  0  0  0  0
  -30.8239  -20.9853   21.7492 C   0  0  0  0  0  0
  -27.5435  -17.7813   24.0517 C   0  0  0  0  0  0
  -27.8853  -17.5912   20.2580 C   0  0  0  0  0  0
  -27.3773  -17.2870   21.7042 C   0  0  0  0  0  0
  -29.4085  -17.6378   20.2631 C   0  0  2  0  0  0
  -27.8832  -18.6993   25.2261 C   0  0  0  0  0  0
  -28.8653  -21.4294   18.6442 C   0  0  0  0  0  0
  -32.7302  -22.4242   22.0052 C   0  0  0  0  0  0
  -29.0560  -23.3351   20.4779 C   0  0  0  0  0  0
  -28.0532  -24.6216   20.0112 C   0  0  0  0  0  0
  -28.8975  -21.6550   20.1601 C   0  0  2  0  0  0
  -28.1444  -17.9060   22.8289 N   0  0  0  0  0  0
  -29.7194  -16.1262   20.7312 N   0  0  0  0  0  0
  -26.6586  -16.9423   24.2622 O   0  0  0  0  0  0
  -31.4904  -22.1301   21.3729 O   0  0  0  0  0  0
  -31.4855  -12.7576   19.2209 H   0  0  0  0  0  0
  -30.4274  -11.6507   20.0384 H   0  0  0  0  0  0
  -29.8568  -11.7906   17.5796 H   0  0  0  0  0  0
  -29.6325  -13.5142   17.7289 H   0  0  0  0  0  0
  -27.9338  -11.3095   18.9353 H   0  0  0  0  0  0
  -27.4101  -12.5417   17.8124 H   0  0  0  0  0  0
  -27.5996  -14.2740   19.4468 H   0  0  0  0  0  0
  -28.7699  -12.2911   21.4535 H   0  0  0  0  0  0
  -28.3741  -13.9585   21.7907 H   0  0  0  0  0  0
  -25.2758   -9.5701   22.4746 H   0  0  0  0  0  0
  -24.0014   -7.4643   22.7492 H   0  0  0  0  0  0
  -21.0850   -8.8738   19.8952 H   0  0  0  0  0  0
  -22.3685  -10.9642   19.6154 H   0  0  0  0  0  0
  -21.2030   -7.6138   23.9693 H   0  0  0  0  0  0
  -21.1491   -6.0522   25.9071 H   0  0  0  0  0  0
  -22.0591   -2.7589   23.2863 H   0  0  0  0  0  0
  -22.4130  -11.9871   22.4915 H   0  0  0  0  0  0
  -21.1075  -13.1169   22.2665 H   0  0  0  0  0  0
  -24.5782  -15.7982   20.4093 H   0  0  0  0  0  0
  -26.1757  -15.6014   19.9071 H   0  0  0  0  0  0
  -26.7219  -32.5310   23.0963 H   0  0  0  0  0  0
  -25.0042  -33.9604   25.0319 H   0  0  0  0  0  0
  -22.7466  -31.2865   21.3877 H   0  0  0  0  0  0
  -23.3782  -35.9558   23.3288 H   0  0  0  0  0  0
  -24.3587  -36.8905   22.2064 H   0  0  0  0  0  0
  -23.7214  -37.6432   23.6690 H   0  0  0  0  0  0
  -26.1423  -31.4706   20.6088 H   0  0  0  0  0  0
  -26.8743  -30.7777   22.0197 H   0  0  0  0  0  0
  -28.1261  -28.7996   21.2478 H   0  0  0  0  0  0
  -25.9419  -25.8573   18.9691 H   0  0  0  0  0  0
  -23.9942  -27.3080   18.9563 H   0  0  0  0  0  0
  -23.7900  -30.5621   19.4006 H   0  0  0  0  0  0
  -22.7838  -29.2224   19.8575 H   0  0  0  0  0  0
  -25.1321  -36.1895   25.0820 H   0  0  0  0  0  0
  -20.9988  -28.3296   24.1398 H   0  0  0  0  0  0
  -20.5743  -26.2287   23.3621 H   0  0  0  0  0  0
  -21.6640  -26.7461   22.1170 H   0  0  0  0  0  0
  -19.6916  -25.6312   21.1243 H   0  0  0  0  0  0
  -19.6705  -27.3231   20.6786 H   0  0  0  0  0  0
  -17.4207  -26.6708   21.4027 H   0  0  0  0  0  0
  -18.0309  -26.0080   22.9028 H   0  0  0  0  0  0
  -19.7921  -30.7326   24.2220 H   0  0  0  0  0  0
  -17.4986  -31.6268   24.5177 H   0  0  0  0  0  0
  -15.5335  -30.2970   23.7698 H   0  0  0  0  0  0
  -15.8675  -28.0837   22.7068 H   0  0  0  0  0  0
  -24.5908  -30.7002   25.7601 H   0  0  0  0  0  0
  -24.8835  -32.2807   26.4745 H   0  0  0  0  0  0
  -25.7960  -30.8811   27.0130 H   0  0  0  0  0  0
  -26.3006  -29.6650   24.1248 H   0  0  0  0  0  0
  -27.4102  -29.7266   25.4743 H   0  0  0  0  0  0
  -27.8868  -30.4236   23.9457 H   0  0  0  0  0  0
  -27.2693  -33.3629   26.1951 H   0  0  0  0  0  0
  -28.3900  -32.6766   25.0274 H   0  0  0  0  0  0
  -28.0687  -31.8432   26.5406 H   0  0  0  0  0  0
  -28.2590  -38.0101   24.7542 H   0  0  0  0  0  0
  -28.1098  -36.2625   24.6285 H   0  0  0  0  0  0
  -27.2282  -37.1414   25.8867 H   0  0  0  0  0  0
  -20.9465  -29.8655   21.6754 H   0  0  0  0  0  0
  -26.0180  -38.2828   24.1408 H   0  0  0  0  0  0
  -30.2759  -19.0048   24.4545 H   0  0  0  0  0  0
  -31.7938  -20.7292   23.6906 H   0  0  0  0  0  0
  -27.4794  -18.5457   19.9170 H   0  0  0  0  0  0
  -27.5210  -16.8536   19.5427 H   0  0  0  0  0  0
  -27.3880  -16.2085   21.8708 H   0  0  0  0  0  0
  -26.3269  -17.5801   21.7585 H   0  0  0  0  0  0
  -29.8070  -17.8137   19.2626 H   0  0  0  0  0  0
  -27.0489  -18.7476   25.9275 H   0  0  0  0  0  0
  -28.0779  -19.7222   24.9017 H   0  0  0  0  0  0
  -28.7412  -18.3070   25.7704 H   0  0  0  0  0  0
  -28.5708  -20.4072   18.4036 H   0  0  0  0  0  0
  -29.8406  -21.6152   18.1947 H   0  0  0  0  0  0
  -28.1447  -22.0947   18.1671 H   0  0  0  0  0  0
  -33.2308  -23.2257   21.4613 H   0  0  0  0  0  0
  -33.3983  -21.5616   21.9970 H   0  0  0  0  0  0
  -32.5949  -22.7642   23.0323 H   0  0  0  0  0  0
  -29.1081  -23.4160   21.5633 H   0  0  0  0  0  0
  -30.0452  -23.6217   20.1240 H   0  0  0  0  0  0
  -27.0742  -24.3991   20.4353 H   0  0  0  0  0  0
  -27.9195  -24.5244   18.9338 H   0  0  0  0  0  0
  -27.8938  -21.4174   20.5110 H   0  0  0  0  0  0
  -28.9045  -15.7772   21.2071 H   0  0  0  0  0  0
  1 25  1  0  0  0
  1 30  2  0  0  0
  1 88  1  0  0  0
  2  3  1  0  0  0
  2 25  1  0  0  0
  2 91  1  0  0  0
  2 92  1  0  0  0
  3  4  1  0  0  0
  3 93  1  0  0  0
  3 94  1  0  0  0
  4  5  1  0  0  0
  4 95  1  0  0  0
  4 96  1  0  0  0
  5  6  1  0  0  0
  5 26  1  0  0  0
  5 97  1  0  0  0
  6 25  1  0  0  0
  6 98  1  0  0  0
  6 99  1  0  0  0
  7  8  2  0  0  0
  7 26  1  0  0  0
  7 29  1  0  0  0
  8  9  1  0  0  0
  8 22  1  0  0  0
  9 10  1  0  0  0
  9 27  2  0  0  0
 10 11  2  0  0  0
 10 15  1  0  0  0
 11 12  1  0  0  0
 11100  1  0  0  0
 12 13  2  0  0  0
 12101  1  0  0  0
 13 14  1  0  0  0
 13 31  1  0  0  0
 14 15  2  0  0  0
 14102  1  0  0  0
 15103  1  0  0  0
 16 17  2  0  0  0
 16 21  1  0  0  0
 16 31  1  0  0  0
 17 18  1  0  0  0
 17104  1  0  0  0
 18 19  2  0  0  0
 18105  1  0  0  0
 19 20  1  0  0  0
 19 24  1  0  0  0
 20 21  2  0  0  0
 20106  1  0  0  0
 21 23  1  0  0  0
 22 28  1  0  0  0
 22 32  2  0  0  0
 26 27  1  0  0  0
 28107  1  0  0  0
 28108  1  0  0  0
 29109  1  0  0  0
 29110  1  0  0  0
 33 34  1  0  0  0
 33 66  1  0  0  0
 33 70  2  0  0  0
 34 36  1  0  0  0
 34 59  1  0  0  0
 34111  1  0  0  0
 35 44  2  0  0  0
 35 45  1  0  0  0
 35 68  1  0  0  0
 36 56  1  0  0  0
 36112  1  0  0  0
 37 39  1  0  0  0
 37 47  1  0  0  0
 37 66  1  0  0  0
 37113  1  0  0  0
 38 43  2  0  0  0
 38 46  1  0  0  0
 38 47  1  0  0  0
 39 64  1  0  0  0
 39 67  2  0  0  0
 40 52  1  0  0  0
 40 53  2  0  0  0
 40 58  1  0  0  0
 41114  1  0  0  0
 41115  1  0  0  0
 41116  1  0  0  0
 41 48  1  0  0  0
 42 43  1  0  0  0
 42 66  1  0  0  0
 42117  1  0  0  0
 42118  1  0  0  0
 43 44  1  0  0  0
 44119  1  0  0  0
 45 46  2  0  0  0
 45120  1  0  0  0
 46121  1  0  0  0
 47122  1  0  0  0
 47123  1  0  0  0
 48 56  1  0  0  0
 48 65  1  0  0  0
 48124  1  0  0  0
 49 50  1  0  0  0
 49 53  1  0  0  0
 49 64  1  0  0  0
 49125  1  0  0  0
 50 51  1  0  0  0
 50126  1  0  0  0
 50127  1  0  0  0
 51 52  1  0  0  0
 51128  1  0  0  0
 51129  1  0  0  0
 52130  1  0  0  0
 52131  1  0  0  0
 53 54  1  0  0  0
 54 55  2  0  0  0
 54132  1  0  0  0
 55 57  1  0  0  0
 55133  1  0  0  0
 56 69  2  0  0  0
 57 58  2  0  0  0
 57134  1  0  0  0
 58135  1  0  0  0
 59 60  1  0  0  0
 59 61  1  0  0  0
 59 62  1  0  0  0
 60136  1  0  0  0
 60137  1  0  0  0
 60138  1  0  0  0
 61139  1  0  0  0
 61140  1  0  0  0
 61141  1  0  0  0
 62142  1  0  0  0
 62143  1  0  0  0
 62144  1  0  0  0
 63 65  1  0  0  0
 63145  1  0  0  0
 63146  1  0  0  0
 63147  1  0  0  0
 64148  1  0  0  0
 65149  1  0  0  0
 68 85  1  0  0  0
 71 72  2  0  0  0
 71 75  1  0  0  0
 71150  1  0  0  0
 72 76  1  0  0  0
 72151  1  0  0  0
 73 74  1  0  0  0
 73 75  2  0  0  0
 73 80  1  0  0  0
 74 76  2  0  0  0
 74 86  1  0  0  0
 75 87  1  0  0  0
 76 90  1  0  0  0
 77 81  1  0  0  0
 77 87  1  0  0  0
 77 89  2  0  0  0
 78 79  1  0  0  0
 78 80  1  0  0  0
 78152  1  0  0  0
 78153  1  0  0  0
 79 87  1  0  0  0
 79154  1  0  0  0
 79155  1  0  0  0
 80 88  1  0  0  0
 80156  1  0  0  0
 81157  1  0  0  0
 81158  1  0  0  0
 81159  1  0  0  0
 82160  1  0  0  0
 82161  1  0  0  0
 82162  1  0  0  0
 82 86  1  0  0  0
 83 90  1  0  0  0
 83163  1  0  0  0
 83164  1  0  0  0
 83165  1  0  0  0
 84 85  1  0  0  0
 84 86  1  0  0  0
 84166  1  0  0  0
 84167  1  0  0  0
 85168  1  0  0  0
 85169  1  0  0  0
 86170  1  0  0  0
 88171  1  0  0  0
M  ISO  4   1 100  68 101  85 101  88 100
M  END
> <chiral flag>
0

> <version>
0

> <s_m_source_file>
/data/baiqing/PycharmProjects/Reinvent-master-3.2/result/LINK_invent/BTK/process_docking_weight1_custom_sum_contain_oxygen_bond_distance_aromatic_linkinvent_7_9_3/rearranged_h_0158.sdf

> <i_m_source_file_index>
63

> <r_mmod_Potential_Energy-OPLS-2005>
897.402709960938

> <r_mmod_Stretch_Energy-OPLS-2005>
317.153503417969

> <r_mmod_Bend_Energy-OPLS-2005>
376.482818603516

> <r_mmod_Torsional_Energy-OPLS-2005>
459.168121337891

> <r_mmod_Improper_Torsional_Energy-OPLS-2005>
11.3972406387329

> <r_mmod_Van_der_Waal_Energy-OPLS-2005>
166.710830688477

> <r_mmod_Electrostatic_Energy-OPLS-2005>
-415.673919677734

> <r_mmod_Solvation_Energy-OPLS-2005>
-225.067916870117

> <b_mmod_Minimization_Converged-OPLS-2005>
0

> <r_mmod_RMS_Derivative-OPLS-2005>
3.36709547042847

$$$$
63
                    3D
 Structure written by MMmdl.
178188  0  0  1  0            999 V2000
  -30.7567  -14.4291   20.6537 C   0  0  0  0  0  0
  -30.4127  -12.3119   19.4176 C   0  0  0  0  0  0
  -29.4805  -12.5046   18.2051 C   0  0  0  0  0  0
  -28.0082  -12.3330   18.6220 C   0  0  0  0  0  0
  -27.6544  -13.1833   19.8655 C   0  0  2  0  0  0
  -28.6970  -12.9755   20.9932 C   0  0  0  0  0  0
  -25.2601  -13.8117   20.5695 C   0  0  0  0  0  0
  -24.1841  -13.0429   20.9211 C   0  0  0  0  0  0
  -24.6357  -11.6882   20.8762 C   0  0  0  0  0  0
  -23.9022  -10.4279   21.0428 C   0  0  0  0  0  0
  -24.3598   -9.4183   21.9176 C   0  0  0  0  0  0
  -23.6278   -8.2215   22.0740 C   0  0  0  0  0  0
  -22.4247   -8.0264   21.3545 C   0  0  0  0  0  0
  -21.9869   -9.0246   20.4666 C   0  0  0  0  0  0
  -22.7189  -10.2130   20.3077 C   0  0  0  0  0  0
  -21.6845   -6.0730   22.5293 C   0  0  0  0  0  0
  -21.4017   -6.5632   23.8229 C   0  0  0  0  0  0
  -21.3655   -5.6781   24.9188 C   0  0  0  0  0  0
  -21.6040   -4.3050   24.7236 C   0  0  0  0  0  0
  -21.8815   -3.8145   23.4358 C   0  0  0  0  0  0
  -21.9190   -4.6963   22.3416 C   0  0  0  0  0  0
  -22.7863  -13.5237   21.1875 C   0  0  0  0  0  0
  -22.1654   -4.2153   21.0995 F   0  0  0  0  0  0
  -21.5616   -3.4536   25.7747 F   0  0  0  0  0  0
  -30.0332  -13.2864   20.4578 N   0  0  0  0  0  0
  -26.2983  -12.9225   20.3346 N   0  0  0  0  0  0
  -25.9262  -11.6414   20.5784 N   0  0  0  0  0  0
  -22.0490  -12.8236   22.0427 N   0  0  0  0  0  0
  -25.4375  -15.1837   20.4065 N   0  0  0  0  0  0
  -31.8185  -14.6307   20.0530 O   0  0  0  0  0  0
  -21.6618   -6.8859   21.4246 O   0  0  0  0  0  0
  -22.3549  -14.5549   20.6720 O   0  0  0  0  0  0
  -24.6118  -31.8709   23.2126 C   0  0  0  0  0  0
  -25.9017  -32.4835   23.8421 C   0  0  1  0  0  0
  -27.2337  -27.4577   20.0970 C   0  0  0  0  0  0
  -25.5886  -33.8636   24.2344 N   0  0  0  0  0  0
  -23.3982  -30.4945   21.5535 C   0  0  2  0  0  0
  -24.8446  -28.9647   20.1154 C   0  0  0  0  0  0
  -22.7402  -29.4669   22.5015 C   0  0  0  0  0  0
  -18.0278  -28.1376   22.8512 C   0  0  0  0  0  0
  -24.1481  -36.7319   23.2643 C   0  0  0  0  0  0
  -25.9254  -30.8453   21.3600 C   0  0  0  0  0  0
  -26.0043  -29.4812   20.7068 C   0  0  0  0  0  0
  -27.2042  -28.7373   20.6916 C   0  0  0  0  0  0
  -26.0597  -26.9523   19.4958 C   0  0  0  0  0  0
  -24.8661  -27.6978   19.5061 C   0  0  0  0  0  0
  -23.6040  -29.8273   20.1674 C   0  0  0  0  0  0
  -25.4102  -36.3124   24.0345 C   0  0  1  0  0  0
  -20.5865  -28.3646   23.1346 C   0  0  2  0  0  0
  -20.6774  -26.9386   22.5428 C   0  0  0  0  0  0
  -19.5744  -26.6386   21.5230 C   0  0  0  0  0  0
  -18.1922  -26.7929   22.1639 C   0  0  0  0  0  0
  -19.1524  -28.8831   23.2927 C   0  0  0  0  0  0
  -18.9453  -30.1452   23.8917 C   0  0  0  0  0  0
  -17.6450  -30.6584   24.0564 C   0  0  0  0  0  0
  -25.9026  -34.9485   23.5139 C   0  0  0  0  0  0
  -16.5344  -29.9084   23.6324 C   0  0  0  0  0  0
  -16.7268  -28.6500   23.0351 C   0  0  0  0  0  0
  -26.4450  -31.6608   25.0738 C   0  0  0  0  0  0
  -25.3723  -31.3704   26.1488 C   0  0  0  0  0  0
  -27.0269  -30.3062   24.6073 C   0  0  0  0  0  0
  -27.6040  -32.4317   25.7483 C   0  0  0  0  0  0
  -27.5577  -37.1820   24.8471 C   0  0  0  0  0  0
  -21.4136  -29.3023   22.3763 N   0  0  0  0  0  0
  -26.4290  -37.3807   23.9409 N   0  0  0  0  0  0
  -24.6634  -31.0841   22.1007 N   0  0  0  0  0  0
  -23.4194  -28.8221   23.3049 O   0  0  0  0  0  0
  -28.3902  -26.7116   20.1269 O   0  0  0  0  0  0
  -26.5597  -34.8930   22.4706 O   0  0  0  0  0  0
  -23.5320  -32.1444   23.7542 O   0  0  0  0  0  0
  -30.3095  -19.3831   22.3648 C   0  0  0  0  0  0
  -29.3277  -18.8074   23.1966 C   0  0  0  0  0  0
  -30.1944  -20.6994   21.8820 C   0  0  0  0  0  0
  -28.2078  -19.6062   23.5733 C   0  0  0  0  0  0
  -28.0708  -20.9360   23.0715 C   0  0  0  0  0  0
  -29.0716  -21.4904   22.2169 C   0  0  0  0  0  0
  -28.5125  -16.4353   22.7973 C   0  0  0  0  0  0
  -30.8672  -16.7033   23.6668 C   0  0  0  0  0  0
  -29.3601  -25.2492   21.8264 C   0  0  0  0  0  0
  -28.3282  -24.2649   19.7854 C   0  0  0  0  0  0
  -29.1484  -16.1105   21.4393 C   0  0  0  0  0  0
  -31.3781  -16.0765   22.3385 C   0  0  0  0  0  0
  -29.1769  -23.9164   22.5834 C   0  0  0  0  0  0
  -28.0919  -22.9319   20.5221 C   0  0  0  0  0  0
  -29.4470  -17.3305   23.6311 C   0  0  0  0  0  0
  -28.2520  -25.4389   20.7773 C   0  0  0  0  0  0
  -31.2923  -21.2393   20.9779 C   0  0  0  0  0  0
  -27.1343  -19.0608   24.5258 C   0  0  0  0  0  0
  -26.8228  -21.7306   23.4623 C   0  0  0  0  0  0
  -29.0008  -22.7873   21.6623 N   0  0  0  0  0  0
  -30.3519  -15.2877   21.6292 N   0  0  0  0  0  0
  -31.4547  -12.4061   19.1053 H   0  0  0  0  0  0
  -30.3195  -11.2978   19.8101 H   0  0  0  0  0  0
  -29.7260  -11.7851   17.4228 H   0  0  0  0  0  0
  -29.6282  -13.4950   17.7724 H   0  0  0  0  0  0
  -27.8390  -11.2763   18.8324 H   0  0  0  0  0  0
  -27.3449  -12.5882   17.7950 H   0  0  0  0  0  0
  -27.6831  -14.2104   19.5135 H   0  0  0  0  0  0
  -28.6792  -11.9379   21.3283 H   0  0  0  0  0  0
  -28.4457  -13.5587   21.8778 H   0  0  0  0  0  0
  -25.2743   -9.5650   22.4754 H   0  0  0  0  0  0
  -23.9996   -7.4591   22.7437 H   0  0  0  0  0  0
  -21.0784   -8.8775   19.8985 H   0  0  0  0  0  0
  -22.3611  -10.9691   19.6231 H   0  0  0  0  0  0
  -21.2010   -7.6131   23.9743 H   0  0  0  0  0  0
  -21.1477   -6.0496   25.9094 H   0  0  0  0  0  0
  -22.0589   -2.7611   23.2848 H   0  0  0  0  0  0
  -22.4053  -11.9880   22.4837 H   0  0  0  0  0  0
  -21.1117  -13.1280   22.2637 H   0  0  0  0  0  0
  -24.6795  -15.8471   20.5231 H   0  0  0  0  0  0
  -26.2985  -15.6156   20.0979 H   0  0  0  0  0  0
  -26.7092  -32.5550   23.1199 H   0  0  0  0  0  0
  -25.0040  -33.9819   25.0489 H   0  0  0  0  0  0
  -22.6845  -31.3096   21.4182 H   0  0  0  0  0  0
  -23.3746  -35.9649   23.3322 H   0  0  0  0  0  0
  -24.3576  -36.8911   22.2053 H   0  0  0  0  0  0
  -23.7225  -37.6532   23.6636 H   0  0  0  0  0  0
  -26.0312  -31.6109   20.5897 H   0  0  0  0  0  0
  -26.8165  -30.9014   21.9731 H   0  0  0  0  0  0
  -28.0982  -29.1330   21.1542 H   0  0  0  0  0  0
  -26.0570  -25.9815   19.0239 H   0  0  0  0  0  0
  -23.9731  -27.2943   19.0470 H   0  0  0  0  0  0
  -23.7083  -30.6036   19.4083 H   0  0  0  0  0  0
  -22.7279  -29.2450   19.8733 H   0  0  0  0  0  0
  -25.1276  -36.1997   25.0840 H   0  0  0  0  0  0
  -20.9965  -28.3200   24.1463 H   0  0  0  0  0  0
  -20.5695  -26.2248   23.3609 H   0  0  0  0  0  0
  -21.6646  -26.7451   22.1200 H   0  0  0  0  0  0
  -19.6894  -25.6304   21.1242 H   0  0  0  0  0  0
  -19.6681  -27.3217   20.6778 H   0  0  0  0  0  0
  -17.4200  -26.6706   21.4027 H   0  0  0  0  0  0
  -18.0299  -26.0056   22.9018 H   0  0  0  0  0  0
  -19.7924  -30.7279   24.2280 H   0  0  0  0  0  0
  -17.4998  -31.6264   24.5170 H   0  0  0  0  0  0
  -15.5347  -30.2986   23.7640 H   0  0  0  0  0  0
  -15.8673  -28.0827   22.7048 H   0  0  0  0  0  0
  -24.5910  -30.7024   25.7843 H   0  0  0  0  0  0
  -24.8889  -32.2854   26.4924 H   0  0  0  0  0  0
  -25.8091  -30.8900   27.0250 H   0  0  0  0  0  0
  -26.2805  -29.6851   24.1107 H   0  0  0  0  0  0
  -27.4052  -29.7257   25.4496 H   0  0  0  0  0  0
  -27.8625  -30.4416   23.9200 H   0  0  0  0  0  0
  -27.2675  -33.3613   26.2079 H   0  0  0  0  0  0
  -28.3829  -32.6881   25.0292 H   0  0  0  0  0  0
  -28.0715  -31.8421   26.5374 H   0  0  0  0  0  0
  -28.2624  -38.0097   24.7512 H   0  0  0  0  0  0
  -28.1051  -36.2635   24.6299 H   0  0  0  0  0  0
  -27.2302  -37.1469   25.8879 H   0  0  0  0  0  0
  -20.9291  -29.8723   21.6971 H   0  0  0  0  0  0
  -26.0186  -38.2889   24.1411 H   0  0  0  0  0  0
  -31.1733  -18.8128   22.0699 H   0  0  0  0  0  0
  -28.3196  -15.5070   23.3381 H   0  0  0  0  0  0
  -27.5399  -16.9050   22.6510 H   0  0  0  0  0  0
  -31.5909  -17.4091   24.0756 H   0  0  0  0  0  0
  -30.8309  -15.8890   24.3926 H   0  0  0  0  0  0
  -30.3370  -25.2726   21.3418 H   0  0  0  0  0  0
  -29.3468  -26.0776   22.5357 H   0  0  0  0  0  0
  -27.5927  -24.3772   18.9897 H   0  0  0  0  0  0
  -29.3050  -24.2545   19.2972 H   0  0  0  0  0  0
  -29.4155  -17.0304   20.9187 H   0  0  0  0  0  0
  -28.4058  -15.6426   20.8086 H   0  0  0  0  0  0
  -32.2365  -15.4417   22.5666 H   0  0  0  0  0  0
  -31.7572  -16.8389   21.6588 H   0  0  0  0  0  0
  -28.3303  -24.0093   23.2604 H   0  0  0  0  0  0
  -30.0489  -23.7331   23.2123 H   0  0  0  0  0  0
  -28.2398  -22.1026   19.8276 H   0  0  0  0  0  0
  -27.0541  -22.8773   20.8515 H   0  0  0  0  0  0
  -29.1304  -17.3015   24.6726 H   0  0  0  0  0  0
  -27.2971  -25.3870   21.3076 H   0  0  0  0  0  0
  -32.1361  -20.5520   20.9106 H   0  0  0  0  0  0
  -31.6661  -22.1913   21.3584 H   0  0  0  0  0  0
  -30.9057  -21.3960   19.9708 H   0  0  0  0  0  0
  -27.1507  -17.9847   24.6733 H   0  0  0  0  0  0
  -26.1288  -19.2696   24.1657 H   0  0  0  0  0  0
  -27.2454  -19.5205   25.5078 H   0  0  0  0  0  0
  -25.9207  -21.1916   23.1766 H   0  0  0  0  0  0
  -26.7335  -22.7012   22.9866 H   0  0  0  0  0  0
  -26.8010  -21.8937   24.5400 H   0  0  0  0  0  0
  1 25  1  0  0  0
  1 30  2  0  0  0
  1 91  1  0  0  0
  2  3  1  0  0  0
  2 25  1  0  0  0
  2 92  1  0  0  0
  2 93  1  0  0  0
  3  4  1  0  0  0
  3 94  1  0  0  0
  3 95  1  0  0  0
  4  5  1  0  0  0
  4 96  1  0  0  0
  4 97  1  0  0  0
  5  6  1  0  0  0
  5 26  1  0  0  0
  5 98  1  0  0  0
  6 25  1  0  0  0
  6 99  1  0  0  0
  6100  1  0  0  0
  7  8  2  0  0  0
  7 26  1  0  0  0
  7 29  1  0  0  0
  8  9  1  0  0  0
  8 22  1  0  0  0
  9 10  1  0  0  0
  9 27  2  0  0  0
 10 11  2  0  0  0
 10 15  1  0  0  0
 11 12  1  0  0  0
 11101  1  0  0  0
 12 13  2  0  0  0
 12102  1  0  0  0
 13 14  1  0  0  0
 13 31  1  0  0  0
 14 15  2  0  0  0
 14103  1  0  0  0
 15104  1  0  0  0
 16 17  2  0  0  0
 16 21  1  0  0  0
 16 31  1  0  0  0
 17 18  1  0  0  0
 17105  1  0  0  0
 18 19  2  0  0  0
 18106  1  0  0  0
 19 20  1  0  0  0
 19 24  1  0  0  0
 20 21  2  0  0  0
 20107  1  0  0  0
 21 23  1  0  0  0
 22 28  1  0  0  0
 22 32  2  0  0  0
 26 27  1  0  0  0
 28108  1  0  0  0
 28109  1  0  0  0
 29110  1  0  0  0
 29111  1  0  0  0
 33 34  1  0  0  0
 33 66  1  0  0  0
 33 70  2  0  0  0
 34 36  1  0  0  0
 34 59  1  0  0  0
 34112  1  0  0  0
 35 44  2  0  0  0
 35 45  1  0  0  0
 35 68  1  0  0  0
 36 56  1  0  0  0
 36113  1  0  0  0
 37 39  1  0  0  0
 37 47  1  0  0  0
 37 66  1  0  0  0
 37114  1  0  0  0
 38 43  2  0  0  0
 38 46  1  0  0  0
 38 47  1  0  0  0
 39 64  1  0  0  0
 39 67  2  0  0  0
 40 52  1  0  0  0
 40 53  2  0  0  0
 40 58  1  0  0  0
 41115  1  0  0  0
 41116  1  0  0  0
 41117  1  0  0  0
 41 48  1  0  0  0
 42 43  1  0  0  0
 42 66  1  0  0  0
 42118  1  0  0  0
 42119  1  0  0  0
 43 44  1  0  0  0
 44120  1  0  0  0
 45 46  2  0  0  0
 45121  1  0  0  0
 46122  1  0  0  0
 47123  1  0  0  0
 47124  1  0  0  0
 48 56  1  0  0  0
 48 65  1  0  0  0
 48125  1  0  0  0
 49 50  1  0  0  0
 49 53  1  0  0  0
 49 64  1  0  0  0
 49126  1  0  0  0
 50 51  1  0  0  0
 50127  1  0  0  0
 50128  1  0  0  0
 51 52  1  0  0  0
 51129  1  0  0  0
 51130  1  0  0  0
 52131  1  0  0  0
 52132  1  0  0  0
 53 54  1  0  0  0
 54 55  2  0  0  0
 54133  1  0  0  0
 55 57  1  0  0  0
 55134  1  0  0  0
 56 69  2  0  0  0
 57 58  2  0  0  0
 57135  1  0  0  0
 58136  1  0  0  0
 59 60  1  0  0  0
 59 61  1  0  0  0
 59 62  1  0  0  0
 60137  1  0  0  0
 60138  1  0  0  0
 60139  1  0  0  0
 61140  1  0  0  0
 61141  1  0  0  0
 61142  1  0  0  0
 62143  1  0  0  0
 62144  1  0  0  0
 62145  1  0  0  0
 63 65  1  0  0  0
 63146  1  0  0  0
 63147  1  0  0  0
 63148  1  0  0  0
 64149  1  0  0  0
 65150  1  0  0  0
 68 86  1  0  0  0
 71 72  2  0  0  0
 71 73  1  0  0  0
 71151  1  0  0  0
 72 74  1  0  0  0
 72 85  1  0  0  0
 73 76  2  0  0  0
 73 87  1  0  0  0
 74 75  2  0  0  0
 74 88  1  0  0  0
 75 76  1  0  0  0
 75 89  1  0  0  0
 76 90  1  0  0  0
 77 81  1  0  0  0
 77 85  1  0  0  0
 77152  1  0  0  0
 77153  1  0  0  0
 78 82  1  0  0  0
 78 85  1  0  0  0
 78154  1  0  0  0
 78155  1  0  0  0
 79 83  1  0  0  0
 79 86  1  0  0  0
 79156  1  0  0  0
 79157  1  0  0  0
 80 84  1  0  0  0
 80 86  1  0  0  0
 80158  1  0  0  0
 80159  1  0  0  0
 81 91  1  0  0  0
 81160  1  0  0  0
 81161  1  0  0  0
 82 91  1  0  0  0
 82162  1  0  0  0
 82163  1  0  0  0
 83 90  1  0  0  0
 83164  1  0  0  0
 83165  1  0  0  0
 84 90  1  0  0  0
 84166  1  0  0  0
 84167  1  0  0  0
 85168  1  0  0  0
 86169  1  0  0  0
 87170  1  0  0  0
 87171  1  0  0  0
 87172  1  0  0  0
 88173  1  0  0  0
 88174  1  0  0  0
 88175  1  0  0  0
 89176  1  0  0  0
 89177  1  0  0  0
 89178  1  0  0  0
M  ISO  4   1 100  68 101  86 101  91 100
M  END
> <chiral flag>
0

> <version>
0

> <s_m_source_file>
/data/baiqing/PycharmProjects/Reinvent-master-3.2/result/LINK_invent/BTK/process_docking_weight1_custom_sum_contain_oxygen_bond_distance_aromatic_linkinvent_7_9_3/rearranged_h_0158.sdf

> <i_m_source_file_index>
64

> <r_mmod_Potential_Energy-OPLS-2005>
197.953765869141

> <r_mmod_Stretch_Energy-OPLS-2005>
46.086124420166

> <r_mmod_Bend_Energy-OPLS-2005>
120.892974853516

> <r_mmod_Torsional_Energy-OPLS-2005>
381.778228759766

> <r_mmod_Improper_Torsional_Energy-OPLS-2005>
8.83083438873291

> <r_mmod_Van_der_Waal_Energy-OPLS-2005>
184.498092651367

> <r_mmod_Electrostatic_Energy-OPLS-2005>
-362.25537109375

> <r_mmod_Solvation_Energy-OPLS-2005>
-192.235473632812

> <b_mmod_Minimization_Converged-OPLS-2005>
0

> <r_mmod_RMS_Derivative-OPLS-2005>
2.16462707519531

$$$$
64
                    3D
 Structure written by MMmdl.
176185  0  0  1  0            999 V2000
  -30.7311  -14.4932   20.5321 C   0  0  0  0  0  0
  -30.4128  -12.3130   19.4307 C   0  0  0  0  0  0
  -29.4885  -12.4906   18.2107 C   0  0  0  0  0  0
  -28.0130  -12.3318   18.6281 C   0  0  0  0  0  0
  -27.6470  -13.1903   19.8677 C   0  0  2  0  0  0
  -28.6998  -13.0512   20.9912 C   0  0  0  0  0  0
  -25.2571  -13.8090   20.5717 C   0  0  0  0  0  0
  -24.1803  -13.0396   20.9194 C   0  0  0  0  0  0
  -24.6343  -11.6862   20.8763 C   0  0  0  0  0  0
  -23.9020  -10.4252   21.0416 C   0  0  0  0  0  0
  -24.3588   -9.4172   21.9187 C   0  0  0  0  0  0
  -23.6269   -8.2214   22.0746 C   0  0  0  0  0  0
  -22.4256   -8.0247   21.3531 C   0  0  0  0  0  0
  -21.9885   -9.0225   20.4640 C   0  0  0  0  0  0
  -22.7205  -10.2104   20.3061 C   0  0  0  0  0  0
  -21.6836   -6.0717   22.5278 C   0  0  0  0  0  0
  -21.3994   -6.5625   23.8212 C   0  0  0  0  0  0
  -21.3648   -5.6777   24.9178 C   0  0  0  0  0  0
  -21.6054   -4.3044   24.7230 C   0  0  0  0  0  0
  -21.8824   -3.8132   23.4358 C   0  0  0  0  0  0
  -21.9191   -4.6947   22.3415 C   0  0  0  0  0  0
  -22.7839  -13.5226   21.1853 C   0  0  0  0  0  0
  -22.1658   -4.2131   21.0994 F   0  0  0  0  0  0
  -21.5647   -3.4528   25.7749 F   0  0  0  0  0  0
  -30.0257  -13.3326   20.4180 N   0  0  0  0  0  0
  -26.2959  -12.9206   20.3400 N   0  0  0  0  0  0
  -25.9265  -11.6396   20.5826 N   0  0  0  0  0  0
  -22.0471  -12.8226   22.0405 N   0  0  0  0  0  0
  -25.4357  -15.1807   20.4127 N   0  0  0  0  0  0
  -31.9052  -14.5918   20.1710 O   0  0  0  0  0  0
  -21.6621   -6.8843   21.4234 O   0  0  0  0  0  0
  -22.3550  -14.5538   20.6690 O   0  0  0  0  0  0
  -24.6141  -31.8683   23.2099 C   0  0  0  0  0  0
  -25.9033  -32.4831   23.8388 C   0  0  1  0  0  0
  -27.2345  -27.4385   20.1128 C   0  0  0  0  0  0
  -25.5883  -33.8635   24.2323 N   0  0  0  0  0  0
  -23.4019  -30.4871   21.5499 C   0  0  2  0  0  0
  -24.8523  -28.9541   20.1117 C   0  0  0  0  0  0
  -22.7419  -29.4653   22.5025 C   0  0  0  0  0  0
  -18.0270  -28.1375   22.8493 C   0  0  0  0  0  0
  -24.1484  -36.7311   23.2635 C   0  0  0  0  0  0
  -25.9262  -30.8337   21.3637 C   0  0  0  0  0  0
  -26.0062  -29.4659   20.7199 C   0  0  0  0  0  0
  -27.2004  -28.7112   20.7263 C   0  0  0  0  0  0
  -26.0735  -26.9409   19.4892 C   0  0  0  0  0  0
  -24.8810  -27.6901   19.4940 C   0  0  0  0  0  0
  -23.6092  -29.8147   20.1645 C   0  0  0  0  0  0
  -25.4099  -36.3117   24.0334 C   0  0  1  0  0  0
  -20.5862  -28.3648   23.1346 C   0  0  2  0  0  0
  -20.6771  -26.9385   22.5440 C   0  0  0  0  0  0
  -19.5752  -26.6370   21.5241 C   0  0  0  0  0  0
  -18.1918  -26.7921   22.1619 C   0  0  0  0  0  0
  -19.1519  -28.8823   23.2921 C   0  0  0  0  0  0
  -18.9454  -30.1427   23.8925 C   0  0  0  0  0  0
  -17.6458  -30.6583   24.0555 C   0  0  0  0  0  0
  -25.9028  -34.9490   23.5130 C   0  0  0  0  0  0
  -16.5346  -29.9083   23.6324 C   0  0  0  0  0  0
  -16.7261  -28.6502   23.0349 C   0  0  0  0  0  0
  -26.4442  -31.6610   25.0726 C   0  0  0  0  0  0
  -25.3698  -31.3758   26.1476 C   0  0  0  0  0  0
  -27.0250  -30.3055   24.6077 C   0  0  0  0  0  0
  -27.6022  -32.4322   25.7483 C   0  0  0  0  0  0
  -27.5585  -37.1778   24.8443 C   0  0  0  0  0  0
  -21.4147  -29.3015   22.3756 N   0  0  0  0  0  0
  -26.4278  -37.3810   23.9431 N   0  0  0  0  0  0
  -24.6653  -31.0777   22.1000 N   0  0  0  0  0  0
  -23.4200  -28.8211   23.3076 O   0  0  0  0  0  0
  -28.3773  -26.6765   20.0986 O   0  0  0  0  0  0
  -26.5602  -34.8935   22.4696 O   0  0  0  0  0  0
  -23.5331  -32.1423   23.7483 O   0  0  0  0  0  0
  -30.5029  -22.9683   18.7795 C   0  0  0  0  0  0
  -30.9096  -20.3396   17.9662 C   0  0  0  0  0  0
  -30.8183  -22.7077   17.4359 C   0  0  0  0  0  0
  -30.3568  -21.9319   19.7385 C   0  0  0  0  0  0
  -31.0339  -21.3803   17.0271 C   0  0  0  0  0  0
  -30.5516  -20.5766   19.3213 C   0  0  0  0  0  0
  -31.5277  -17.5955   21.3116 C   0  0  0  0  0  0
  -30.3290  -17.3167   19.0746 C   0  0  0  0  0  0
  -30.5184  -16.5616   21.8858 C   0  0  0  0  0  0
  -29.3586  -16.3788   19.8136 C   0  0  0  0  0  0
  -31.1012  -18.2936   19.9931 C   0  0  0  0  0  0
  -30.9226  -23.8636   16.4541 C   0  0  0  0  0  0
  -31.3972  -21.0578   15.5885 C   0  0  0  0  0  0
  -31.1543  -21.7808   22.1479 C   0  0  0  0  0  0
  -28.6050  -24.4087   21.0799 C   0  0  0  0  0  0
  -28.6226  -25.9466   21.3107 C   0  0  0  0  0  0
  -30.0416  -22.2918   21.2106 C   0  0  1  0  0  0
  -30.0325  -15.6107   20.8713 N   0  0  0  0  0  0
  -29.8875  -23.7533   21.4701 N   0  3  0  0  0  0
  -30.3863  -19.5269   20.2254 O   0  0  0  0  0  0
  -31.4582  -12.3938   19.1284 H   0  0  0  0  0  0
  -30.3045  -11.3130   19.8550 H   0  0  0  0  0  0
  -29.7387  -11.7614   17.4397 H   0  0  0  0  0  0
  -29.6432  -13.4749   17.7658 H   0  0  0  0  0  0
  -27.8442  -11.2752   18.8438 H   0  0  0  0  0  0
  -27.3549  -12.5780   17.7938 H   0  0  0  0  0  0
  -27.6377  -14.2160   19.5269 H   0  0  0  0  0  0
  -28.6849  -12.0414   21.4030 H   0  0  0  0  0  0
  -28.4680  -13.7216   21.8209 H   0  0  0  0  0  0
  -25.2734   -9.5663   22.4758 H   0  0  0  0  0  0
  -23.9976   -7.4608   22.7466 H   0  0  0  0  0  0
  -21.0818   -8.8749   19.8944 H   0  0  0  0  0  0
  -22.3664  -10.9652   19.6175 H   0  0  0  0  0  0
  -21.1956   -7.6124   23.9709 H   0  0  0  0  0  0
  -21.1465   -6.0506   25.9076 H   0  0  0  0  0  0
  -22.0614   -2.7594   23.2874 H   0  0  0  0  0  0
  -22.4061  -11.9872   22.4785 H   0  0  0  0  0  0
  -21.1093  -13.1260   22.2609 H   0  0  0  0  0  0
  -24.6809  -15.8478   20.5277 H   0  0  0  0  0  0
  -26.3068  -15.6112   20.1293 H   0  0  0  0  0  0
  -26.7113  -32.5551   23.1164 H   0  0  0  0  0  0
  -25.0042  -33.9799   25.0465 H   0  0  0  0  0  0
  -22.6895  -31.3028   21.4070 H   0  0  0  0  0  0
  -23.3776  -35.9612   23.3258 H   0  0  0  0  0  0
  -24.3592  -36.8986   22.2064 H   0  0  0  0  0  0
  -23.7199  -37.6482   23.6675 H   0  0  0  0  0  0
  -26.0308  -31.5930   20.5883 H   0  0  0  0  0  0
  -26.8187  -30.8973   21.9743 H   0  0  0  0  0  0
  -28.0898  -29.0974   21.2028 H   0  0  0  0  0  0
  -26.0905  -25.9707   19.0104 H   0  0  0  0  0  0
  -23.9935  -27.2922   19.0221 H   0  0  0  0  0  0
  -23.7032  -30.5842   19.3978 H   0  0  0  0  0  0
  -22.7392  -29.2231   19.8758 H   0  0  0  0  0  0
  -25.1273  -36.1966   25.0821 H   0  0  0  0  0  0
  -20.9915  -28.3205   24.1487 H   0  0  0  0  0  0
  -20.5705  -26.2249   23.3625 H   0  0  0  0  0  0
  -21.6636  -26.7460   22.1200 H   0  0  0  0  0  0
  -19.6925  -25.6301   21.1230 H   0  0  0  0  0  0
  -19.6700  -27.3212   20.6812 H   0  0  0  0  0  0
  -17.4197  -26.6701   21.3998 H   0  0  0  0  0  0
  -18.0287  -26.0052   22.8994 H   0  0  0  0  0  0
  -19.7946  -30.7229   24.2297 H   0  0  0  0  0  0
  -17.5025  -31.6264   24.5155 H   0  0  0  0  0  0
  -15.5349  -30.2990   23.7661 H   0  0  0  0  0  0
  -15.8659  -28.0823   22.7064 H   0  0  0  0  0  0
  -24.5884  -30.7075   25.7846 H   0  0  0  0  0  0
  -24.8840  -32.2926   26.4839 H   0  0  0  0  0  0
  -25.8021  -30.9001   27.0289 H   0  0  0  0  0  0
  -26.2774  -29.6881   24.1081 H   0  0  0  0  0  0
  -27.4004  -29.7251   25.4517 H   0  0  0  0  0  0
  -27.8623  -30.4416   23.9236 H   0  0  0  0  0  0
  -27.2651  -33.3660   26.2003 H   0  0  0  0  0  0
  -28.3846  -32.6823   25.0306 H   0  0  0  0  0  0
  -28.0648  -31.8464   26.5440 H   0  0  0  0  0  0
  -28.2540  -38.0141   24.7585 H   0  0  0  0  0  0
  -28.1145  -36.2675   24.6125 H   0  0  0  0  0  0
  -27.2312  -37.1254   25.8846 H   0  0  0  0  0  0
  -20.9318  -29.8698   21.6935 H   0  0  0  0  0  0
  -26.0176  -38.2877   24.1497 H   0  0  0  0  0  0
  -30.3727  -24.0053   19.0448 H   0  0  0  0  0  0
  -31.0969  -19.3432   17.6033 H   0  0  0  0  0  0
  -32.4660  -17.0730   21.1183 H   0  0  0  0  0  0
  -31.7739  -18.3403   22.0678 H   0  0  0  0  0  0
  -29.7697  -17.8476   18.3069 H   0  0  0  0  0  0
  -31.0595  -16.7069   18.5419 H   0  0  0  0  0  0
  -29.6640  -17.0822   22.3218 H   0  0  0  0  0  0
  -30.9817  -16.0180   22.7115 H   0  0  0  0  0  0
  -28.9330  -15.7255   19.0577 H   0  0  0  0  0  0
  -28.5293  -16.9454   20.2399 H   0  0  0  0  0  0
  -32.0401  -18.5570   19.5027 H   0  0  0  0  0  0
  -30.8154  -24.8277   16.9530 H   0  0  0  0  0  0
  -30.1369  -23.7940   15.7014 H   0  0  0  0  0  0
  -31.8883  -23.8607   15.9481 H   0  0  0  0  0  0
  -31.4260  -19.9833   15.4086 H   0  0  0  0  0  0
  -32.3786  -21.4649   15.3445 H   0  0  0  0  0  0
  -30.6680  -21.4856   14.9000 H   0  0  0  0  0  0
  -31.2568  -20.6992   22.1305 H   0  0  0  0  0  0
  -30.9538  -22.0507   23.1848 H   0  0  0  0  0  0
  -32.1230  -22.2011   21.8763 H   0  0  0  0  0  0
  -28.3580  -24.1952   20.0409 H   0  0  0  0  0  0
  -27.8011  -23.9689   21.6706 H   0  0  0  0  0  0
  -29.5842  -26.2761   21.7041 H   0  0  0  0  0  0
  -27.8974  -26.1981   22.0877 H   0  0  0  0  0  0
  -29.1091  -21.7926   21.4842 H   0  0  0  0  0  0
  -30.0004  -23.8746   22.4649 H   0  0  0  0  0  0
  -30.6650  -24.2217   21.0292 H   0  0  0  0  0  0
  1 25  1  0  0  0
  1 30  2  0  0  0
  1 88  1  0  0  0
  2  3  1  0  0  0
  2 25  1  0  0  0
  2 91  1  0  0  0
  2 92  1  0  0  0
  3  4  1  0  0  0
  3 93  1  0  0  0
  3 94  1  0  0  0
  4  5  1  0  0  0
  4 95  1  0  0  0
  4 96  1  0  0  0
  5  6  1  0  0  0
  5 26  1  0  0  0
  5 97  1  0  0  0
  6 25  1  0  0  0
  6 98  1  0  0  0
  6 99  1  0  0  0
  7  8  2  0  0  0
  7 26  1  0  0  0
  7 29  1  0  0  0
  8  9  1  0  0  0
  8 22  1  0  0  0
  9 10  1  0  0  0
  9 27  2  0  0  0
 10 11  2  0  0  0
 10 15  1  0  0  0
 11 12  1  0  0  0
 11100  1  0  0  0
 12 13  2  0  0  0
 12101  1  0  0  0
 13 14  1  0  0  0
 13 31  1  0  0  0
 14 15  2  0  0  0
 14102  1  0  0  0
 15103  1  0  0  0
 16 17  2  0  0  0
 16 21  1  0  0  0
 16 31  1  0  0  0
 17 18  1  0  0  0
 17104  1  0  0  0
 18 19  2  0  0  0
 18105  1  0  0  0
 19 20  1  0  0  0
 19 24  1  0  0  0
 20 21  2  0  0  0
 20106  1  0  0  0
 21 23  1  0  0  0
 22 28  1  0  0  0
 22 32  2  0  0  0
 26 27  1  0  0  0
 28107  1  0  0  0
 28108  1  0  0  0
 29109  1  0  0  0
 29110  1  0  0  0
 33 34  1  0  0  0
 33 66  1  0  0  0
 33 70  2  0  0  0
 34 36  1  0  0  0
 34 59  1  0  0  0
 34111  1  0  0  0
 35 44  2  0  0  0
 35 45  1  0  0  0
 35 68  1  0  0  0
 36 56  1  0  0  0
 36112  1  0  0  0
 37 39  1  0  0  0
 37 47  1  0  0  0
 37 66  1  0  0  0
 37113  1  0  0  0
 38 43  2  0  0  0
 38 46  1  0  0  0
 38 47  1  0  0  0
 39 64  1  0  0  0
 39 67  2  0  0  0
 40 52  1  0  0  0
 40 53  2  0  0  0
 40 58  1  0  0  0
 41114  1  0  0  0
 41115  1  0  0  0
 41116  1  0  0  0
 41 48  1  0  0  0
 42 43  1  0  0  0
 42 66  1  0  0  0
 42117  1  0  0  0
 42118  1  0  0  0
 43 44  1  0  0  0
 44119  1  0  0  0
 45 46  2  0  0  0
 45120  1  0  0  0
 46121  1  0  0  0
 47122  1  0  0  0
 47123  1  0  0  0
 48 56  1  0  0  0
 48 65  1  0  0  0
 48124  1  0  0  0
 49 50  1  0  0  0
 49 53  1  0  0  0
 49 64  1  0  0  0
 49125  1  0  0  0
 50 51  1  0  0  0
 50126  1  0  0  0
 50127  1  0  0  0
 51 52  1  0  0  0
 51128  1  0  0  0
 51129  1  0  0  0
 52130  1  0  0  0
 52131  1  0  0  0
 53 54  1  0  0  0
 54 55  2  0  0  0
 54132  1  0  0  0
 55 57  1  0  0  0
 55133  1  0  0  0
 56 69  2  0  0  0
 57 58  2  0  0  0
 57134  1  0  0  0
 58135  1  0  0  0
 59 60  1  0  0  0
 59 61  1  0  0  0
 59 62  1  0  0  0
 60136  1  0  0  0
 60137  1  0  0  0
 60138  1  0  0  0
 61139  1  0  0  0
 61140  1  0  0  0
 61141  1  0  0  0
 62142  1  0  0  0
 62143  1  0  0  0
 62144  1  0  0  0
 63 65  1  0  0  0
 63145  1  0  0  0
 63146  1  0  0  0
 63147  1  0  0  0
 64148  1  0  0  0
 65149  1  0  0  0
 68 86  1  0  0  0
 71 73  2  0  0  0
 71 74  1  0  0  0
 71150  1  0  0  0
 72 75  2  0  0  0
 72 76  1  0  0  0
 72151  1  0  0  0
 73 75  1  0  0  0
 73 82  1  0  0  0
 74 76  2  0  0  0
 74 87  1  0  0  0
 75 83  1  0  0  0
 76 90  1  0  0  0
 77 79  1  0  0  0
 77 81  1  0  0  0
 77152  1  0  0  0
 77153  1  0  0  0
 78 80  1  0  0  0
 78 81  1  0  0  0
 78154  1  0  0  0
 78155  1  0  0  0
 79 88  1  0  0  0
 79156  1  0  0  0
 79157  1  0  0  0
 80 88  1  0  0  0
 80158  1  0  0  0
 80159  1  0  0  0
 81 90  1  0  0  0
 81160  1  0  0  0
 82161  1  0  0  0
 82162  1  0  0  0
 82163  1  0  0  0
 83164  1  0  0  0
 83165  1  0  0  0
 83166  1  0  0  0
 84167  1  0  0  0
 84168  1  0  0  0
 84169  1  0  0  0
 84 87  1  0  0  0
 85 86  1  0  0  0
 85 89  1  0  0  0
 85170  1  0  0  0
 85171  1  0  0  0
 86172  1  0  0  0
 86173  1  0  0  0
 87 89  1  0  0  0
 87174  1  0  0  0
 89175  1  0  0  0
 89176  1  0  0  0
M  CHG  1  89   1
M  ISO  4   1 100  68 101  86 101  88 100
M  END
> <chiral flag>
0

> <version>
0

> <s_m_source_file>
/data/baiqing/PycharmProjects/Reinvent-master-3.2/result/LINK_invent/BTK/process_docking_weight1_custom_sum_contain_oxygen_bond_distance_aromatic_linkinvent_7_9_3/rearranged_h_0158.sdf

> <i_m_source_file_index>
65

> <r_mmod_Potential_Energy-OPLS-2005>
68.8294448852539

> <r_mmod_Stretch_Energy-OPLS-2005>
45.9631156921387

> <r_mmod_Bend_Energy-OPLS-2005>
116.210479736328

> <r_mmod_Torsional_Energy-OPLS-2005>
370.448760986328

> <r_mmod_Improper_Torsional_Energy-OPLS-2005>
7.53275489807129

> <r_mmod_Van_der_Waal_Energy-OPLS-2005>
166.538116455078

> <r_mmod_Electrostatic_Energy-OPLS-2005>
-241.608459472656

> <r_mmod_Solvation_Energy-OPLS-2005>
-415.437469482422

> <b_mmod_Minimization_Converged-OPLS-2005>
0

> <r_mmod_RMS_Derivative-OPLS-2005>
2.80167126655579

$$$$
65
                    3D
 Structure written by MMmdl.
168177  0  0  1  0            999 V2000
  -30.7017  -14.5786   20.4535 C   0  0  0  0  0  0
  -30.4135  -12.3521   19.4243 C   0  0  0  0  0  0
  -29.4799  -12.4559   18.2019 C   0  0  0  0  0  0
  -28.0143  -12.2996   18.6486 C   0  0  0  0  0  0
  -27.6457  -13.2009   19.8576 C   0  0  2  0  0  0
  -28.7042  -13.0826   20.9782 C   0  0  0  0  0  0
  -25.2566  -13.8117   20.5693 C   0  0  0  0  0  0
  -24.1812  -13.0398   20.9213 C   0  0  0  0  0  0
  -24.6341  -11.6854   20.8774 C   0  0  0  0  0  0
  -23.9016  -10.4239   21.0445 C   0  0  0  0  0  0
  -24.3552   -9.4149   21.9224 C   0  0  0  0  0  0
  -23.6227   -8.2178   22.0769 C   0  0  0  0  0  0
  -22.4227   -8.0220   21.3539 C   0  0  0  0  0  0
  -21.9868   -9.0200   20.4658 C   0  0  0  0  0  0
  -22.7199  -10.2071   20.3094 C   0  0  0  0  0  0
  -21.6839   -6.0667   22.5263 C   0  0  0  0  0  0
  -21.3996   -6.5599   23.8183 C   0  0  0  0  0  0
  -21.3673   -5.6786   24.9181 C   0  0  0  0  0  0
  -21.6041   -4.3039   24.7245 C   0  0  0  0  0  0
  -21.8816   -3.8096   23.4380 C   0  0  0  0  0  0
  -21.9180   -4.6894   22.3415 C   0  0  0  0  0  0
  -22.7847  -13.5225   21.1881 C   0  0  0  0  0  0
  -22.1654   -4.2058   21.0999 F   0  0  0  0  0  0
  -21.5661   -3.4547   25.7773 F   0  0  0  0  0  0
  -30.0033  -13.4055   20.3730 N   0  0  0  0  0  0
  -26.2938  -12.9246   20.3357 N   0  0  0  0  0  0
  -25.9264  -11.6402   20.5832 N   0  0  0  0  0  0
  -22.0486  -12.8177   22.0422 N   0  0  0  0  0  0
  -25.4405  -15.1790   20.4028 N   0  0  0  0  0  0
  -31.9138  -14.5859   20.2278 O   0  0  0  0  0  0
  -21.6638   -6.8778   21.4204 O   0  0  0  0  0  0
  -22.3513  -14.5536   20.6767 O   0  0  0  0  0  0
  -24.6170  -31.8630   23.2037 C   0  0  0  0  0  0
  -25.9020  -32.4807   23.8404 C   0  0  1  0  0  0
  -27.2302  -27.3934   20.0932 C   0  0  0  0  0  0
  -25.5879  -33.8613   24.2287 N   0  0  0  0  0  0
  -23.4067  -30.4879   21.5444 C   0  0  2  0  0  0
  -24.8553  -28.9480   20.1101 C   0  0  0  0  0  0
  -22.7423  -29.4631   22.4938 C   0  0  0  0  0  0
  -18.0281  -28.1349   22.8480 C   0  0  0  0  0  0
  -24.1488  -36.7302   23.2640 C   0  0  0  0  0  0
  -25.9443  -30.8159   21.3640 C   0  0  0  0  0  0
  -26.0232  -29.4519   20.7003 C   0  0  0  0  0  0
  -27.2218  -28.6900   20.6717 C   0  0  0  0  0  0
  -26.0445  -26.9085   19.5119 C   0  0  0  0  0  0
  -24.8650  -27.6777   19.5084 C   0  0  0  0  0  0
  -23.6158  -29.8169   20.1598 C   0  0  0  0  0  0
  -25.4121  -36.3103   24.0319 C   0  0  1  0  0  0
  -20.5860  -28.3645   23.1282 C   0  0  2  0  0  0
  -20.6746  -26.9379   22.5389 C   0  0  0  0  0  0
  -19.5734  -26.6356   21.5184 C   0  0  0  0  0  0
  -18.1915  -26.7884   22.1603 C   0  0  0  0  0  0
  -19.1525  -28.8817   23.2868 C   0  0  0  0  0  0
  -18.9463  -30.1425   23.8890 C   0  0  0  0  0  0
  -17.6467  -30.6560   24.0552 C   0  0  0  0  0  0
  -25.9059  -34.9481   23.5115 C   0  0  0  0  0  0
  -16.5352  -29.9064   23.6322 C   0  0  0  0  0  0
  -16.7267  -28.6471   23.0355 C   0  0  0  0  0  0
  -26.4424  -31.6634   25.0791 C   0  0  0  0  0  0
  -25.3670  -31.3793   26.1537 C   0  0  0  0  0  0
  -27.0267  -30.3063   24.6218 C   0  0  0  0  0  0
  -27.5988  -32.4390   25.7535 C   0  0  0  0  0  0
  -27.5574  -37.1803   24.8466 C   0  0  0  0  0  0
  -21.4138  -29.3022   22.3684 N   0  0  0  0  0  0
  -26.4286  -37.3786   23.9413 N   0  0  0  0  0  0
  -24.6739  -31.0729   22.0938 N   0  0  0  0  0  0
  -23.4203  -28.8166   23.2963 O   0  0  0  0  0  0
  -28.3489  -26.5719   20.0813 O   0  0  0  0  0  0
  -26.5640  -34.8944   22.4686 O   0  0  0  0  0  0
  -23.5362  -32.1386   23.7429 O   0  0  0  0  0  0
  -29.8376  -23.4858   20.3005 C   0  0  0  0  0  0
  -27.4627  -23.1061   20.3753 C   0  0  0  0  0  0
  -28.5388  -24.0106   20.5021 C   0  0  0  0  0  0
  -30.0521  -22.1109   19.9872 C   0  0  0  0  0  0
  -27.6575  -21.7231   20.0927 C   0  0  0  0  0  0
  -28.9654  -21.1955   19.9013 C   0  0  0  0  0  0
  -30.8645  -18.1035   19.7954 C   0  0  0  0  0  0
  -28.5624  -17.8201   20.7579 C   0  0  0  0  0  0
  -30.5041  -16.7115   19.1973 C   0  0  0  0  0  0
  -29.0665  -16.3893   21.1705 C   0  0  0  0  0  0
  -29.6616  -18.8633   20.4119 C   0  0  0  0  0  0
  -31.4670  -21.6314   19.7251 C   0  0  0  0  0  0
  -25.7792  -20.8312   18.6357 C   0  0  0  0  0  0
  -28.2840  -25.4587   21.0150 C   0  0  0  0  0  0
  -26.4448  -20.8004   20.0128 C   0  0  2  0  0  0
  -30.0049  -15.7457   20.2139 N   0  0  0  0  0  0
  -25.4628  -21.1028   20.9886 O   0  0  0  0  0  0
  -29.1312  -19.8641   19.5009 O   0  0  0  0  0  0
  -31.4537  -12.4358   19.1054 H   0  0  0  0  0  0
  -30.3215  -11.3715   19.8934 H   0  0  0  0  0  0
  -29.7377  -11.6875   17.4680 H   0  0  0  0  0  0
  -29.6096  -13.4161   17.6996 H   0  0  0  0  0  0
  -27.8788  -11.2551   18.9309 H   0  0  0  0  0  0
  -27.3363  -12.4720   17.8156 H   0  0  0  0  0  0
  -27.6638  -14.2261   19.4906 H   0  0  0  0  0  0
  -28.7216  -12.0687   21.3822 H   0  0  0  0  0  0
  -28.4797  -13.7243   21.8274 H   0  0  0  0  0  0
  -25.2667   -9.5609   22.4837 H   0  0  0  0  0  0
  -23.9913   -7.4562   22.7486 H   0  0  0  0  0  0
  -21.0806   -8.8740   19.8963 H   0  0  0  0  0  0
  -22.3669  -10.9626   19.6229 H   0  0  0  0  0  0
  -21.1986   -7.6108   23.9638 H   0  0  0  0  0  0
  -21.1540   -6.0559   25.9079 H   0  0  0  0  0  0
  -22.0590   -2.7550   23.2946 H   0  0  0  0  0  0
  -22.4088  -11.9780   22.4706 H   0  0  0  0  0  0
  -21.1142  -13.1233   22.2749 H   0  0  0  0  0  0
  -24.6877  -15.8518   20.5104 H   0  0  0  0  0  0
  -26.3074  -15.5900   20.0776 H   0  0  0  0  0  0
  -26.7091  -32.5447   23.1172 H   0  0  0  0  0  0
  -25.0029  -33.9790   25.0419 H   0  0  0  0  0  0
  -22.6977  -31.3060   21.4025 H   0  0  0  0  0  0
  -23.3745  -35.9638   23.3334 H   0  0  0  0  0  0
  -24.3571  -36.8895   22.2047 H   0  0  0  0  0  0
  -23.7239  -37.6515   23.6645 H   0  0  0  0  0  0
  -26.0782  -31.5896   20.6066 H   0  0  0  0  0  0
  -26.8209  -30.8577   21.9961 H   0  0  0  0  0  0
  -28.1289  -29.0857   21.1038 H   0  0  0  0  0  0
  -26.0314  -25.9232   19.0672 H   0  0  0  0  0  0
  -23.9694  -27.2779   19.0547 H   0  0  0  0  0  0
  -23.7232  -30.5904   19.3985 H   0  0  0  0  0  0
  -22.7376  -29.2372   19.8686 H   0  0  0  0  0  0
  -25.1285  -36.1970   25.0803 H   0  0  0  0  0  0
  -20.9980  -28.3234   24.1393 H   0  0  0  0  0  0
  -20.5584  -26.2301   23.3595 H   0  0  0  0  0  0
  -21.6630  -26.7366   22.1231 H   0  0  0  0  0  0
  -19.6891  -25.6269   21.1218 H   0  0  0  0  0  0
  -19.6658  -27.3162   20.6711 H   0  0  0  0  0  0
  -17.4167  -26.6625   21.4014 H   0  0  0  0  0  0
  -18.0341  -26.0016   22.9010 H   0  0  0  0  0  0
  -19.7950  -30.7222   24.2262 H   0  0  0  0  0  0
  -17.5027  -31.6255   24.5144 H   0  0  0  0  0  0
  -15.5340  -30.2968   23.7642 H   0  0  0  0  0  0
  -15.8660  -28.0779   22.7084 H   0  0  0  0  0  0
  -24.5784  -30.7212   25.7880 H   0  0  0  0  0  0
  -24.8940  -32.2996   26.4990 H   0  0  0  0  0  0
  -25.8008  -30.8939   27.0285 H   0  0  0  0  0  0
  -26.2866  -29.6858   24.1160 H   0  0  0  0  0  0
  -27.3907  -29.7282   25.4716 H   0  0  0  0  0  0
  -27.8758  -30.4391   23.9505 H   0  0  0  0  0  0
  -27.2559  -33.3647   26.2162 H   0  0  0  0  0  0
  -28.3744  -32.7020   25.0337 H   0  0  0  0  0  0
  -28.0710  -31.8503   26.5391 H   0  0  0  0  0  0
  -28.2600  -38.0088   24.7494 H   0  0  0  0  0  0
  -28.1061  -36.2618   24.6316 H   0  0  0  0  0  0
  -27.2299  -37.1490   25.8871 H   0  0  0  0  0  0
  -20.9307  -29.8839   21.6977 H   0  0  0  0  0  0
  -26.0178  -38.2868   24.1414 H   0  0  0  0  0  0
  -30.6888  -24.1442   20.4030 H   0  0  0  0  0  0
  -26.4646  -23.4892   20.5253 H   0  0  0  0  0  0
  -31.3621  -18.7143   19.0440 H   0  0  0  0  0  0
  -31.6089  -17.9550   20.5797 H   0  0  0  0  0  0
  -27.9134  -18.2212   21.5376 H   0  0  0  0  0  0
  -27.9208  -17.7058   19.8840 H   0  0  0  0  0  0
  -31.3686  -16.3272   18.6473 H   0  0  0  0  0  0
  -29.7347  -16.8271   18.4347 H   0  0  0  0  0  0
  -28.1806  -15.7685   21.2971 H   0  0  0  0  0  0
  -29.5543  -16.4444   22.1459 H   0  0  0  0  0  0
  -30.0027  -19.3568   21.3208 H   0  0  0  0  0  0
  -31.7712  -20.9252   20.4947 H   0  0  0  0  0  0
  -32.1772  -22.4612   19.7184 H   0  0  0  0  0  0
  -31.5281  -21.1266   18.7590 H   0  0  0  0  0  0
  -26.4957  -20.5592   17.8616 H   0  0  0  0  0  0
  -25.3979  -21.8215   18.3896 H   0  0  0  0  0  0
  -24.9476  -20.1237   18.5838 H   0  0  0  0  0  0
  -29.0190  -25.6577   21.7930 H   0  0  0  0  0  0
  -27.3236  -25.4546   21.5364 H   0  0  0  0  0  0
  -26.7608  -19.7794   20.2151 H   0  0  0  0  0  0
  -25.1489  -21.9810   20.8097 H   0  0  0  0  0  0
  1 25  1  0  0  0
  1 30  2  0  0  0
  1 86  1  0  0  0
  2  3  1  0  0  0
  2 25  1  0  0  0
  2 89  1  0  0  0
  2 90  1  0  0  0
  3  4  1  0  0  0
  3 91  1  0  0  0
  3 92  1  0  0  0
  4  5  1  0  0  0
  4 93  1  0  0  0
  4 94  1  0  0  0
  5  6  1  0  0  0
  5 26  1  0  0  0
  5 95  1  0  0  0
  6 25  1  0  0  0
  6 96  1  0  0  0
  6 97  1  0  0  0
  7  8  2  0  0  0
  7 26  1  0  0  0
  7 29  1  0  0  0
  8  9  1  0  0  0
  8 22  1  0  0  0
  9 10  1  0  0  0
  9 27  2  0  0  0
 10 11  2  0  0  0
 10 15  1  0  0  0
 11 12  1  0  0  0
 11 98  1  0  0  0
 12 13  2  0  0  0
 12 99  1  0  0  0
 13 14  1  0  0  0
 13 31  1  0  0  0
 14 15  2  0  0  0
 14100  1  0  0  0
 15101  1  0  0  0
 16 17  2  0  0  0
 16 21  1  0  0  0
 16 31  1  0  0  0
 17 18  1  0  0  0
 17102  1  0  0  0
 18 19  2  0  0  0
 18103  1  0  0  0
 19 20  1  0  0  0
 19 24  1  0  0  0
 20 21  2  0  0  0
 20104  1  0  0  0
 21 23  1  0  0  0
 22 28  1  0  0  0
 22 32  2  0  0  0
 26 27  1  0  0  0
 28105  1  0  0  0
 28106  1  0  0  0
 29107  1  0  0  0
 29108  1  0  0  0
 33 34  1  0  0  0
 33 66  1  0  0  0
 33 70  2  0  0  0
 34 36  1  0  0  0
 34 59  1  0  0  0
 34109  1  0  0  0
 35 44  2  0  0  0
 35 45  1  0  0  0
 35 68  1  0  0  0
 36 56  1  0  0  0
 36110  1  0  0  0
 37 39  1  0  0  0
 37 47  1  0  0  0
 37 66  1  0  0  0
 37111  1  0  0  0
 38 43  2  0  0  0
 38 46  1  0  0  0
 38 47  1  0  0  0
 39 64  1  0  0  0
 39 67  2  0  0  0
 40 52  1  0  0  0
 40 53  2  0  0  0
 40 58  1  0  0  0
 41112  1  0  0  0
 41113  1  0  0  0
 41114  1  0  0  0
 41 48  1  0  0  0
 42 43  1  0  0  0
 42 66  1  0  0  0
 42115  1  0  0  0
 42116  1  0  0  0
 43 44  1  0  0  0
 44117  1  0  0  0
 45 46  2  0  0  0
 45118  1  0  0  0
 46119  1  0  0  0
 47120  1  0  0  0
 47121  1  0  0  0
 48 56  1  0  0  0
 48 65  1  0  0  0
 48122  1  0  0  0
 49 50  1  0  0  0
 49 53  1  0  0  0
 49 64  1  0  0  0
 49123  1  0  0  0
 50 51  1  0  0  0
 50124  1  0  0  0
 50125  1  0  0  0
 51 52  1  0  0  0
 51126  1  0  0  0
 51127  1  0  0  0
 52128  1  0  0  0
 52129  1  0  0  0
 53 54  1  0  0  0
 54 55  2  0  0  0
 54130  1  0  0  0
 55 57  1  0  0  0
 55131  1  0  0  0
 56 69  2  0  0  0
 57 58  2  0  0  0
 57132  1  0  0  0
 58133  1  0  0  0
 59 60  1  0  0  0
 59 61  1  0  0  0
 59 62  1  0  0  0
 60134  1  0  0  0
 60135  1  0  0  0
 60136  1  0  0  0
 61137  1  0  0  0
 61138  1  0  0  0
 61139  1  0  0  0
 62140  1  0  0  0
 62141  1  0  0  0
 62142  1  0  0  0
 63 65  1  0  0  0
 63143  1  0  0  0
 63144  1  0  0  0
 63145  1  0  0  0
 64146  1  0  0  0
 65147  1  0  0  0
 68 84  1  0  0  0
 71 73  2  0  0  0
 71 74  1  0  0  0
 71148  1  0  0  0
 72 73  1  0  0  0
 72 75  2  0  0  0
 72149  1  0  0  0
 73 84  1  0  0  0
 74 76  2  0  0  0
 74 82  1  0  0  0
 75 76  1  0  0  0
 75 85  1  0  0  0
 76 88  1  0  0  0
 77 79  1  0  0  0
 77 81  1  0  0  0
 77150  1  0  0  0
 77151  1  0  0  0
 78 80  1  0  0  0
 78 81  1  0  0  0
 78152  1  0  0  0
 78153  1  0  0  0
 79 86  1  0  0  0
 79154  1  0  0  0
 79155  1  0  0  0
 80 86  1  0  0  0
 80156  1  0  0  0
 80157  1  0  0  0
 81 88  1  0  0  0
 81158  1  0  0  0
 82159  1  0  0  0
 82160  1  0  0  0
 82161  1  0  0  0
 83162  1  0  0  0
 83163  1  0  0  0
 83164  1  0  0  0
 83 85  1  0  0  0
 84165  1  0  0  0
 84166  1  0  0  0
 85 87  1  0  0  0
 85167  1  0  0  0
 87168  1  0  0  0
M  ISO  4   1 100  68 101  84 101  86 100
M  END
> <chiral flag>
0

> <version>
0

> <s_m_source_file>
/data/baiqing/PycharmProjects/Reinvent-master-3.2/result/LINK_invent/BTK/process_docking_weight1_custom_sum_contain_oxygen_bond_distance_aromatic_linkinvent_7_9_3/rearranged_h_0158.sdf

> <i_m_source_file_index>
66

> <r_mmod_Potential_Energy-OPLS-2005>
275.474456787109

> <r_mmod_Stretch_Energy-OPLS-2005>
61.8248481750488

> <r_mmod_Bend_Energy-OPLS-2005>
124.992134094238

> <r_mmod_Torsional_Energy-OPLS-2005>
400.834503173828

> <r_mmod_Improper_Torsional_Energy-OPLS-2005>
21.448543548584

> <r_mmod_Van_der_Waal_Energy-OPLS-2005>
146.810424804688

> <r_mmod_Electrostatic_Energy-OPLS-2005>
-310.034240722656

> <r_mmod_Solvation_Energy-OPLS-2005>
-208.466552734375

> <b_mmod_Minimization_Converged-OPLS-2005>
0

> <r_mmod_RMS_Derivative-OPLS-2005>
5.5089864730835

$$$$
66
                    3D
 Structure written by MMmdl.
164173  0  0  1  0            999 V2000
  -30.7391  -14.7037   20.4770 C   0  0  0  0  0  0
  -30.4017  -12.4540   19.4565 C   0  0  0  0  0  0
  -29.4855  -12.4953   18.2205 C   0  0  0  0  0  0
  -28.0183  -12.3237   18.6488 C   0  0  0  0  0  0
  -27.6324  -13.2383   19.8425 C   0  0  2  0  0  0
  -28.6899  -13.2101   20.9700 C   0  0  0  0  0  0
  -25.2469  -13.8215   20.5721 C   0  0  0  0  0  0
  -24.1777  -13.0444   20.9233 C   0  0  0  0  0  0
  -24.6385  -11.6928   20.8778 C   0  0  0  0  0  0
  -23.9070  -10.4296   21.0419 C   0  0  0  0  0  0
  -24.3620   -9.4206   21.9193 C   0  0  0  0  0  0
  -23.6294   -8.2240   22.0756 C   0  0  0  0  0  0
  -22.4277   -8.0280   21.3543 C   0  0  0  0  0  0
  -21.9915   -9.0256   20.4648 C   0  0  0  0  0  0
  -22.7246  -10.2136   20.3063 C   0  0  0  0  0  0
  -21.6853   -6.0735   22.5279 C   0  0  0  0  0  0
  -21.4015   -6.5639   23.8212 C   0  0  0  0  0  0
  -21.3659   -5.6792   24.9174 C   0  0  0  0  0  0
  -21.6044   -4.3054   24.7226 C   0  0  0  0  0  0
  -21.8819   -3.8146   23.4347 C   0  0  0  0  0  0
  -21.9192   -4.6962   22.3402 C   0  0  0  0  0  0
  -22.7795  -13.5217   21.1874 C   0  0  0  0  0  0
  -22.1662   -4.2147   21.0980 F   0  0  0  0  0  0
  -21.5627   -3.4539   25.7739 F   0  0  0  0  0  0
  -29.9738  -13.5607   20.3515 N   0  0  0  0  0  0
  -26.2904  -12.9442   20.3320 N   0  0  0  0  0  0
  -25.9321  -11.6576   20.5803 N   0  0  0  0  0  0
  -22.0444  -12.8207   22.0431 N   0  0  0  0  0  0
  -25.4116  -15.1938   20.4107 N   0  0  0  0  0  0
  -31.9442  -14.5876   20.2408 O   0  0  0  0  0  0
  -21.6640   -6.8878   21.4240 O   0  0  0  0  0  0
  -22.3478  -14.5516   20.6713 O   0  0  0  0  0  0
  -24.6322  -31.8595   23.2062 C   0  0  0  0  0  0
  -25.9158  -32.4776   23.8383 C   0  0  1  0  0  0
  -27.1941  -27.2649   20.1062 C   0  0  0  0  0  0
  -25.5962  -33.8579   24.2297 N   0  0  0  0  0  0
  -23.4262  -30.4915   21.5512 C   0  0  2  0  0  0
  -24.8672  -28.9596   20.1067 C   0  0  0  0  0  0
  -22.7507  -29.4634   22.4920 C   0  0  0  0  0  0
  -18.0295  -28.1387   22.8483 C   0  0  0  0  0  0
  -24.1492  -36.7288   23.2636 C   0  0  0  0  0  0
  -25.9779  -30.7706   21.3923 C   0  0  0  0  0  0
  -26.0446  -29.3993   20.7253 C   0  0  0  0  0  0
  -27.2109  -28.5628   20.7243 C   0  0  0  0  0  0
  -25.9932  -26.9280   19.4271 C   0  0  0  0  0  0
  -24.8471  -27.7302   19.4482 C   0  0  0  0  0  0
  -23.6419  -29.8460   20.1618 C   0  0  0  0  0  0
  -25.4117  -36.3080   24.0328 C   0  0  1  0  0  0
  -20.5901  -28.3702   23.1261 C   0  0  2  0  0  0
  -20.6786  -26.9421   22.5398 C   0  0  0  0  0  0
  -19.5757  -26.6385   21.5208 C   0  0  0  0  0  0
  -18.1939  -26.7928   22.1625 C   0  0  0  0  0  0
  -19.1549  -28.8861   23.2868 C   0  0  0  0  0  0
  -18.9467  -30.1461   23.8887 C   0  0  0  0  0  0
  -17.6466  -30.6587   24.0560 C   0  0  0  0  0  0
  -25.9061  -34.9450   23.5106 C   0  0  0  0  0  0
  -16.5358  -29.9083   23.6332 C   0  0  0  0  0  0
  -16.7281  -28.6501   23.0354 C   0  0  0  0  0  0
  -26.4516  -31.6590   25.0764 C   0  0  0  0  0  0
  -25.3730  -31.3744   26.1476 C   0  0  0  0  0  0
  -27.0360  -30.2998   24.6265 C   0  0  0  0  0  0
  -27.6071  -32.4327   25.7535 C   0  0  0  0  0  0
  -27.5581  -37.1803   24.8465 C   0  0  0  0  0  0
  -21.4215  -29.3056   22.3656 N   0  0  0  0  0  0
  -26.4292  -37.3777   23.9408 N   0  0  0  0  0  0
  -24.6981  -31.0571   22.1051 N   0  0  0  0  0  0
  -23.4214  -28.8144   23.2989 O   0  0  0  0  0  0
  -28.2410  -26.3042   20.1890 O   0  0  0  0  0  0
  -26.5617  -34.8914   22.4665 O   0  0  0  0  0  0
  -23.5472  -32.1425   23.7353 O   0  0  0  0  0  0
  -29.0321  -23.0684   21.3367 C   0  0  0  0  0  0
  -28.4874  -22.5213   19.0780 C   0  0  0  0  0  0
  -29.2638  -20.6727   20.5602 C   0  0  0  0  0  0
  -28.5694  -23.5288   20.0798 C   0  0  0  0  0  0
  -29.3779  -21.6915   21.5717 C   0  0  0  0  0  0
  -28.8082  -21.1366   19.2908 C   0  0  0  0  0  0
  -28.5352  -18.0434   20.7893 C   0  0  0  0  0  0
  -30.7162  -18.5460   19.8781 C   0  0  0  0  0  0
  -28.9812  -16.5492   21.1350 C   0  0  0  0  0  0
  -31.2205  -17.1235   20.2865 C   0  0  0  0  0  0
  -29.6516  -19.1354   20.8211 C   0  0  0  0  0  0
  -29.8499  -21.3300   22.9704 C   0  0  0  0  0  0
  -28.2436  -20.5932   17.0054 C   0  0  0  0  0  0
  -27.8380  -24.9094   19.8051 C   0  0  0  0  0  0
  -30.2243  -16.0158   20.4978 N   0  0  0  0  0  0
  -28.6639  -20.1863   18.3014 O   0  0  0  0  0  0
  -31.4419  -12.5271   19.1358 H   0  0  0  0  0  0
  -30.3230  -11.4924   19.9663 H   0  0  0  0  0  0
  -29.7639  -11.7114   17.5148 H   0  0  0  0  0  0
  -29.6109  -13.4435   17.6950 H   0  0  0  0  0  0
  -27.8811  -11.2778   18.9259 H   0  0  0  0  0  0
  -27.3527  -12.5024   17.8035 H   0  0  0  0  0  0
  -27.6122  -14.2485   19.4347 H   0  0  0  0  0  0
  -28.7406  -12.2212   21.4277 H   0  0  0  0  0  0
  -28.4369  -13.8963   21.7773 H   0  0  0  0  0  0
  -25.2761   -9.5683   22.4772 H   0  0  0  0  0  0
  -24.0002   -7.4630   22.7474 H   0  0  0  0  0  0
  -21.0845   -8.8778   19.8954 H   0  0  0  0  0  0
  -22.3704  -10.9676   19.6173 H   0  0  0  0  0  0
  -21.2010   -7.6148   23.9716 H   0  0  0  0  0  0
  -21.1481   -6.0523   25.9077 H   0  0  0  0  0  0
  -22.0599   -2.7608   23.2848 H   0  0  0  0  0  0
  -22.4065  -11.9875   22.4826 H   0  0  0  0  0  0
  -21.1059  -13.1225   22.2632 H   0  0  0  0  0  0
  -24.6421  -15.8444   20.5240 H   0  0  0  0  0  0
  -26.2594  -15.6368   20.0822 H   0  0  0  0  0  0
  -26.7222  -32.5420   23.1120 H   0  0  0  0  0  0
  -25.0118  -33.9726   25.0447 H   0  0  0  0  0  0
  -22.7222  -31.3152   21.4161 H   0  0  0  0  0  0
  -23.3758  -35.9617   23.3297 H   0  0  0  0  0  0
  -24.3585  -36.8908   22.2051 H   0  0  0  0  0  0
  -23.7241  -37.6489   23.6655 H   0  0  0  0  0  0
  -26.1255  -31.5360   20.6291 H   0  0  0  0  0  0
  -26.8529  -30.8083   22.0293 H   0  0  0  0  0  0
  -28.1029  -28.8870   21.2417 H   0  0  0  0  0  0
  -25.8647  -26.0120   18.8734 H   0  0  0  0  0  0
  -23.9514  -27.3944   18.9434 H   0  0  0  0  0  0
  -23.7695  -30.6320   19.4165 H   0  0  0  0  0  0
  -22.7580  -29.2867   19.8496 H   0  0  0  0  0  0
  -25.1295  -36.1934   25.0821 H   0  0  0  0  0  0
  -20.9995  -28.3277   24.1381 H   0  0  0  0  0  0
  -20.5694  -26.2312   23.3603 H   0  0  0  0  0  0
  -21.6652  -26.7452   22.1185 H   0  0  0  0  0  0
  -19.6918  -25.6294   21.1242 H   0  0  0  0  0  0
  -19.6689  -27.3190   20.6734 H   0  0  0  0  0  0
  -17.4207  -26.6672   21.4030 H   0  0  0  0  0  0
  -18.0344  -26.0072   22.9025 H   0  0  0  0  0  0
  -19.7943  -30.7279   24.2253 H   0  0  0  0  0  0
  -17.5021  -31.6267   24.5163 H   0  0  0  0  0  0
  -15.5357  -30.2979   23.7664 H   0  0  0  0  0  0
  -15.8683  -28.0817   22.7073 H   0  0  0  0  0  0
  -24.5909  -30.7090   25.7801 H   0  0  0  0  0  0
  -24.8917  -32.2914   26.4883 H   0  0  0  0  0  0
  -25.8038  -30.8932   27.0266 H   0  0  0  0  0  0
  -26.2954  -29.6747   24.1263 H   0  0  0  0  0  0
  -27.3997  -29.7261   25.4800 H   0  0  0  0  0  0
  -27.8858  -30.4257   23.9552 H   0  0  0  0  0  0
  -27.2683  -33.3634   26.2098 H   0  0  0  0  0  0
  -28.3889  -32.6876   25.0368 H   0  0  0  0  0  0
  -28.0729  -31.8461   26.5463 H   0  0  0  0  0  0
  -28.2596  -38.0102   24.7514 H   0  0  0  0  0  0
  -28.1080  -36.2634   24.6288 H   0  0  0  0  0  0
  -27.2299  -37.1449   25.8868 H   0  0  0  0  0  0
  -20.9393  -29.8806   21.6889 H   0  0  0  0  0  0
  -26.0173  -38.2853   24.1405 H   0  0  0  0  0  0
  -29.0687  -23.7764   22.1534 H   0  0  0  0  0  0
  -28.0915  -22.8332   18.1238 H   0  0  0  0  0  0
  -27.7404  -18.3351   21.4766 H   0  0  0  0  0  0
  -28.0748  -18.0450   19.8006 H   0  0  0  0  0  0
  -30.3402  -18.4988   18.8567 H   0  0  0  0  0  0
  -31.5719  -19.2216   19.8468 H   0  0  0  0  0  0
  -28.1431  -15.9019   20.8961 H   0  0  0  0  0  0
  -29.1212  -16.4693   22.2138 H   0  0  0  0  0  0
  -31.8051  -17.2128   21.2036 H   0  0  0  0  0  0
  -31.9337  -16.8482   19.5071 H   0  0  0  0  0  0
  -30.0860  -19.0808   21.8166 H   0  0  0  0  0  0
  -29.8292  -22.1907   23.6396 H   0  0  0  0  0  0
  -30.8752  -20.9598   22.9458 H   0  0  0  0  0  0
  -29.2107  -20.5620   23.4072 H   0  0  0  0  0  0
  -28.2269  -19.7263   16.3449 H   0  0  0  0  0  0
  -28.9295  -21.3215   16.5705 H   0  0  0  0  0  0
  -27.2352  -21.0089   17.0237 H   0  0  0  0  0  0
  -26.8695  -24.7096   20.2664 H   0  0  0  0  0  0
  -27.6869  -24.9374   18.7254 H   0  0  0  0  0  0
  1 25  1  0  0  0
  1 30  2  0  0  0
  1 85  1  0  0  0
  2  3  1  0  0  0
  2 25  1  0  0  0
  2 87  1  0  0  0
  2 88  1  0  0  0
  3  4  1  0  0  0
  3 89  1  0  0  0
  3 90  1  0  0  0
  4  5  1  0  0  0
  4 91  1  0  0  0
  4 92  1  0  0  0
  5  6  1  0  0  0
  5 26  1  0  0  0
  5 93  1  0  0  0
  6 25  1  0  0  0
  6 94  1  0  0  0
  6 95  1  0  0  0
  7  8  2  0  0  0
  7 26  1  0  0  0
  7 29  1  0  0  0
  8  9  1  0  0  0
  8 22  1  0  0  0
  9 10  1  0  0  0
  9 27  2  0  0  0
 10 11  2  0  0  0
 10 15  1  0  0  0
 11 12  1  0  0  0
 11 96  1  0  0  0
 12 13  2  0  0  0
 12 97  1  0  0  0
 13 14  1  0  0  0
 13 31  1  0  0  0
 14 15  2  0  0  0
 14 98  1  0  0  0
 15 99  1  0  0  0
 16 17  2  0  0  0
 16 21  1  0  0  0
 16 31  1  0  0  0
 17 18  1  0  0  0
 17100  1  0  0  0
 18 19  2  0  0  0
 18101  1  0  0  0
 19 20  1  0  0  0
 19 24  1  0  0  0
 20 21  2  0  0  0
 20102  1  0  0  0
 21 23  1  0  0  0
 22 28  1  0  0  0
 22 32  2  0  0  0
 26 27  1  0  0  0
 28103  1  0  0  0
 28104  1  0  0  0
 29105  1  0  0  0
 29106  1  0  0  0
 33 34  1  0  0  0
 33 66  1  0  0  0
 33 70  2  0  0  0
 34 36  1  0  0  0
 34 59  1  0  0  0
 34107  1  0  0  0
 35 44  2  0  0  0
 35 45  1  0  0  0
 35 68  1  0  0  0
 36 56  1  0  0  0
 36108  1  0  0  0
 37 39  1  0  0  0
 37 47  1  0  0  0
 37 66  1  0  0  0
 37109  1  0  0  0
 38 43  2  0  0  0
 38 46  1  0  0  0
 38 47  1  0  0  0
 39 64  1  0  0  0
 39 67  2  0  0  0
 40 52  1  0  0  0
 40 53  2  0  0  0
 40 58  1  0  0  0
 41110  1  0  0  0
 41111  1  0  0  0
 41112  1  0  0  0
 41 48  1  0  0  0
 42 43  1  0  0  0
 42 66  1  0  0  0
 42113  1  0  0  0
 42114  1  0  0  0
 43 44  1  0  0  0
 44115  1  0  0  0
 45 46  2  0  0  0
 45116  1  0  0  0
 46117  1  0  0  0
 47118  1  0  0  0
 47119  1  0  0  0
 48 56  1  0  0  0
 48 65  1  0  0  0
 48120  1  0  0  0
 49 50  1  0  0  0
 49 53  1  0  0  0
 49 64  1  0  0  0
 49121  1  0  0  0
 50 51  1  0  0  0
 50122  1  0  0  0
 50123  1  0  0  0
 51 52  1  0  0  0
 51124  1  0  0  0
 51125  1  0  0  0
 52126  1  0  0  0
 52127  1  0  0  0
 53 54  1  0  0  0
 54 55  2  0  0  0
 54128  1  0  0  0
 55 57  1  0  0  0
 55129  1  0  0  0
 56 69  2  0  0  0
 57 58  2  0  0  0
 57130  1  0  0  0
 58131  1  0  0  0
 59 60  1  0  0  0
 59 61  1  0  0  0
 59 62  1  0  0  0
 60132  1  0  0  0
 60133  1  0  0  0
 60134  1  0  0  0
 61135  1  0  0  0
 61136  1  0  0  0
 61137  1  0  0  0
 62138  1  0  0  0
 62139  1  0  0  0
 62140  1  0  0  0
 63 65  1  0  0  0
 63141  1  0  0  0
 63142  1  0  0  0
 63143  1  0  0  0
 64144  1  0  0  0
 65145  1  0  0  0
 68 84  1  0  0  0
 71 74  2  0  0  0
 71 75  1  0  0  0
 71146  1  0  0  0
 72 74  1  0  0  0
 72 76  2  0  0  0
 72147  1  0  0  0
 73 75  2  0  0  0
 73 76  1  0  0  0
 73 81  1  0  0  0
 74 84  1  0  0  0
 75 82  1  0  0  0
 76 86  1  0  0  0
 77 79  1  0  0  0
 77 81  1  0  0  0
 77148  1  0  0  0
 77149  1  0  0  0
 78 80  1  0  0  0
 78 81  1  0  0  0
 78150  1  0  0  0
 78151  1  0  0  0
 79 85  1  0  0  0
 79152  1  0  0  0
 79153  1  0  0  0
 80 85  1  0  0  0
 80154  1  0  0  0
 80155  1  0  0  0
 81156  1  0  0  0
 82157  1  0  0  0
 82158  1  0  0  0
 82159  1  0  0  0
 83 86  1  0  0  0
 83160  1  0  0  0
 83161  1  0  0  0
 83162  1  0  0  0
 84163  1  0  0  0
 84164  1  0  0  0
M  ISO  4   1 100  68 101  84 101  85 100
M  END
> <chiral flag>
0

> <version>
0

> <s_m_source_file>
/data/baiqing/PycharmProjects/Reinvent-master-3.2/result/LINK_invent/BTK/process_docking_weight1_custom_sum_contain_oxygen_bond_distance_aromatic_linkinvent_7_9_3/rearranged_h_0158.sdf

> <i_m_source_file_index>
67

> <r_mmod_Potential_Energy-OPLS-2005>
457.510986328125

> <r_mmod_Stretch_Energy-OPLS-2005>
116.420753479004

> <r_mmod_Bend_Energy-OPLS-2005>
227.079544067383

> <r_mmod_Torsional_Energy-OPLS-2005>
308.906311035156

> <r_mmod_Improper_Torsional_Energy-OPLS-2005>
13.491828918457

> <r_mmod_Van_der_Waal_Energy-OPLS-2005>
179.203277587891

> <r_mmod_Electrostatic_Energy-OPLS-2005>
-281.839691162109

> <r_mmod_Solvation_Energy-OPLS-2005>
-202.158233642578

> <b_mmod_Minimization_Converged-OPLS-2005>
0

> <r_mmod_RMS_Derivative-OPLS-2005>
0.285277158021927

$$$$
67
                    3D
 Structure written by MMmdl.
176185  0  0  1  0            999 V2000
  -30.7506  -14.3441   20.7556 C   0  0  0  0  0  0
  -30.4278  -12.3277   19.3576 C   0  0  0  0  0  0
  -29.4744  -12.5715   18.1751 C   0  0  0  0  0  0
  -28.0015  -12.4154   18.6008 C   0  0  0  0  0  0
  -27.6707  -13.1947   19.8996 C   0  0  2  0  0  0
  -28.7135  -12.8591   20.9843 C   0  0  0  0  0  0
  -25.2590  -13.8114   20.5657 C   0  0  0  0  0  0
  -24.1861  -13.0407   20.9174 C   0  0  0  0  0  0
  -24.6421  -11.6871   20.8747 C   0  0  0  0  0  0
  -23.9079  -10.4280   21.0394 C   0  0  0  0  0  0
  -24.3629   -9.4202   21.9179 C   0  0  0  0  0  0
  -23.6269   -8.2245   22.0762 C   0  0  0  0  0  0
  -22.4256   -8.0291   21.3546 C   0  0  0  0  0  0
  -21.9891   -9.0285   20.4652 C   0  0  0  0  0  0
  -22.7242  -10.2162   20.3065 C   0  0  0  0  0  0
  -21.6861   -6.0742   22.5306 C   0  0  0  0  0  0
  -21.4021   -6.5636   23.8228 C   0  0  0  0  0  0
  -21.3647   -5.6797   24.9193 C   0  0  0  0  0  0
  -21.6045   -4.3054   24.7248 C   0  0  0  0  0  0
  -21.8818   -3.8157   23.4374 C   0  0  0  0  0  0
  -21.9168   -4.6953   22.3416 C   0  0  0  0  0  0
  -22.7871  -13.5179   21.1806 C   0  0  0  0  0  0
  -22.1611   -4.2124   21.0985 F   0  0  0  0  0  0
  -21.5653   -3.4537   25.7775 F   0  0  0  0  0  0
  -30.0431  -13.2174   20.4675 N   0  0  0  0  0  0
  -26.3071  -12.9272   20.3489 N   0  0  0  0  0  0
  -25.9356  -11.6438   20.5849 N   0  0  0  0  0  0
  -22.0492  -12.8254   22.0389 N   0  0  0  0  0  0
  -25.4281  -15.1820   20.3919 N   0  0  0  0  0  0
  -31.7490  -14.6827   20.1160 O   0  0  0  0  0  0
  -21.6622   -6.8892   21.4261 O   0  0  0  0  0  0
  -22.3568  -14.5461   20.6575 O   0  0  0  0  0  0
  -24.6111  -31.8689   23.2135 C   0  0  0  0  0  0
  -25.9008  -32.4833   23.8437 C   0  0  1  0  0  0
  -27.2686  -27.4639   20.1003 C   0  0  0  0  0  0
  -25.5865  -33.8631   24.2363 N   0  0  0  0  0  0
  -23.4020  -30.4880   21.5529 C   0  0  2  0  0  0
  -24.8602  -28.9553   20.1223 C   0  0  0  0  0  0
  -22.7403  -29.4635   22.5020 C   0  0  0  0  0  0
  -18.0241  -28.1403   22.8478 C   0  0  0  0  0  0
  -24.1487  -36.7315   23.2643 C   0  0  0  0  0  0
  -25.9263  -30.8432   21.3669 C   0  0  0  0  0  0
  -26.0115  -29.4738   20.7273 C   0  0  0  0  0  0
  -27.2149  -28.7319   20.7299 C   0  0  0  0  0  0
  -26.0955  -26.9580   19.5016 C   0  0  0  0  0  0
  -24.8930  -27.6905   19.5093 C   0  0  0  0  0  0
  -23.6177  -29.8160   20.1689 C   0  0  0  0  0  0
  -25.4107  -36.3121   24.0350 C   0  0  1  0  0  0
  -20.5832  -28.3662   23.1328 C   0  0  2  0  0  0
  -20.6741  -26.9405   22.5418 C   0  0  0  0  0  0
  -19.5724  -26.6395   21.5208 C   0  0  0  0  0  0
  -18.1898  -26.7945   22.1615 C   0  0  0  0  0  0
  -19.1500  -28.8841   23.2890 C   0  0  0  0  0  0
  -18.9441  -30.1442   23.8914 C   0  0  0  0  0  0
  -17.6454  -30.6592   24.0571 C   0  0  0  0  0  0
  -25.9028  -34.9480   23.5160 C   0  0  0  0  0  0
  -16.5335  -29.9115   23.6333 C   0  0  0  0  0  0
  -16.7241  -28.6531   23.0353 C   0  0  0  0  0  0
  -26.4459  -31.6597   25.0737 C   0  0  0  0  0  0
  -25.3741  -31.3709   26.1508 C   0  0  0  0  0  0
  -27.0262  -30.3047   24.6047 C   0  0  0  0  0  0
  -27.6061  -32.4315   25.7437 C   0  0  0  0  0  0
  -27.5592  -37.1793   24.8452 C   0  0  0  0  0  0
  -21.4127  -29.3014   22.3754 N   0  0  0  0  0  0
  -26.4299  -37.3802   23.9412 N   0  0  0  0  0  0
  -24.6646  -31.0809   22.1042 N   0  0  0  0  0  0
  -23.4175  -28.8150   23.3034 O   0  0  0  0  0  0
  -28.3967  -26.6731   19.9880 O   0  0  0  0  0  0
  -26.5594  -34.8913   22.4718 O   0  0  0  0  0  0
  -23.5305  -32.1417   23.7541 O   0  0  0  0  0  0
  -30.1968  -19.4426   19.8837 C   0  0  0  0  0  0
  -30.4411  -17.6169   18.2896 C   0  0  0  0  0  0
  -30.8288  -20.3388   18.9765 C   0  0  0  0  0  0
  -31.0853  -18.4733   17.3864 C   0  0  0  0  0  0
  -31.2738  -19.8375   17.7132 C   0  0  0  0  0  0
  -30.0034  -18.0807   19.5355 C   0  0  0  0  0  0
  -30.0318  -22.7274   18.5304 C   0  0  0  0  0  0
  -30.9641  -22.2607   20.7923 C   0  0  0  0  0  0
  -30.3893  -24.2148   18.6876 C   0  0  0  0  0  0
  -31.3310  -23.7638   20.9220 C   0  0  0  0  0  0
  -31.0180  -21.8318   19.3115 C   0  0  1  0  0  0
  -31.5826  -17.8840   16.0745 C   0  0  0  0  0  0
  -31.9228  -20.7293   16.6553 C   0  0  0  0  0  0
  -29.3880  -15.7925   22.2827 C   0  0  0  0  0  0
  -30.7326  -26.0970   20.2510 C   0  0  0  0  0  0
  -29.5688  -17.2186   21.7275 C   0  0  0  0  0  0
  -29.5432  -26.9117   20.8045 C   0  0  0  0  0  0
  -30.5199  -14.9087   21.9506 N   0  0  0  0  0  0
  -30.4321  -24.6408   20.1135 N   0  3  1  0  0  0
  -29.3942  -17.1348   20.3234 O   0  0  0  0  0  0
  -31.4583  -12.4923   19.0363 H   0  0  0  0  0  0
  -30.3811  -11.2850   19.6732 H   0  0  0  0  0  0
  -29.7020  -11.8798   17.3642 H   0  0  0  0  0  0
  -29.6434  -13.5725   17.7755 H   0  0  0  0  0  0
  -27.7979  -11.3510   18.7357 H   0  0  0  0  0  0
  -27.3528  -12.7487   17.7906 H   0  0  0  0  0  0
  -27.7469  -14.2604   19.6764 H   0  0  0  0  0  0
  -28.6990  -11.7878   21.1867 H   0  0  0  0  0  0
  -28.4676  -13.3012   21.9458 H   0  0  0  0  0  0
  -25.2786   -9.5682   22.4739 H   0  0  0  0  0  0
  -23.9971   -7.4649   22.7503 H   0  0  0  0  0  0
  -21.0821   -8.8853   19.8940 H   0  0  0  0  0  0
  -22.3702  -10.9726   19.6203 H   0  0  0  0  0  0
  -21.2001   -7.6149   23.9738 H   0  0  0  0  0  0
  -21.1469   -6.0522   25.9085 H   0  0  0  0  0  0
  -22.0587   -2.7597   23.2915 H   0  0  0  0  0  0
  -22.4037  -11.9944   22.4919 H   0  0  0  0  0  0
  -21.1126  -13.1427   22.2517 H   0  0  0  0  0  0
  -24.6593  -15.8385   20.4714 H   0  0  0  0  0  0
  -26.2693  -15.6035   20.0192 H   0  0  0  0  0  0
  -26.7079  -32.5563   23.1218 H   0  0  0  0  0  0
  -25.0013  -33.9818   25.0503 H   0  0  0  0  0  0
  -22.6884  -31.3022   21.4119 H   0  0  0  0  0  0
  -23.3754  -35.9641   23.3302 H   0  0  0  0  0  0
  -24.3604  -36.8932   22.2058 H   0  0  0  0  0  0
  -23.7216  -37.6511   23.6654 H   0  0  0  0  0  0
  -26.0267  -31.6025   20.5896 H   0  0  0  0  0  0
  -26.8192  -30.9136   21.9771 H   0  0  0  0  0  0
  -28.0840  -29.1569   21.2077 H   0  0  0  0  0  0
  -26.1149  -25.9894   19.0213 H   0  0  0  0  0  0
  -24.0092  -27.2843   19.0385 H   0  0  0  0  0  0
  -23.7151  -30.5900   19.4059 H   0  0  0  0  0  0
  -22.7484  -29.2245   19.8752 H   0  0  0  0  0  0
  -25.1270  -36.2022   25.0845 H   0  0  0  0  0  0
  -20.9904  -28.3229   24.1456 H   0  0  0  0  0  0
  -20.5641  -26.2277   23.3609 H   0  0  0  0  0  0
  -21.6620  -26.7442   22.1218 H   0  0  0  0  0  0
  -19.6898  -25.6306   21.1227 H   0  0  0  0  0  0
  -19.6699  -27.3216   20.6752 H   0  0  0  0  0  0
  -17.4179  -26.6689   21.4006 H   0  0  0  0  0  0
  -18.0285  -26.0094   22.9008 H   0  0  0  0  0  0
  -19.7916  -30.7232   24.2345 H   0  0  0  0  0  0
  -17.5008  -31.6281   24.5168 H   0  0  0  0  0  0
  -15.5347  -30.3037   23.7647 H   0  0  0  0  0  0
  -15.8629  -28.0858   22.7098 H   0  0  0  0  0  0
  -24.5886  -30.7096   25.7828 H   0  0  0  0  0  0
  -24.8981  -32.2886   26.4970 H   0  0  0  0  0  0
  -25.8098  -30.8837   27.0242 H   0  0  0  0  0  0
  -26.2754  -29.6815   24.1184 H   0  0  0  0  0  0
  -27.4142  -29.7271   25.4437 H   0  0  0  0  0  0
  -27.8535  -30.4374   23.9087 H   0  0  0  0  0  0
  -27.2706  -33.3617   26.2021 H   0  0  0  0  0  0
  -28.3815  -32.6883   25.0211 H   0  0  0  0  0  0
  -28.0787  -31.8459   26.5325 H   0  0  0  0  0  0
  -28.2576  -38.0125   24.7559 H   0  0  0  0  0  0
  -28.1129  -36.2658   24.6203 H   0  0  0  0  0  0
  -27.2330  -37.1355   25.8863 H   0  0  0  0  0  0
  -20.9338  -29.8756   21.6973 H   0  0  0  0  0  0
  -26.0197  -38.2869   24.1488 H   0  0  0  0  0  0
  -29.8316  -19.7951   20.8365 H   0  0  0  0  0  0
  -30.2940  -16.5736   18.0424 H   0  0  0  0  0  0
  -30.0417  -22.4902   17.4679 H   0  0  0  0  0  0
  -29.0110  -22.5367   18.8594 H   0  0  0  0  0  0
  -29.9748  -22.0864   21.2162 H   0  0  0  0  0  0
  -31.6670  -21.6687   21.3804 H   0  0  0  0  0  0
  -29.6574  -24.8181   18.1462 H   0  0  0  0  0  0
  -31.3579  -24.4044   18.2204 H   0  0  0  0  0  0
  -32.3633  -23.9157   20.5961 H   0  0  0  0  0  0
  -31.2945  -24.0691   21.9693 H   0  0  0  0  0  0
  -32.0373  -22.0671   19.0118 H   0  0  0  0  0  0
  -31.1135  -16.9224   15.8672 H   0  0  0  0  0  0
  -32.6604  -17.7184   16.1267 H   0  0  0  0  0  0
  -31.3734  -18.5294   15.2222 H   0  0  0  0  0  0
  -32.0847  -21.7625   16.9450 H   0  0  0  0  0  0
  -31.2879  -20.7555   15.7695 H   0  0  0  0  0  0
  -32.8926  -20.3367   16.3596 H   0  0  0  0  0  0
  -28.4277  -15.4034   21.9497 H   0  0  0  0  0  0
  -29.3190  -15.8475   23.3677 H   0  0  0  0  0  0
  -31.5935  -26.2515   20.9005 H   0  0  0  0  0  0
  -31.0279  -26.5187   19.2889 H   0  0  0  0  0  0
  -30.5504  -17.6114   21.9952 H   0  0  0  0  0  0
  -28.8095  -17.8818   22.1438 H   0  0  0  0  0  0
  -29.8214  -27.9660   20.7918 H   0  0  0  0  0  0
  -29.3306  -26.6362   21.8398 H   0  0  0  0  0  0
  -31.3767  -15.2908   22.3284 H   0  0  0  0  0  0
  -29.4950  -24.5158   20.4697 H   0  0  0  0  0  0
  1 25  1  0  0  0
  1 30  2  0  0  0
  1 88  1  0  0  0
  2  3  1  0  0  0
  2 25  1  0  0  0
  2 91  1  0  0  0
  2 92  1  0  0  0
  3  4  1  0  0  0
  3 93  1  0  0  0
  3 94  1  0  0  0
  4  5  1  0  0  0
  4 95  1  0  0  0
  4 96  1  0  0  0
  5  6  1  0  0  0
  5 26  1  0  0  0
  5 97  1  0  0  0
  6 25  1  0  0  0
  6 98  1  0  0  0
  6 99  1  0  0  0
  7  8  2  0  0  0
  7 26  1  0  0  0
  7 29  1  0  0  0
  8  9  1  0  0  0
  8 22  1  0  0  0
  9 10  1  0  0  0
  9 27  2  0  0  0
 10 11  2  0  0  0
 10 15  1  0  0  0
 11 12  1  0  0  0
 11100  1  0  0  0
 12 13  2  0  0  0
 12101  1  0  0  0
 13 14  1  0  0  0
 13 31  1  0  0  0
 14 15  2  0  0  0
 14102  1  0  0  0
 15103  1  0  0  0
 16 17  2  0  0  0
 16 21  1  0  0  0
 16 31  1  0  0  0
 17 18  1  0  0  0
 17104  1  0  0  0
 18 19  2  0  0  0
 18105  1  0  0  0
 19 20  1  0  0  0
 19 24  1  0  0  0
 20 21  2  0  0  0
 20106  1  0  0  0
 21 23  1  0  0  0
 22 28  1  0  0  0
 22 32  2  0  0  0
 26 27  1  0  0  0
 28107  1  0  0  0
 28108  1  0  0  0
 29109  1  0  0  0
 29110  1  0  0  0
 33 34  1  0  0  0
 33 66  1  0  0  0
 33 70  2  0  0  0
 34 36  1  0  0  0
 34 59  1  0  0  0
 34111  1  0  0  0
 35 44  2  0  0  0
 35 45  1  0  0  0
 35 68  1  0  0  0
 36 56  1  0  0  0
 36112  1  0  0  0
 37 39  1  0  0  0
 37 47  1  0  0  0
 37 66  1  0  0  0
 37113  1  0  0  0
 38 43  2  0  0  0
 38 46  1  0  0  0
 38 47  1  0  0  0
 39 64  1  0  0  0
 39 67  2  0  0  0
 40 52  1  0  0  0
 40 53  2  0  0  0
 40 58  1  0  0  0
 41114  1  0  0  0
 41115  1  0  0  0
 41116  1  0  0  0
 41 48  1  0  0  0
 42 43  1  0  0  0
 42 66  1  0  0  0
 42117  1  0  0  0
 42118  1  0  0  0
 43 44  1  0  0  0
 44119  1  0  0  0
 45 46  2  0  0  0
 45120  1  0  0  0
 46121  1  0  0  0
 47122  1  0  0  0
 47123  1  0  0  0
 48 56  1  0  0  0
 48 65  1  0  0  0
 48124  1  0  0  0
 49 50  1  0  0  0
 49 53  1  0  0  0
 49 64  1  0  0  0
 49125  1  0  0  0
 50 51  1  0  0  0
 50126  1  0  0  0
 50127  1  0  0  0
 51 52  1  0  0  0
 51128  1  0  0  0
 51129  1  0  0  0
 52130  1  0  0  0
 52131  1  0  0  0
 53 54  1  0  0  0
 54 55  2  0  0  0
 54132  1  0  0  0
 55 57  1  0  0  0
 55133  1  0  0  0
 56 69  2  0  0  0
 57 58  2  0  0  0
 57134  1  0  0  0
 58135  1  0  0  0
 59 60  1  0  0  0
 59 61  1  0  0  0
 59 62  1  0  0  0
 60136  1  0  0  0
 60137  1  0  0  0
 60138  1  0  0  0
 61139  1  0  0  0
 61140  1  0  0  0
 61141  1  0  0  0
 62142  1  0  0  0
 62143  1  0  0  0
 62144  1  0  0  0
 63 65  1  0  0  0
 63145  1  0  0  0
 63146  1  0  0  0
 63147  1  0  0  0
 64148  1  0  0  0
 65149  1  0  0  0
 68 87  1  0  0  0
 71 73  2  0  0  0
 71 76  1  0  0  0
 71150  1  0  0  0
 72 74  1  0  0  0
 72 76  2  0  0  0
 72151  1  0  0  0
 73 75  1  0  0  0
 73 81  1  0  0  0
 74 75  2  0  0  0
 74 82  1  0  0  0
 75 83  1  0  0  0
 76 90  1  0  0  0
 77 79  1  0  0  0
 77 81  1  0  0  0
 77152  1  0  0  0
 77153  1  0  0  0
 78 80  1  0  0  0
 78 81  1  0  0  0
 78154  1  0  0  0
 78155  1  0  0  0
 79 89  1  0  0  0
 79156  1  0  0  0
 79157  1  0  0  0
 80 89  1  0  0  0
 80158  1  0  0  0
 80159  1  0  0  0
 81160  1  0  0  0
 82161  1  0  0  0
 82162  1  0  0  0
 82163  1  0  0  0
 83164  1  0  0  0
 83165  1  0  0  0
 83166  1  0  0  0
 84 86  1  0  0  0
 84 88  1  0  0  0
 84167  1  0  0  0
 84168  1  0  0  0
 85 87  1  0  0  0
 85169  1  0  0  0
 85170  1  0  0  0
 85 89  1  0  0  0
 86 90  1  0  0  0
 86171  1  0  0  0
 86172  1  0  0  0
 87173  1  0  0  0
 87174  1  0  0  0
 88175  1  0  0  0
 89176  1  0  0  0
M  CHG  1  89   1
M  ISO  4   1 100  68 101  87 101  88 100
M  END
> <chiral flag>
0

> <version>
0

> <s_m_source_file>
/data/baiqing/PycharmProjects/Reinvent-master-3.2/result/LINK_invent/BTK/process_docking_weight1_custom_sum_contain_oxygen_bond_distance_aromatic_linkinvent_7_9_3/rearranged_h_0158.sdf

> <i_m_source_file_index>
68

> <r_mmod_Potential_Energy-OPLS-2005>
-120.38013458252

> <r_mmod_Stretch_Energy-OPLS-2005>
40.5563735961914

> <r_mmod_Bend_Energy-OPLS-2005>
133.774307250977

> <r_mmod_Torsional_Energy-OPLS-2005>
304.517578125

> <r_mmod_Improper_Torsional_Energy-OPLS-2005>
11.8766498565674

> <r_mmod_Van_der_Waal_Energy-OPLS-2005>
160.98161315918

> <r_mmod_Electrostatic_Energy-OPLS-2005>
-358.505401611328

> <r_mmod_Solvation_Energy-OPLS-2005>
-423.052520751953

> <b_mmod_Minimization_Converged-OPLS-2005>
0

> <r_mmod_RMS_Derivative-OPLS-2005>
5.38551712036133

$$$$
68
                    3D
 Structure written by MMmdl.
167176  0  0  1  0            999 V2000
  -30.5484  -14.8598   20.5283 C   0  0  0  0  0  0
  -30.4664  -12.5649   19.4970 C   0  0  0  0  0  0
  -29.5056  -12.4682   18.2884 C   0  0  0  0  0  0
  -28.0572  -12.2215   18.7476 C   0  0  0  0  0  0
  -27.6453  -13.1624   19.8995 C   0  0  2  0  0  0
  -28.7008  -13.1561   21.0312 C   0  0  0  0  0  0
  -25.2476  -13.7944   20.5569 C   0  0  0  0  0  0
  -24.1743  -13.0289   20.9282 C   0  0  0  0  0  0
  -24.6345  -11.6814   20.9008 C   0  0  0  0  0  0
  -23.9010  -10.4214   21.0548 C   0  0  0  0  0  0
  -24.3595   -9.4103   21.9255 C   0  0  0  0  0  0
  -23.6259   -8.2139   22.0765 C   0  0  0  0  0  0
  -22.4228   -8.0251   21.3533 C   0  0  0  0  0  0
  -21.9909   -9.0233   20.4625 C   0  0  0  0  0  0
  -22.7250  -10.2106   20.3109 C   0  0  0  0  0  0
  -21.6824   -6.0730   22.5262 C   0  0  0  0  0  0
  -21.3991   -6.5640   23.8201 C   0  0  0  0  0  0
  -21.3639   -5.6783   24.9151 C   0  0  0  0  0  0
  -21.6060   -4.3051   24.7199 C   0  0  0  0  0  0
  -21.8834   -3.8160   23.4312 C   0  0  0  0  0  0
  -21.9185   -4.6969   22.3376 C   0  0  0  0  0  0
  -22.7809  -13.5199   21.1808 C   0  0  0  0  0  0
  -22.1664   -4.2188   21.0940 F   0  0  0  0  0  0
  -21.5637   -3.4527   25.7693 F   0  0  0  0  0  0
  -29.9521  -13.6140   20.4204 N   0  0  0  0  0  0
  -26.2934  -12.9034   20.3660 N   0  0  0  0  0  0
  -25.9282  -11.6276   20.6248 N   0  0  0  0  0  0
  -22.0486  -12.8194   22.0425 N   0  0  0  0  0  0
  -25.3991  -15.1523   20.3292 N   0  0  0  0  0  0
  -31.7566  -14.9280   20.2710 O   0  0  0  0  0  0
  -21.6587   -6.8853   21.4207 O   0  0  0  0  0  0
  -22.3517  -14.5479   20.6630 O   0  0  0  0  0  0
  -24.6237  -31.8605   23.2073 C   0  0  0  0  0  0
  -25.9088  -32.4779   23.8386 C   0  0  1  0  0  0
  -27.1908  -27.2925   20.1033 C   0  0  0  0  0  0
  -25.5906  -33.8576   24.2305 N   0  0  0  0  0  0
  -23.4159  -30.4873   21.5570 C   0  0  2  0  0  0
  -24.8502  -28.9440   20.1237 C   0  0  0  0  0  0
  -22.7438  -29.4586   22.4984 C   0  0  0  0  0  0
  -18.0234  -28.1232   22.8400 C   0  0  0  0  0  0
  -24.1517  -36.7305   23.2629 C   0  0  0  0  0  0
  -25.9617  -30.7766   21.3872 C   0  0  0  0  0  0
  -26.0307  -29.4103   20.7173 C   0  0  0  0  0  0
  -27.2088  -28.5977   20.6915 C   0  0  0  0  0  0
  -25.9743  -26.8891   19.5016 C   0  0  0  0  0  0
  -24.8221  -27.6865   19.5171 C   0  0  0  0  0  0
  -23.6277  -29.8333   20.1743 C   0  0  0  0  0  0
  -25.4142  -36.3077   24.0323 C   0  0  1  0  0  0
  -20.5833  -28.3552   23.1202 C   0  0  2  0  0  0
  -20.6742  -26.9280   22.5331 C   0  0  0  0  0  0
  -19.5779  -26.6259   21.5046 C   0  0  0  0  0  0
  -18.1935  -26.7786   22.1469 C   0  0  0  0  0  0
  -19.1491  -28.8710   23.2785 C   0  0  0  0  0  0
  -18.9477  -30.1315   23.8819 C   0  0  0  0  0  0
  -17.6507  -30.6507   24.0450 C   0  0  0  0  0  0
  -25.9075  -34.9440   23.5130 C   0  0  0  0  0  0
  -16.5373  -29.9002   23.6261 C   0  0  0  0  0  0
  -16.7228  -28.6359   23.0347 C   0  0  0  0  0  0
  -26.4465  -31.6618   25.0785 C   0  0  0  0  0  0
  -25.3677  -31.3840   26.1536 C   0  0  0  0  0  0
  -27.0348  -30.3049   24.6268 C   0  0  0  0  0  0
  -27.6018  -32.4390   25.7552 C   0  0  0  0  0  0
  -27.5627  -37.1801   24.8456 C   0  0  0  0  0  0
  -21.4158  -29.2990   22.3716 N   0  0  0  0  0  0
  -26.4329  -37.3774   23.9427 N   0  0  0  0  0  0
  -24.6848  -31.0630   22.1040 N   0  0  0  0  0  0
  -23.4146  -28.8026   23.3000 O   0  0  0  0  0  0
  -28.2936  -26.4135   20.1402 O   0  0  0  0  0  0
  -26.5626  -34.8870   22.4676 O   0  0  0  0  0  0
  -23.5393  -32.1383   23.7432 O   0  0  0  0  0  0
  -29.3368  -21.2411   20.3516 C   0  0  0  0  0  0
  -29.2545  -21.6041   23.0946 C   0  0  0  0  0  0
  -29.3690  -20.0569   21.1781 C   0  0  0  0  0  0
  -29.1914  -22.5909   20.8555 C   0  0  0  0  0  0
  -29.1493  -22.7442   22.2625 C   0  0  0  0  0  0
  -29.3040  -20.2742   22.5842 C   0  0  0  0  0  0
  -28.0562  -17.8407   20.6152 C   0  0  0  0  0  0
  -28.4001  -16.3332   20.4535 C   0  0  0  0  0  0
  -30.3548  -17.4264   21.0935 C   0  0  0  0  0  0
  -29.3872  -18.5806   20.5602 C   0  0  2  0  0  0
  -28.9466  -24.1148   22.9044 C   0  0  0  0  0  0
  -30.5279  -24.4674   19.6720 C   0  0  0  0  0  0
  -29.4154  -19.2649   24.8075 C   0  0  0  0  0  0
  -28.0053  -24.9573   20.0050 C   0  0  0  0  0  0
  -29.1431  -23.8424   19.8871 C   0  0  1  0  0  0
  -29.8106  -16.0436   20.7884 N   0  0  0  0  0  0
  -29.2249  -19.1571   23.3961 O   0  0  0  0  0  0
  -31.4626  -12.8116   19.1255 H   0  0  0  0  0  0
  -30.5771  -11.6164   20.0239 H   0  0  0  0  0  0
  -29.8214  -11.6590   17.6297 H   0  0  0  0  0  0
  -29.5530  -13.3870   17.7037 H   0  0  0  0  0  0
  -27.9933  -11.1856   19.0928 H   0  0  0  0  0  0
  -27.3596  -12.3140   17.9150 H   0  0  0  0  0  0
  -27.6182  -14.1343   19.4366 H   0  0  0  0  0  0
  -28.8314  -12.1587   21.4566 H   0  0  0  0  0  0
  -28.4235  -13.7853   21.8780 H   0  0  0  0  0  0
  -25.2737   -9.5543   22.4863 H   0  0  0  0  0  0
  -23.9977   -7.4488   22.7471 H   0  0  0  0  0  0
  -21.0875   -8.8757   19.8892 H   0  0  0  0  0  0
  -22.3754  -10.9670   19.6257 H   0  0  0  0  0  0
  -21.1979   -7.6160   23.9711 H   0  0  0  0  0  0
  -21.1457   -6.0507   25.9056 H   0  0  0  0  0  0
  -22.0652   -2.7642   23.2771 H   0  0  0  0  0  0
  -22.4123  -11.9818   22.4694 H   0  0  0  0  0  0
  -21.1170  -13.1262   22.2754 H   0  0  0  0  0  0
  -24.6249  -15.8058   20.3486 H   0  0  0  0  0  0
  -26.2032  -15.5092   19.8298 H   0  0  0  0  0  0
  -26.7122  -32.5398   23.1087 H   0  0  0  0  0  0
  -25.0098  -33.9721   25.0482 H   0  0  0  0  0  0
  -22.7033  -31.3017   21.4230 H   0  0  0  0  0  0
  -23.3784  -35.9656   23.3272 H   0  0  0  0  0  0
  -24.3599  -36.8941   22.2042 H   0  0  0  0  0  0
  -23.7264  -37.6492   23.6668 H   0  0  0  0  0  0
  -26.1155  -31.5380   20.6221 H   0  0  0  0  0  0
  -26.8290  -30.8055   22.0331 H   0  0  0  0  0  0
  -28.1157  -28.9476   21.1669 H   0  0  0  0  0  0
  -25.8315  -25.9376   19.0209 H   0  0  0  0  0  0
  -23.9122  -27.3029   19.0757 H   0  0  0  0  0  0
  -23.7660  -30.6127   19.4268 H   0  0  0  0  0  0
  -22.7379  -29.2858   19.8618 H   0  0  0  0  0  0
  -25.1311  -36.1947   25.0817 H   0  0  0  0  0  0
  -20.9858  -28.3110   24.1329 H   0  0  0  0  0  0
  -20.5468  -26.2190   23.3538 H   0  0  0  0  0  0
  -21.6643  -26.7240   22.1248 H   0  0  0  0  0  0
  -19.6999  -25.6127   21.1148 H   0  0  0  0  0  0
  -19.6776  -27.2977   20.6498 H   0  0  0  0  0  0
  -17.4207  -26.6354   21.3895 H   0  0  0  0  0  0
  -18.0467  -25.9894   22.8854 H   0  0  0  0  0  0
  -19.8013  -30.7003   24.2235 H   0  0  0  0  0  0
  -17.5138  -31.6193   24.5025 H   0  0  0  0  0  0
  -15.5391  -30.2913   23.7690 H   0  0  0  0  0  0
  -15.8578  -28.0675   22.7212 H   0  0  0  0  0  0
  -24.5822  -30.7170   25.7951 H   0  0  0  0  0  0
  -24.8867  -32.3038   26.4885 H   0  0  0  0  0  0
  -25.7948  -30.9117   27.0394 H   0  0  0  0  0  0
  -26.2974  -29.6784   24.1240 H   0  0  0  0  0  0
  -27.3989  -29.7301   25.4796 H   0  0  0  0  0  0
  -27.8844  -30.4378   23.9578 H   0  0  0  0  0  0
  -27.2634  -33.3729   26.2072 H   0  0  0  0  0  0
  -28.3845  -32.6907   25.0375 H   0  0  0  0  0  0
  -28.0670  -31.8568   26.5495 H   0  0  0  0  0  0
  -28.2581  -38.0159   24.7557 H   0  0  0  0  0  0
  -28.1160  -36.2663   24.6222 H   0  0  0  0  0  0
  -27.2327  -37.1388   25.8849 H   0  0  0  0  0  0
  -20.9304  -29.8873   21.7099 H   0  0  0  0  0  0
  -26.0192  -38.2852   24.1444 H   0  0  0  0  0  0
  -29.3981  -21.1048   19.2793 H   0  0  0  0  0  0
  -29.2549  -21.7884   24.1573 H   0  0  0  0  0  0
  -27.5747  -18.0053   21.5800 H   0  0  0  0  0  0
  -27.3654  -18.2009   19.8439 H   0  0  0  0  0  0
  -28.2333  -16.0974   19.4030 H   0  0  0  0  0  0
  -27.7359  -15.7616   21.0970 H   0  0  0  0  0  0
  -30.4314  -17.4954   22.1792 H   0  0  0  0  0  0
  -31.3623  -17.5527   20.6989 H   0  0  0  0  0  0
  -29.6044  -18.7061   19.4966 H   0  0  0  0  0  0
  -27.9333  -24.4590   22.7003 H   0  0  0  0  0  0
  -29.6373  -24.8620   22.5067 H   0  0  0  0  0  0
  -29.0526  -24.1156   23.9917 H   0  0  0  0  0  0
  -30.8258  -25.0699   20.5282 H   0  0  0  0  0  0
  -30.5308  -25.1101   18.7869 H   0  0  0  0  0  0
  -31.2756  -23.6891   19.5197 H   0  0  0  0  0  0
  -29.0112  -18.3827   25.3072 H   0  0  0  0  0  0
  -28.9250  -20.1137   25.2789 H   0  0  0  0  0  0
  -30.4798  -19.2825   25.0323 H   0  0  0  0  0  0
  -27.4826  -24.8328   19.0601 H   0  0  0  0  0  0
  -27.2633  -24.6687   20.7450 H   0  0  0  0  0  0
  -28.9092  -23.3676   18.9321 H   0  0  0  0  0  0
  1 25  1  0  0  0
  1 30  2  0  0  0
  1 86  1  0  0  0
  2  3  1  0  0  0
  2 25  1  0  0  0
  2 88  1  0  0  0
  2 89  1  0  0  0
  3  4  1  0  0  0
  3 90  1  0  0  0
  3 91  1  0  0  0
  4  5  1  0  0  0
  4 92  1  0  0  0
  4 93  1  0  0  0
  5  6  1  0  0  0
  5 26  1  0  0  0
  5 94  1  0  0  0
  6 25  1  0  0  0
  6 95  1  0  0  0
  6 96  1  0  0  0
  7  8  2  0  0  0
  7 26  1  0  0  0
  7 29  1  0  0  0
  8  9  1  0  0  0
  8 22  1  0  0  0
  9 10  1  0  0  0
  9 27  2  0  0  0
 10 11  2  0  0  0
 10 15  1  0  0  0
 11 12  1  0  0  0
 11 97  1  0  0  0
 12 13  2  0  0  0
 12 98  1  0  0  0
 13 14  1  0  0  0
 13 31  1  0  0  0
 14 15  2  0  0  0
 14 99  1  0  0  0
 15100  1  0  0  0
 16 17  2  0  0  0
 16 21  1  0  0  0
 16 31  1  0  0  0
 17 18  1  0  0  0
 17101  1  0  0  0
 18 19  2  0  0  0
 18102  1  0  0  0
 19 20  1  0  0  0
 19 24  1  0  0  0
 20 21  2  0  0  0
 20103  1  0  0  0
 21 23  1  0  0  0
 22 28  1  0  0  0
 22 32  2  0  0  0
 26 27  1  0  0  0
 28104  1  0  0  0
 28105  1  0  0  0
 29106  1  0  0  0
 29107  1  0  0  0
 33 34  1  0  0  0
 33 66  1  0  0  0
 33 70  2  0  0  0
 34 36  1  0  0  0
 34 59  1  0  0  0
 34108  1  0  0  0
 35 44  2  0  0  0
 35 45  1  0  0  0
 35 68  1  0  0  0
 36 56  1  0  0  0
 36109  1  0  0  0
 37 39  1  0  0  0
 37 47  1  0  0  0
 37 66  1  0  0  0
 37110  1  0  0  0
 38 43  2  0  0  0
 38 46  1  0  0  0
 38 47  1  0  0  0
 39 64  1  0  0  0
 39 67  2  0  0  0
 40 52  1  0  0  0
 40 53  2  0  0  0
 40 58  1  0  0  0
 41111  1  0  0  0
 41112  1  0  0  0
 41113  1  0  0  0
 41 48  1  0  0  0
 42 43  1  0  0  0
 42 66  1  0  0  0
 42114  1  0  0  0
 42115  1  0  0  0
 43 44  1  0  0  0
 44116  1  0  0  0
 45 46  2  0  0  0
 45117  1  0  0  0
 46118  1  0  0  0
 47119  1  0  0  0
 47120  1  0  0  0
 48 56  1  0  0  0
 48 65  1  0  0  0
 48121  1  0  0  0
 49 50  1  0  0  0
 49 53  1  0  0  0
 49 64  1  0  0  0
 49122  1  0  0  0
 50 51  1  0  0  0
 50123  1  0  0  0
 50124  1  0  0  0
 51 52  1  0  0  0
 51125  1  0  0  0
 51126  1  0  0  0
 52127  1  0  0  0
 52128  1  0  0  0
 53 54  1  0  0  0
 54 55  2  0  0  0
 54129  1  0  0  0
 55 57  1  0  0  0
 55130  1  0  0  0
 56 69  2  0  0  0
 57 58  2  0  0  0
 57131  1  0  0  0
 58132  1  0  0  0
 59 60  1  0  0  0
 59 61  1  0  0  0
 59 62  1  0  0  0
 60133  1  0  0  0
 60134  1  0  0  0
 60135  1  0  0  0
 61136  1  0  0  0
 61137  1  0  0  0
 61138  1  0  0  0
 62139  1  0  0  0
 62140  1  0  0  0
 62141  1  0  0  0
 63 65  1  0  0  0
 63142  1  0  0  0
 63143  1  0  0  0
 63144  1  0  0  0
 64145  1  0  0  0
 65146  1  0  0  0
 68 84  1  0  0  0
 71 73  2  0  0  0
 71 74  1  0  0  0
 71147  1  0  0  0
 72 75  1  0  0  0
 72 76  2  0  0  0
 72148  1  0  0  0
 73 76  1  0  0  0
 73 80  1  0  0  0
 74 75  2  0  0  0
 74 85  1  0  0  0
 75 81  1  0  0  0
 76 87  1  0  0  0
 77 78  1  0  0  0
 77 80  1  0  0  0
 77149  1  0  0  0
 77150  1  0  0  0
 78 86  1  0  0  0
 78151  1  0  0  0
 78152  1  0  0  0
 79 80  1  0  0  0
 79 86  1  0  0  0
 79153  1  0  0  0
 79154  1  0  0  0
 80155  1  0  0  0
 81156  1  0  0  0
 81157  1  0  0  0
 81158  1  0  0  0
 82159  1  0  0  0
 82160  1  0  0  0
 82161  1  0  0  0
 82 85  1  0  0  0
 83 87  1  0  0  0
 83162  1  0  0  0
 83163  1  0  0  0
 83164  1  0  0  0
 84 85  1  0  0  0
 84165  1  0  0  0
 84166  1  0  0  0
 85167  1  0  0  0
M  ISO  4   1 100  68 101  84 101  86 100
M  END
> <chiral flag>
0

> <version>
0

> <s_m_source_file>
/data/baiqing/PycharmProjects/Reinvent-master-3.2/result/LINK_invent/BTK/process_docking_weight1_custom_sum_contain_oxygen_bond_distance_aromatic_linkinvent_7_9_3/rearranged_h_0158.sdf

> <i_m_source_file_index>
69

> <r_mmod_Potential_Energy-OPLS-2005>
450.592376708984

> <r_mmod_Stretch_Energy-OPLS-2005>
115.66268157959

> <r_mmod_Bend_Energy-OPLS-2005>
215.951095581055

> <r_mmod_Torsional_Energy-OPLS-2005>
341.532928466797

> <r_mmod_Improper_Torsional_Energy-OPLS-2005>
5.06707668304443

> <r_mmod_Van_der_Waal_Energy-OPLS-2005>
163.935424804688

> <r_mmod_Electrostatic_Energy-OPLS-2005>
-308.865783691406

> <r_mmod_Solvation_Energy-OPLS-2005>
-199.68505859375

> <b_mmod_Minimization_Converged-OPLS-2005>
0

> <r_mmod_RMS_Derivative-OPLS-2005>
9.41666126251221

$$$$
69
                    3D
 Structure written by MMmdl.
175185  0  0  1  0            999 V2000
  -30.8068  -14.3420   20.5797 C   0  0  0  0  0  0
  -30.4138  -12.2609   19.3742 C   0  0  0  0  0  0
  -29.4699  -12.4942   18.1791 C   0  0  0  0  0  0
  -27.9974  -12.3592   18.6120 C   0  0  0  0  0  0
  -27.6603  -13.1958   19.8761 C   0  0  2  0  0  0
  -28.7171  -12.9436   20.9750 C   0  0  0  0  0  0
  -25.2509  -13.8055   20.5649 C   0  0  0  0  0  0
  -24.1798  -13.0365   20.9221 C   0  0  0  0  0  0
  -24.6377  -11.6844   20.8797 C   0  0  0  0  0  0
  -23.9052  -10.4249   21.0450 C   0  0  0  0  0  0
  -24.3597   -9.4149   21.9213 C   0  0  0  0  0  0
  -23.6259   -8.2194   22.0769 C   0  0  0  0  0  0
  -22.4239   -8.0259   21.3548 C   0  0  0  0  0  0
  -21.9892   -9.0241   20.4657 C   0  0  0  0  0  0
  -22.7234  -10.2113   20.3084 C   0  0  0  0  0  0
  -21.6827   -6.0719   22.5279 C   0  0  0  0  0  0
  -21.3994   -6.5626   23.8211 C   0  0  0  0  0  0
  -21.3656   -5.6791   24.9175 C   0  0  0  0  0  0
  -21.6051   -4.3052   24.7246 C   0  0  0  0  0  0
  -21.8805   -3.8136   23.4362 C   0  0  0  0  0  0
  -21.9178   -4.6947   22.3411 C   0  0  0  0  0  0
  -22.7820  -13.5186   21.1876 C   0  0  0  0  0  0
  -22.1652   -4.2125   21.0992 F   0  0  0  0  0  0
  -21.5640   -3.4543   25.7762 F   0  0  0  0  0  0
  -30.0429  -13.2366   20.4053 N   0  0  0  0  0  0
  -26.3013  -12.9273   20.3435 N   0  0  0  0  0  0
  -25.9313  -11.6432   20.5865 N   0  0  0  0  0  0
  -22.0451  -12.8216   22.0447 N   0  0  0  0  0  0
  -25.4057  -15.1754   20.3871 N   0  0  0  0  0  0
  -32.0147  -14.3500   20.3280 O   0  0  0  0  0  0
  -21.6600   -6.8854   21.4240 O   0  0  0  0  0  0
  -22.3526  -14.5504   20.6732 O   0  0  0  0  0  0
  -24.6096  -31.8820   23.2275 C   0  0  0  0  0  0
  -25.9040  -32.4900   23.8506 C   0  0  1  0  0  0
  -27.2213  -27.5368   20.0311 C   0  0  0  0  0  0
  -25.5945  -33.8701   24.2418 N   0  0  0  0  0  0
  -23.3864  -30.5211   21.5710 C   0  0  2  0  0  0
  -24.8183  -29.0200   20.1250 C   0  0  0  0  0  0
  -22.7363  -29.4779   22.5064 C   0  0  0  0  0  0
  -18.0275  -28.1370   22.8525 C   0  0  0  0  0  0
  -24.1496  -36.7343   23.2640 C   0  0  0  0  0  0
  -25.9143  -30.8791   21.3650 C   0  0  0  0  0  0
  -25.9874  -29.5267   20.7033 C   0  0  0  0  0  0
  -27.1924  -28.7950   20.6562 C   0  0  0  0  0  0
  -25.9959  -27.0204   19.5094 C   0  0  0  0  0  0
  -24.8111  -27.7558   19.5370 C   0  0  0  0  0  0
  -23.5827  -29.8785   20.1785 C   0  0  0  0  0  0
  -25.4108  -36.3145   24.0334 C   0  0  1  0  0  0
  -20.5860  -28.3678   23.1340 C   0  0  2  0  0  0
  -20.6783  -26.9422   22.5419 C   0  0  0  0  0  0
  -19.5751  -26.6374   21.5245 C   0  0  0  0  0  0
  -18.1930  -26.7927   22.1636 C   0  0  0  0  0  0
  -19.1519  -28.8836   23.2947 C   0  0  0  0  0  0
  -18.9443  -30.1444   23.8935 C   0  0  0  0  0  0
  -17.6445  -30.6597   24.0569 C   0  0  0  0  0  0
  -25.9029  -34.9517   23.5150 C   0  0  0  0  0  0
  -16.5343  -29.9100   23.6319 C   0  0  0  0  0  0
  -16.7264  -28.6506   23.0352 C   0  0  0  0  0  0
  -26.4493  -31.6637   25.0782 C   0  0  0  0  0  0
  -25.3811  -31.3733   26.1568 C   0  0  0  0  0  0
  -27.0278  -30.3079   24.6102 C   0  0  0  0  0  0
  -27.6108  -32.4335   25.7515 C   0  0  0  0  0  0
  -27.5576  -37.1838   24.8469 C   0  0  0  0  0  0
  -21.4109  -29.3073   22.3771 N   0  0  0  0  0  0
  -26.4310  -37.3814   23.9386 N   0  0  0  0  0  0
  -24.6569  -31.1011   22.1141 N   0  0  0  0  0  0
  -23.4201  -28.8272   23.3016 O   0  0  0  0  0  0
  -28.4383  -26.8772   19.9448 O   0  0  0  0  0  0
  -26.5554  -34.8941   22.4682 O   0  0  0  0  0  0
  -23.5307  -32.1554   23.7698 O   0  0  0  0  0  0
  -26.9938  -18.8560   18.8025 C   0  0  0  0  0  0
  -26.6768  -21.1937   18.2503 C   0  0  0  0  0  0
  -28.1920  -19.1817   19.4767 C   0  0  0  0  0  0
  -26.2269  -19.8653   18.1932 C   0  0  0  0  0  0
  -28.6500  -20.5136   19.5429 C   0  0  0  0  0  0
  -27.8708  -21.5086   18.9336 C   0  0  0  0  0  0
  -28.3493  -17.0925   20.9630 C   0  0  0  0  0  0
  -29.7630  -17.3910   18.8999 C   0  0  0  0  0  0
  -29.5448  -24.8682   18.8125 C   0  0  0  0  0  0
  -27.7917  -24.7029   20.6135 C   0  0  0  0  0  0
  -29.4171  -16.1452   21.5321 C   0  0  0  0  0  0
  -30.7915  -16.4650   19.5051 C   0  0  0  0  0  0
  -29.0047  -23.5520   18.1975 C   0  0  0  0  0  0
  -27.1855  -23.4756   19.9885 C   0  0  0  0  0  0
  -29.0524  -18.0888   20.0444 C   0  0  0  0  0  0
  -28.3410  -25.5568   19.4582 C   0  0  0  0  0  0
  -24.9115  -19.5434   17.5174 C   0  0  0  0  0  0
  -29.9469  -20.8675   20.2856 C   0  0  0  0  0  0
  -28.2069  -22.8244   19.1874 N   0  0  0  0  0  0
  -30.1507  -15.5056   20.4281 N   0  0  0  0  0  0
  -31.4495  -12.3577   19.0406 H   0  0  0  0  0  0
  -30.3209  -11.2449   19.7602 H   0  0  0  0  0  0
  -29.6936  -11.7866   17.3795 H   0  0  0  0  0  0
  -29.6358  -13.4904   17.7637 H   0  0  0  0  0  0
  -27.8110  -11.3031   18.8113 H   0  0  0  0  0  0
  -27.3337  -12.6339   17.7918 H   0  0  0  0  0  0
  -27.7115  -14.2471   19.5936 H   0  0  0  0  0  0
  -28.6870  -11.8961   21.2795 H   0  0  0  0  0  0
  -28.4993  -13.4903   21.8864 H   0  0  0  0  0  0
  -25.2737   -9.5601   22.4793 H   0  0  0  0  0  0
  -23.9944   -7.4572   22.7483 H   0  0  0  0  0  0
  -21.0821   -8.8783   19.8960 H   0  0  0  0  0  0
  -22.3702  -10.9674   19.6206 H   0  0  0  0  0  0
  -21.1967   -7.6131   23.9709 H   0  0  0  0  0  0
  -21.1506   -6.0525   25.9080 H   0  0  0  0  0  0
  -22.0587   -2.7600   23.2883 H   0  0  0  0  0  0
  -22.4049  -11.9874   22.4855 H   0  0  0  0  0  0
  -21.1094  -13.1293   22.2677 H   0  0  0  0  0  0
  -24.6235  -15.8142   20.4675 H   0  0  0  0  0  0
  -26.2447  -15.6104   20.0322 H   0  0  0  0  0  0
  -26.7113  -32.5653   23.1278 H   0  0  0  0  0  0
  -25.0180  -33.9903   25.0617 H   0  0  0  0  0  0
  -22.6731  -31.3396   21.4513 H   0  0  0  0  0  0
  -23.3752  -35.9687   23.3340 H   0  0  0  0  0  0
  -24.3589  -36.8944   22.2056 H   0  0  0  0  0  0
  -23.7282  -37.6567   23.6640 H   0  0  0  0  0  0
  -26.0215  -31.6544   20.6033 H   0  0  0  0  0  0
  -26.8044  -30.9236   21.9793 H   0  0  0  0  0  0
  -28.1009  -29.1971   21.0810 H   0  0  0  0  0  0
  -25.8735  -26.0479   19.0631 H   0  0  0  0  0  0
  -23.9027  -27.3450   19.1191 H   0  0  0  0  0  0
  -23.6875  -30.6673   19.4337 H   0  0  0  0  0  0
  -22.7038  -29.3089   19.8770 H   0  0  0  0  0  0
  -25.1292  -36.2036   25.0827 H   0  0  0  0  0  0
  -20.9971  -28.3245   24.1456 H   0  0  0  0  0  0
  -20.5760  -26.2289   23.3610 H   0  0  0  0  0  0
  -21.6647  -26.7516   22.1172 H   0  0  0  0  0  0
  -19.6926  -25.6297   21.1263 H   0  0  0  0  0  0
  -19.6673  -27.3203   20.6798 H   0  0  0  0  0  0
  -17.4208  -26.6735   21.4018 H   0  0  0  0  0  0
  -18.0280  -26.0051   22.8995 H   0  0  0  0  0  0
  -19.7911  -30.7254   24.2329 H   0  0  0  0  0  0
  -17.5000  -31.6279   24.5166 H   0  0  0  0  0  0
  -15.5345  -30.3009   23.7611 H   0  0  0  0  0  0
  -15.8664  -28.0826   22.7043 H   0  0  0  0  0  0
  -24.5929  -30.7133   25.7924 H   0  0  0  0  0  0
  -24.9051  -32.2893   26.5086 H   0  0  0  0  0  0
  -25.8193  -30.8851   27.0283 H   0  0  0  0  0  0
  -26.2761  -29.6863   24.1216 H   0  0  0  0  0  0
  -27.4140  -29.7306   25.4514 H   0  0  0  0  0  0
  -27.8573  -30.4389   23.9153 H   0  0  0  0  0  0
  -27.2760  -33.3653   26.2087 H   0  0  0  0  0  0
  -28.3893  -32.6884   25.0314 H   0  0  0  0  0  0
  -28.0796  -31.8473   26.5433 H   0  0  0  0  0  0
  -28.2648  -38.0080   24.7406 H   0  0  0  0  0  0
  -28.1022  -36.2605   24.6409 H   0  0  0  0  0  0
  -27.2290  -37.1637   25.8882 H   0  0  0  0  0  0
  -20.9257  -29.8821   21.7021 H   0  0  0  0  0  0
  -26.0218  -38.2914   24.1328 H   0  0  0  0  0  0
  -26.6677  -17.8268   18.7482 H   0  0  0  0  0  0
  -26.0737  -21.9749   17.8135 H   0  0  0  0  0  0
  -27.8349  -17.6111   21.7731 H   0  0  0  0  0  0
  -27.6025  -16.5332   20.4099 H   0  0  0  0  0  0
  -29.0584  -16.8430   18.2732 H   0  0  0  0  0  0
  -30.2656  -18.1192   18.2609 H   0  0  0  0  0  0
  -29.9806  -25.4894   18.0279 H   0  0  0  0  0  0
  -30.3275  -24.6734   19.5445 H   0  0  0  0  0  0
  -28.5898  -24.4424   21.3111 H   0  0  0  0  0  0
  -27.0285  -25.2048   21.2098 H   0  0  0  0  0  0
  -28.9492  -15.4447   22.2149 H   0  0  0  0  0  0
  -30.1217  -16.7032   22.1521 H   0  0  0  0  0  0
  -31.5573  -17.0367   20.0346 H   0  0  0  0  0  0
  -31.2953  -15.9688   18.6727 H   0  0  0  0  0  0
  -29.8276  -22.9348   17.8367 H   0  0  0  0  0  0
  -28.3810  -23.7646   17.3264 H   0  0  0  0  0  0
  -26.3290  -23.7426   19.3678 H   0  0  0  0  0  0
  -26.8219  -22.8089   20.7729 H   0  0  0  0  0  0
  -29.8230  -18.5085   20.6837 H   0  0  0  0  0  0
  -27.6995  -25.5760   18.5835 H   0  0  0  0  0  0
  -24.8406  -18.4888   17.2527 H   0  0  0  0  0  0
  -24.7924  -20.1321   16.6072 H   0  0  0  0  0  0
  -24.0838  -19.7838   18.1856 H   0  0  0  0  0  0
  -30.7870  -20.3367   19.8370 H   0  0  0  0  0  0
  -29.8671  -20.5754   21.3328 H   0  0  0  0  0  0
  -30.2182  -21.9212   20.2826 H   0  0  0  0  0  0
  1 25  1  0  0  0
  1 30  2  0  0  0
  1 90  1  0  0  0
  2  3  1  0  0  0
  2 25  1  0  0  0
  2 91  1  0  0  0
  2 92  1  0  0  0
  3  4  1  0  0  0
  3 93  1  0  0  0
  3 94  1  0  0  0
  4  5  1  0  0  0
  4 95  1  0  0  0
  4 96  1  0  0  0
  5  6  1  0  0  0
  5 26  1  0  0  0
  5 97  1  0  0  0
  6 25  1  0  0  0
  6 98  1  0  0  0
  6 99  1  0  0  0
  7  8  2  0  0  0
  7 26  1  0  0  0
  7 29  1  0  0  0
  8  9  1  0  0  0
  8 22  1  0  0  0
  9 10  1  0  0  0
  9 27  2  0  0  0
 10 11  2  0  0  0
 10 15  1  0  0  0
 11 12  1  0  0  0
 11100  1  0  0  0
 12 13  2  0  0  0
 12101  1  0  0  0
 13 14  1  0  0  0
 13 31  1  0  0  0
 14 15  2  0  0  0
 14102  1  0  0  0
 15103  1  0  0  0
 16 17  2  0  0  0
 16 21  1  0  0  0
 16 31  1  0  0  0
 17 18  1  0  0  0
 17104  1  0  0  0
 18 19  2  0  0  0
 18105  1  0  0  0
 19 20  1  0  0  0
 19 24  1  0  0  0
 20 21  2  0  0  0
 20106  1  0  0  0
 21 23  1  0  0  0
 22 28  1  0  0  0
 22 32  2  0  0  0
 26 27  1  0  0  0
 28107  1  0  0  0
 28108  1  0  0  0
 29109  1  0  0  0
 29110  1  0  0  0
 33 34  1  0  0  0
 33 66  1  0  0  0
 33 70  2  0  0  0
 34 36  1  0  0  0
 34 59  1  0  0  0
 34111  1  0  0  0
 35 44  2  0  0  0
 35 45  1  0  0  0
 35 68  1  0  0  0
 36 56  1  0  0  0
 36112  1  0  0  0
 37 39  1  0  0  0
 37 47  1  0  0  0
 37 66  1  0  0  0
 37113  1  0  0  0
 38 43  2  0  0  0
 38 46  1  0  0  0
 38 47  1  0  0  0
 39 64  1  0  0  0
 39 67  2  0  0  0
 40 52  1  0  0  0
 40 53  2  0  0  0
 40 58  1  0  0  0
 41114  1  0  0  0
 41115  1  0  0  0
 41116  1  0  0  0
 41 48  1  0  0  0
 42 43  1  0  0  0
 42 66  1  0  0  0
 42117  1  0  0  0
 42118  1  0  0  0
 43 44  1  0  0  0
 44119  1  0  0  0
 45 46  2  0  0  0
 45120  1  0  0  0
 46121  1  0  0  0
 47122  1  0  0  0
 47123  1  0  0  0
 48 56  1  0  0  0
 48 65  1  0  0  0
 48124  1  0  0  0
 49 50  1  0  0  0
 49 53  1  0  0  0
 49 64  1  0  0  0
 49125  1  0  0  0
 50 51  1  0  0  0
 50126  1  0  0  0
 50127  1  0  0  0
 51 52  1  0  0  0
 51128  1  0  0  0
 51129  1  0  0  0
 52130  1  0  0  0
 52131  1  0  0  0
 53 54  1  0  0  0
 54 55  2  0  0  0
 54132  1  0  0  0
 55 57  1  0  0  0
 55133  1  0  0  0
 56 69  2  0  0  0
 57 58  2  0  0  0
 57134  1  0  0  0
 58135  1  0  0  0
 59 60  1  0  0  0
 59 61  1  0  0  0
 59 62  1  0  0  0
 60136  1  0  0  0
 60137  1  0  0  0
 60138  1  0  0  0
 61139  1  0  0  0
 61140  1  0  0  0
 61141  1  0  0  0
 62142  1  0  0  0
 62143  1  0  0  0
 62144  1  0  0  0
 63 65  1  0  0  0
 63145  1  0  0  0
 63146  1  0  0  0
 63147  1  0  0  0
 64148  1  0  0  0
 65149  1  0  0  0
 68 86  1  0  0  0
 71 73  2  0  0  0
 71 74  1  0  0  0
 71150  1  0  0  0
 72 74  2  0  0  0
 72 76  1  0  0  0
 72151  1  0  0  0
 73 75  1  0  0  0
 73 85  1  0  0  0
 74 87  1  0  0  0
 75 76  2  0  0  0
 75 88  1  0  0  0
 76 89  1  0  0  0
 77 81  1  0  0  0
 77 85  1  0  0  0
 77152  1  0  0  0
 77153  1  0  0  0
 78 82  1  0  0  0
 78 85  1  0  0  0
 78154  1  0  0  0
 78155  1  0  0  0
 79 83  1  0  0  0
 79 86  1  0  0  0
 79156  1  0  0  0
 79157  1  0  0  0
 80 84  1  0  0  0
 80 86  1  0  0  0
 80158  1  0  0  0
 80159  1  0  0  0
 81 90  1  0  0  0
 81160  1  0  0  0
 81161  1  0  0  0
 82 90  1  0  0  0
 82162  1  0  0  0
 82163  1  0  0  0
 83 89  1  0  0  0
 83164  1  0  0  0
 83165  1  0  0  0
 84 89  1  0  0  0
 84166  1  0  0  0
 84167  1  0  0  0
 85168  1  0  0  0
 86169  1  0  0  0
 87170  1  0  0  0
 87171  1  0  0  0
 87172  1  0  0  0
 88173  1  0  0  0
 88174  1  0  0  0
 88175  1  0  0  0
M  ISO  4   1 100  68 101  86 101  90 100
M  END
> <chiral flag>
0

> <version>
0

> <s_m_source_file>
/data/baiqing/PycharmProjects/Reinvent-master-3.2/result/LINK_invent/BTK/process_docking_weight1_custom_sum_contain_oxygen_bond_distance_aromatic_linkinvent_7_9_3/rearranged_h_0158.sdf

> <i_m_source_file_index>
70

> <r_mmod_Potential_Energy-OPLS-2005>
312.016723632812

> <r_mmod_Stretch_Energy-OPLS-2005>
35.3574562072754

> <r_mmod_Bend_Energy-OPLS-2005>
144.843292236328

> <r_mmod_Torsional_Energy-OPLS-2005>
358.805023193359

> <r_mmod_Improper_Torsional_Energy-OPLS-2005>
27.0181560516357

> <r_mmod_Van_der_Waal_Energy-OPLS-2005>
225.694641113281

> <r_mmod_Electrostatic_Energy-OPLS-2005>
-329.987548828125

> <r_mmod_Solvation_Energy-OPLS-2005>
-187.721435546875

> <b_mmod_Minimization_Converged-OPLS-2005>
0

> <r_mmod_RMS_Derivative-OPLS-2005>
3.54810619354248

$$$$
70
                    3D
 Structure written by MMmdl.
156164  0  0  1  0            999 V2000
  -30.6878  -14.4726   20.5850 C   0  0  0  0  0  0
  -30.4307  -12.3085   19.4272 C   0  0  0  0  0  0
  -29.5005  -12.5030   18.2113 C   0  0  0  0  0  0
  -28.0205  -12.3626   18.6213 C   0  0  0  0  0  0
  -27.6643  -13.2026   19.8778 C   0  0  2  0  0  0
  -28.7039  -12.9731   20.9992 C   0  0  0  0  0  0
  -25.2608  -13.8162   20.5676 C   0  0  0  0  0  0
  -24.1846  -13.0451   20.9180 C   0  0  0  0  0  0
  -24.6387  -11.6916   20.8734 C   0  0  0  0  0  0
  -23.9039  -10.4301   21.0396 C   0  0  0  0  0  0
  -24.3596   -9.4222   21.9180 C   0  0  0  0  0  0
  -23.6278   -8.2254   22.0752 C   0  0  0  0  0  0
  -22.4265   -8.0284   21.3537 C   0  0  0  0  0  0
  -21.9891   -9.0258   20.4644 C   0  0  0  0  0  0
  -22.7212  -10.2141   20.3051 C   0  0  0  0  0  0
  -21.6854   -6.0734   22.5273 C   0  0  0  0  0  0
  -21.4022   -6.5635   23.8213 C   0  0  0  0  0  0
  -21.3659   -5.6782   24.9173 C   0  0  0  0  0  0
  -21.6039   -4.3046   24.7215 C   0  0  0  0  0  0
  -21.8824   -3.8146   23.4336 C   0  0  0  0  0  0
  -21.9198   -4.6965   22.3398 C   0  0  0  0  0  0
  -22.7866  -13.5261   21.1826 C   0  0  0  0  0  0
  -22.1659   -4.2155   21.0972 F   0  0  0  0  0  0
  -21.5626   -3.4530   25.7726 F   0  0  0  0  0  0
  -30.0368  -13.2853   20.4534 N   0  0  0  0  0  0
  -26.3030  -12.9313   20.3359 N   0  0  0  0  0  0
  -25.9311  -11.6479   20.5753 N   0  0  0  0  0  0
  -22.0482  -12.8281   22.0386 N   0  0  0  0  0  0
  -25.4359  -15.1876   20.4086 N   0  0  0  0  0  0
  -31.8002  -14.6923   20.0959 O   0  0  0  0  0  0
  -21.6635   -6.8881   21.4236 O   0  0  0  0  0  0
  -22.3560  -14.5565   20.6666 O   0  0  0  0  0  0
  -24.6336  -31.8737   23.2147 C   0  0  0  0  0  0
  -25.9180  -32.4874   23.8453 C   0  0  1  0  0  0
  -27.2424  -27.4207   20.0872 C   0  0  0  0  0  0
  -25.5996  -33.8656   24.2384 N   0  0  0  0  0  0
  -23.4379  -30.4984   21.5684 C   0  0  2  0  0  0
  -24.8583  -28.9553   20.1228 C   0  0  0  0  0  0
  -22.7752  -29.4848   22.5242 C   0  0  0  0  0  0
  -17.9924  -28.1205   22.8718 C   0  0  0  0  0  0
  -24.1489  -36.7323   23.2631 C   0  0  0  0  0  0
  -25.9548  -30.8303   21.3662 C   0  0  0  0  0  0
  -26.0216  -29.4616   20.7137 C   0  0  0  0  0  0
  -27.2119  -28.7000   20.6937 C   0  0  0  0  0  0
  -26.0522  -26.9257   19.5032 C   0  0  0  0  0  0
  -24.8681  -27.6872   19.5171 C   0  0  0  0  0  0
  -23.6267  -29.8274   20.1804 C   0  0  0  0  0  0
  -25.4107  -36.3130   24.0338 C   0  0  1  0  0  0
  -20.4781  -28.4590   22.7834 C   0  0  2  0  0  0
  -20.6901  -26.9618   22.5314 C   0  0  0  0  0  0
  -19.5533  -26.4593   21.6158 C   0  0  0  0  0  0
  -18.1554  -26.7519   22.2049 C   0  0  0  0  0  0
  -19.1135  -28.8975   23.2535 C   0  0  0  0  0  0
  -18.9335  -30.1479   23.8790 C   0  0  0  0  0  0
  -17.6351  -30.6502   24.0821 C   0  0  0  0  0  0
  -25.9053  -34.9499   23.5141 C   0  0  0  0  0  0
  -16.5187  -29.8965   23.6755 C   0  0  0  0  0  0
  -16.6970  -28.6303   23.0869 C   0  0  0  0  0  0
  -26.4528  -31.6609   25.0770 C   0  0  0  0  0  0
  -25.3762  -31.3706   26.1486 C   0  0  0  0  0  0
  -27.0342  -30.3048   24.6123 C   0  0  0  0  0  0
  -27.6107  -32.4297   25.7551 C   0  0  0  0  0  0
  -27.5583  -37.1827   24.8466 C   0  0  0  0  0  0
  -21.4538  -29.4472   22.4007 N   0  0  0  0  0  0
  -26.4296  -37.3813   23.9411 N   0  0  0  0  0  0
  -24.6972  -31.0815   22.1090 N   0  0  0  0  0  0
  -23.4242  -28.7629   23.2825 O   0  0  0  0  0  0
  -28.4342  -26.7156   20.0971 O   0  0  0  0  0  0
  -26.5575  -34.8943   22.4679 O   0  0  0  0  0  0
  -23.5500  -32.1491   23.7498 O   0  0  0  0  0  0
  -27.9685  -20.0243   21.7577 C   0  0  0  0  0  0
  -29.9861  -19.9405   20.4582 C   0  0  0  0  0  0
  -28.9865  -19.2487   21.1695 C   0  0  0  0  0  0
  -27.9738  -21.4305   21.6215 C   0  0  0  0  0  0
  -29.0174  -22.0320   20.8720 C   0  0  0  0  0  0
  -26.8861  -22.2246   22.3302 C   0  0  0  0  0  0
  -28.9254  -17.7167   21.2968 C   0  0  0  0  0  0
  -30.2260  -16.9043   21.0567 C   0  0  0  0  0  0
  -28.5358  -25.4268   19.4609 C   0  0  0  0  0  0
  -28.0873  -24.2263   20.3384 C   0  0  0  0  0  0
  -30.0032  -21.2878   20.3245 N   0  0  0  0  0  0
  -29.9614  -15.4579   21.1434 N   0  0  0  0  0  0
  -29.2051  -23.3905   20.6727 O   0  0  0  0  0  0
  -31.4750  -12.4187   19.1300 H   0  0  0  0  0  0
  -30.3396  -11.2955   19.8221 H   0  0  0  0  0  0
  -29.7417  -11.7744   17.4358 H   0  0  0  0  0  0
  -29.6689  -13.4874   17.7709 H   0  0  0  0  0  0
  -27.8340  -11.3058   18.8183 H   0  0  0  0  0  0
  -27.3707  -12.6348   17.7887 H   0  0  0  0  0  0
  -27.7119  -14.2505   19.5812 H   0  0  0  0  0  0
  -28.6821  -11.9327   21.3282 H   0  0  0  0  0  0
  -28.4600  -13.5615   21.8850 H   0  0  0  0  0  0
  -25.2745   -9.5713   22.4753 H   0  0  0  0  0  0
  -23.9996   -7.4653   22.7478 H   0  0  0  0  0  0
  -21.0819   -8.8770   19.8954 H   0  0  0  0  0  0
  -22.3662  -10.9676   19.6162 H   0  0  0  0  0  0
  -21.2017   -7.6147   23.9721 H   0  0  0  0  0  0
  -21.1469   -6.0506   25.9071 H   0  0  0  0  0  0
  -22.0606   -2.7608   23.2827 H   0  0  0  0  0  0
  -22.4052  -11.9938   22.4805 H   0  0  0  0  0  0
  -21.1103  -13.1346   22.2564 H   0  0  0  0  0  0
  -24.6698  -15.8447   20.5078 H   0  0  0  0  0  0
  -26.2838  -15.6197   20.0643 H   0  0  0  0  0  0
  -26.7270  -32.5565   23.1231 H   0  0  0  0  0  0
  -25.0194  -33.9814   25.0559 H   0  0  0  0  0  0
  -22.7388  -31.3255   21.4232 H   0  0  0  0  0  0
  -23.3752  -35.9658   23.3306 H   0  0  0  0  0  0
  -24.3590  -36.8920   22.2044 H   0  0  0  0  0  0
  -23.7241  -37.6534   23.6627 H   0  0  0  0  0  0
  -26.0637  -31.5931   20.5943 H   0  0  0  0  0  0
  -26.8472  -30.8877   21.9784 H   0  0  0  0  0  0
  -28.1128  -29.0911   21.1457 H   0  0  0  0  0  0
  -26.0081  -25.9527   19.0372 H   0  0  0  0  0  0
  -23.9701  -27.2882   19.0659 H   0  0  0  0  0  0
  -23.7349  -30.6014   19.4197 H   0  0  0  0  0  0
  -22.7444  -29.2529   19.8918 H   0  0  0  0  0  0
  -25.1280  -36.2006   25.0831 H   0  0  0  0  0  0
  -20.1604  -28.6807   21.7632 H   0  0  0  0  0  0
  -20.6763  -26.4232   23.4795 H   0  0  0  0  0  0
  -21.6597  -26.7679   22.0723 H   0  0  0  0  0  0
  -19.6583  -25.3887   21.4369 H   0  0  0  0  0  0
  -19.6363  -26.9231   20.6319 H   0  0  0  0  0  0
  -17.3995  -26.6309   21.4278 H   0  0  0  0  0  0
  -17.9297  -26.0014   22.9639 H   0  0  0  0  0  0
  -19.7890  -30.7495   24.1537 H   0  0  0  0  0  0
  -17.4956  -31.6205   24.5393 H   0  0  0  0  0  0
  -15.5207  -30.2848   23.8281 H   0  0  0  0  0  0
  -15.8303  -28.0546   22.7910 H   0  0  0  0  0  0
  -24.5936  -30.7071   25.7791 H   0  0  0  0  0  0
  -24.8956  -32.2860   26.4944 H   0  0  0  0  0  0
  -25.8091  -30.8847   27.0237 H   0  0  0  0  0  0
  -26.2882  -29.6826   24.1165 H   0  0  0  0  0  0
  -27.4101  -29.7268   25.4575 H   0  0  0  0  0  0
  -27.8725  -30.4366   23.9279 H   0  0  0  0  0  0
  -27.2740  -33.3584   26.2165 H   0  0  0  0  0  0
  -28.3911  -32.6871   25.0376 H   0  0  0  0  0  0
  -28.0778  -31.8382   26.5437 H   0  0  0  0  0  0
  -28.2608  -38.0116   24.7511 H   0  0  0  0  0  0
  -28.1070  -36.2651   24.6293 H   0  0  0  0  0  0
  -27.2301  -37.1480   25.8869 H   0  0  0  0  0  0
  -21.0734  -30.1621   21.7959 H   0  0  0  0  0  0
  -26.0187  -38.2896   24.1405 H   0  0  0  0  0  0
  -27.1823  -19.5360   22.3175 H   0  0  0  0  0  0
  -30.7922  -19.4138   19.9711 H   0  0  0  0  0  0
  -27.3143  -23.0412   22.9124 H   0  0  0  0  0  0
  -26.3255  -21.5961   23.0231 H   0  0  0  0  0  0
  -26.1699  -22.6309   21.6163 H   0  0  0  0  0  0
  -28.1558  -17.3710   20.6056 H   0  0  0  0  0  0
  -28.5494  -17.4837   22.2953 H   0  0  0  0  0  0
  -30.9937  -17.1798   21.7815 H   0  0  0  0  0  0
  -30.6234  -17.1260   20.0658 H   0  0  0  0  0  0
  -28.0257  -25.4148   18.4976 H   0  0  0  0  0  0
  -29.5857  -25.2937   19.1994 H   0  0  0  0  0  0
  -27.3432  -23.6471   19.7903 H   0  0  0  0  0  0
  -27.6126  -24.6003   21.2443 H   0  0  0  0  0  0
  -29.0712  -15.1795   21.5277 H   0  0  0  0  0  0
  1 25  1  0  0  0
  1 30  2  0  0  0
  1 82  1  0  0  0
  2  3  1  0  0  0
  2 25  1  0  0  0
  2 84  1  0  0  0
  2 85  1  0  0  0
  3  4  1  0  0  0
  3 86  1  0  0  0
  3 87  1  0  0  0
  4  5  1  0  0  0
  4 88  1  0  0  0
  4 89  1  0  0  0
  5  6  1  0  0  0
  5 26  1  0  0  0
  5 90  1  0  0  0
  6 25  1  0  0  0
  6 91  1  0  0  0
  6 92  1  0  0  0
  7  8  2  0  0  0
  7 26  1  0  0  0
  7 29  1  0  0  0
  8  9  1  0  0  0
  8 22  1  0  0  0
  9 10  1  0  0  0
  9 27  2  0  0  0
 10 11  2  0  0  0
 10 15  1  0  0  0
 11 12  1  0  0  0
 11 93  1  0  0  0
 12 13  2  0  0  0
 12 94  1  0  0  0
 13 14  1  0  0  0
 13 31  1  0  0  0
 14 15  2  0  0  0
 14 95  1  0  0  0
 15 96  1  0  0  0
 16 17  2  0  0  0
 16 21  1  0  0  0
 16 31  1  0  0  0
 17 18  1  0  0  0
 17 97  1  0  0  0
 18 19  2  0  0  0
 18 98  1  0  0  0
 19 20  1  0  0  0
 19 24  1  0  0  0
 20 21  2  0  0  0
 20 99  1  0  0  0
 21 23  1  0  0  0
 22 28  1  0  0  0
 22 32  2  0  0  0
 26 27  1  0  0  0
 28100  1  0  0  0
 28101  1  0  0  0
 29102  1  0  0  0
 29103  1  0  0  0
 33 34  1  0  0  0
 33 66  1  0  0  0
 33 70  2  0  0  0
 34 36  1  0  0  0
 34 59  1  0  0  0
 34104  1  0  0  0
 35 44  2  0  0  0
 35 45  1  0  0  0
 35 68  1  0  0  0
 36 56  1  0  0  0
 36105  1  0  0  0
 37 39  1  0  0  0
 37 47  1  0  0  0
 37 66  1  0  0  0
 37106  1  0  0  0
 38 43  2  0  0  0
 38 46  1  0  0  0
 38 47  1  0  0  0
 39 64  1  0  0  0
 39 67  2  0  0  0
 40 52  1  0  0  0
 40 53  2  0  0  0
 40 58  1  0  0  0
 41107  1  0  0  0
 41108  1  0  0  0
 41109  1  0  0  0
 41 48  1  0  0  0
 42 43  1  0  0  0
 42 66  1  0  0  0
 42110  1  0  0  0
 42111  1  0  0  0
 43 44  1  0  0  0
 44112  1  0  0  0
 45 46  2  0  0  0
 45113  1  0  0  0
 46114  1  0  0  0
 47115  1  0  0  0
 47116  1  0  0  0
 48 56  1  0  0  0
 48 65  1  0  0  0
 48117  1  0  0  0
 49 50  1  0  0  0
 49 53  1  0  0  0
 49 64  1  0  0  0
 49118  1  0  0  0
 50 51  1  0  0  0
 50119  1  0  0  0
 50120  1  0  0  0
 51 52  1  0  0  0
 51121  1  0  0  0
 51122  1  0  0  0
 52123  1  0  0  0
 52124  1  0  0  0
 53 54  1  0  0  0
 54 55  2  0  0  0
 54125  1  0  0  0
 55 57  1  0  0  0
 55126  1  0  0  0
 56 69  2  0  0  0
 57 58  2  0  0  0
 57127  1  0  0  0
 58128  1  0  0  0
 59 60  1  0  0  0
 59 61  1  0  0  0
 59 62  1  0  0  0
 60129  1  0  0  0
 60130  1  0  0  0
 60131  1  0  0  0
 61132  1  0  0  0
 61133  1  0  0  0
 61134  1  0  0  0
 62135  1  0  0  0
 62136  1  0  0  0
 62137  1  0  0  0
 63 65  1  0  0  0
 63138  1  0  0  0
 63139  1  0  0  0
 63140  1  0  0  0
 64141  1  0  0  0
 65142  1  0  0  0
 68 79  1  0  0  0
 71 73  2  0  0  0
 71 74  1  0  0  0
 71143  1  0  0  0
 72 73  1  0  0  0
 72 81  2  0  0  0
 72144  1  0  0  0
 73 77  1  0  0  0
 74 75  2  0  0  0
 74 76  1  0  0  0
 75 81  1  0  0  0
 75 83  1  0  0  0
 76145  1  0  0  0
 76146  1  0  0  0
 76147  1  0  0  0
 77 78  1  0  0  0
 77148  1  0  0  0
 77149  1  0  0  0
 78 82  1  0  0  0
 78150  1  0  0  0
 78151  1  0  0  0
 79 80  1  0  0  0
 79152  1  0  0  0
 79153  1  0  0  0
 80 83  1  0  0  0
 80154  1  0  0  0
 80155  1  0  0  0
 82156  1  0  0  0
M  ISO  4   1 100  68 101  79 101  82 100
M  END
> <chiral flag>
0

> <version>
0

> <s_m_source_file>
/data/baiqing/PycharmProjects/Reinvent-master-3.2/result/LINK_invent/BTK/process_docking_weight1_custom_sum_contain_oxygen_bond_distance_aromatic_linkinvent_7_9_3/rearranged_h_0158.sdf

> <i_m_source_file_index>
71

> <r_mmod_Potential_Energy-OPLS-2005>
-151.281066894531

> <r_mmod_Stretch_Energy-OPLS-2005>
36.1815223693848

> <r_mmod_Bend_Energy-OPLS-2005>
218.245483398438

> <r_mmod_Torsional_Energy-OPLS-2005>
211.946807861328

> <r_mmod_Improper_Torsional_Energy-OPLS-2005>
5.68691158294678

> <r_mmod_Van_der_Waal_Energy-OPLS-2005>
163.611099243164

> <r_mmod_Electrostatic_Energy-OPLS-2005>
-580.777770996094

> <r_mmod_Solvation_Energy-OPLS-2005>
-238.843383789062

> <b_mmod_Minimization_Converged-OPLS-2005>
0

> <r_mmod_RMS_Derivative-OPLS-2005>
1.62482511997223

$$$$
71
                    3D
 Structure written by MMmdl.
160169  0  0  1  0            999 V2000
  -30.5904  -14.8737   20.4418 C   0  0  0  0  0  0
  -30.4313  -12.5415   19.4939 C   0  0  0  0  0  0
  -29.5145  -12.5185   18.2510 C   0  0  0  0  0  0
  -28.0490  -12.3105   18.6736 C   0  0  0  0  0  0
  -27.6318  -13.2422   19.8414 C   0  0  2  0  0  0
  -28.6747  -13.2563   20.9791 C   0  0  0  0  0  0
  -25.2467  -13.8208   20.5706 C   0  0  0  0  0  0
  -24.1784  -13.0438   20.9225 C   0  0  0  0  0  0
  -24.6394  -11.6922   20.8771 C   0  0  0  0  0  0
  -23.9085  -10.4295   21.0417 C   0  0  0  0  0  0
  -24.3634   -9.4210   21.9189 C   0  0  0  0  0  0
  -23.6299   -8.2251   22.0763 C   0  0  0  0  0  0
  -22.4281   -8.0294   21.3559 C   0  0  0  0  0  0
  -21.9932   -9.0268   20.4655 C   0  0  0  0  0  0
  -22.7261  -10.2140   20.3063 C   0  0  0  0  0  0
  -21.6855   -6.0748   22.5284 C   0  0  0  0  0  0
  -21.4019   -6.5652   23.8218 C   0  0  0  0  0  0
  -21.3655   -5.6800   24.9177 C   0  0  0  0  0  0
  -21.6035   -4.3059   24.7228 C   0  0  0  0  0  0
  -21.8817   -3.8160   23.4346 C   0  0  0  0  0  0
  -21.9192   -4.6979   22.3404 C   0  0  0  0  0  0
  -22.7798  -13.5204   21.1875 C   0  0  0  0  0  0
  -22.1656   -4.2163   21.0981 F   0  0  0  0  0  0
  -21.5628   -3.4541   25.7741 F   0  0  0  0  0  0
  -29.9587  -13.6390   20.3808 N   0  0  0  0  0  0
  -26.2895  -12.9431   20.3273 N   0  0  0  0  0  0
  -25.9325  -11.6566   20.5767 N   0  0  0  0  0  0
  -22.0453  -12.8196   22.0428 N   0  0  0  0  0  0
  -25.4117  -15.1935   20.4087 N   0  0  0  0  0  0
  -31.7944  -14.9140   20.1692 O   0  0  0  0  0  0
  -21.6642   -6.8895   21.4245 O   0  0  0  0  0  0
  -22.3486  -14.5516   20.6718 O   0  0  0  0  0  0
  -24.6403  -31.8489   23.1914 C   0  0  0  0  0  0
  -25.9196  -32.4722   23.8295 C   0  0  1  0  0  0
  -27.2154  -27.1668   20.1566 C   0  0  0  0  0  0
  -25.5952  -33.8526   24.2213 N   0  0  0  0  0  0
  -23.4415  -30.4688   21.5357 C   0  0  2  0  0  0
  -24.8896  -28.8939   20.1186 C   0  0  0  0  0  0
  -22.7557  -29.4565   22.4878 C   0  0  0  0  0  0
  -18.0291  -28.1375   22.8476 C   0  0  0  0  0  0
  -24.1490  -36.7275   23.2635 C   0  0  0  0  0  0
  -25.9939  -30.7305   21.3864 C   0  0  0  0  0  0
  -26.0636  -29.3406   20.7379 C   0  0  0  0  0  0
  -27.2292  -28.4920   20.7404 C   0  0  0  0  0  0
  -26.0245  -26.8196   19.4900 C   0  0  0  0  0  0
  -24.8808  -27.6457   19.4782 C   0  0  0  0  0  0
  -23.6664  -29.7944   20.1560 C   0  0  0  0  0  0
  -25.4126  -36.3056   24.0306 C   0  0  1  0  0  0
  -20.5912  -28.3708   23.1238 C   0  0  2  0  0  0
  -20.6789  -26.9406   22.5404 C   0  0  0  0  0  0
  -19.5753  -26.6359   21.5217 C   0  0  0  0  0  0
  -18.1932  -26.7915   22.1620 C   0  0  0  0  0  0
  -19.1556  -28.8857   23.2843 C   0  0  0  0  0  0
  -18.9476  -30.1459   23.8860 C   0  0  0  0  0  0
  -17.6472  -30.6582   24.0554 C   0  0  0  0  0  0
  -25.9067  -34.9424   23.5065 C   0  0  0  0  0  0
  -16.5361  -29.9072   23.6332 C   0  0  0  0  0  0
  -16.7281  -28.6494   23.0349 C   0  0  0  0  0  0
  -26.4528  -31.6581   25.0730 C   0  0  0  0  0  0
  -25.3719  -31.3770   26.1437 C   0  0  0  0  0  0
  -27.0399  -30.2974   24.6308 C   0  0  0  0  0  0
  -27.6056  -32.4363   25.7506 C   0  0  0  0  0  0
  -27.5581  -37.1790   24.8455 C   0  0  0  0  0  0
  -21.4258  -29.3049   22.3634 N   0  0  0  0  0  0
  -26.4288  -37.3774   23.9409 N   0  0  0  0  0  0
  -24.7112  -31.0379   22.0926 N   0  0  0  0  0  0
  -23.4223  -28.8112   23.3013 O   0  0  0  0  0  0
  -28.3121  -26.2487   20.1248 O   0  0  0  0  0  0
  -26.5637  -34.8910   22.4631 O   0  0  0  0  0  0
  -23.5530  -32.1343   23.7171 O   0  0  0  0  0  0
  -28.0504  -20.8839   20.8226 C   0  0  0  0  0  0
  -30.4407  -20.0558   19.7680 C   0  0  0  0  0  0
  -28.7661  -21.9366   20.1418 C   0  0  0  0  0  0
  -28.4867  -19.4981   20.9666 C   0  0  0  0  0  0
  -30.0043  -21.4299   19.6211 C   0  0  0  0  0  0
  -29.7191  -19.0038   20.4219 C   0  0  0  0  0  0
  -26.7352  -23.2022   19.1330 C   0  0  0  0  0  0
  -27.8692  -23.6588   18.2692 C   0  0  0  0  0  0
  -28.1136  -23.3960   19.7454 C   0  0  0  0  0  0
  -27.5963  -18.5339   21.7267 C   0  0  0  0  0  0
  -30.8948  -22.3550   18.8109 C   0  0  0  0  0  0
  -30.4320  -17.5314   20.6094 C   0  0  0  0  0  0
  -28.2972  -24.7782   20.6199 C   0  0  0  0  0  0
  -29.8662  -16.0762   20.6030 N   0  0  0  0  0  0
  -31.4680  -12.6782   19.1861 H   0  0  0  0  0  0
  -30.4009  -11.5848   20.0184 H   0  0  0  0  0  0
  -29.8232  -11.7290   17.5652 H   0  0  0  0  0  0
  -29.6105  -13.4568   17.7009 H   0  0  0  0  0  0
  -27.9421  -11.2691   18.9801 H   0  0  0  0  0  0
  -27.3845  -12.4454   17.8203 H   0  0  0  0  0  0
  -27.6020  -14.2458   19.4177 H   0  0  0  0  0  0
  -28.7436  -12.2812   21.4641 H   0  0  0  0  0  0
  -28.3875  -13.9710   21.7518 H   0  0  0  0  0  0
  -25.2775   -9.5673   22.4772 H   0  0  0  0  0  0
  -24.0007   -7.4634   22.7484 H   0  0  0  0  0  0
  -21.0872   -8.8783   19.8952 H   0  0  0  0  0  0
  -22.3724  -10.9682   19.6183 H   0  0  0  0  0  0
  -21.2017   -7.6159   23.9723 H   0  0  0  0  0  0
  -21.1474   -6.0533   25.9076 H   0  0  0  0  0  0
  -22.0601   -2.7623   23.2845 H   0  0  0  0  0  0
  -22.4080  -11.9862   22.4813 H   0  0  0  0  0  0
  -21.1065  -13.1217   22.2640 H   0  0  0  0  0  0
  -24.6345  -15.8390   20.5023 H   0  0  0  0  0  0
  -26.2442  -15.6300   20.0350 H   0  0  0  0  0  0
  -26.7274  -32.5361   23.1038 H   0  0  0  0  0  0
  -25.0141  -33.9656   25.0393 H   0  0  0  0  0  0
  -22.7420  -31.2941   21.3834 H   0  0  0  0  0  0
  -23.3772  -35.9587   23.3280 H   0  0  0  0  0  0
  -24.3575  -36.8935   22.2051 H   0  0  0  0  0  0
  -23.7227  -37.6453   23.6695 H   0  0  0  0  0  0
  -26.1379  -31.4817   20.6089 H   0  0  0  0  0  0
  -26.8681  -30.7863   22.0233 H   0  0  0  0  0  0
  -28.1321  -28.8307   21.2283 H   0  0  0  0  0  0
  -25.9745  -25.8929   18.9468 H   0  0  0  0  0  0
  -23.9903  -27.3108   18.9634 H   0  0  0  0  0  0
  -23.7993  -30.5651   19.3955 H   0  0  0  0  0  0
  -22.7825  -29.2317   19.8502 H   0  0  0  0  0  0
  -25.1313  -36.1879   25.0797 H   0  0  0  0  0  0
  -20.9986  -28.3289   24.1365 H   0  0  0  0  0  0
  -20.5682  -26.2315   23.3624 H   0  0  0  0  0  0
  -21.6655  -26.7408   22.1197 H   0  0  0  0  0  0
  -19.6910  -25.6266   21.1246 H   0  0  0  0  0  0
  -19.6686  -27.3176   20.6753 H   0  0  0  0  0  0
  -17.4210  -26.6666   21.4009 H   0  0  0  0  0  0
  -18.0308  -26.0052   22.9005 H   0  0  0  0  0  0
  -19.7953  -30.7284   24.2198 H   0  0  0  0  0  0
  -17.5031  -31.6255   24.5171 H   0  0  0  0  0  0
  -15.5364  -30.2964   23.7684 H   0  0  0  0  0  0
  -15.8675  -28.0817   22.7053 H   0  0  0  0  0  0
  -24.5889  -30.7109   25.7792 H   0  0  0  0  0  0
  -24.8912  -32.2946   26.4830 H   0  0  0  0  0  0
  -25.8012  -30.8980   27.0241 H   0  0  0  0  0  0
  -26.3008  -29.6688   24.1315 H   0  0  0  0  0  0
  -27.4015  -29.7285   25.4892 H   0  0  0  0  0  0
  -27.8920  -30.4235   23.9624 H   0  0  0  0  0  0
  -27.2639  -33.3697   26.2004 H   0  0  0  0  0  0
  -28.3893  -32.6874   25.0343 H   0  0  0  0  0  0
  -28.0682  -31.8533   26.5483 H   0  0  0  0  0  0
  -28.2580  -38.0107   24.7543 H   0  0  0  0  0  0
  -28.1091  -36.2635   24.6240 H   0  0  0  0  0  0
  -27.2288  -37.1400   25.8853 H   0  0  0  0  0  0
  -20.9468  -29.8795   21.6842 H   0  0  0  0  0  0
  -26.0151  -38.2830   24.1464 H   0  0  0  0  0  0
  -27.0797  -21.1431   21.2218 H   0  0  0  0  0  0
  -31.3996  -19.7949   19.3406 H   0  0  0  0  0  0
  -26.3772  -22.1913   18.9470 H   0  0  0  0  0  0
  -25.9605  -23.8955   19.4381 H   0  0  0  0  0  0
  -27.8437  -24.6925   17.9318 H   0  0  0  0  0  0
  -28.2701  -22.9463   17.5516 H   0  0  0  0  0  0
  -27.0765  -17.8699   21.0346 H   0  0  0  0  0  0
  -26.8478  -19.0628   22.3174 H   0  0  0  0  0  0
  -28.1846  -17.9230   22.4119 H   0  0  0  0  0  0
  -31.9401  -22.0452   18.8549 H   0  0  0  0  0  0
  -30.8406  -23.3830   19.1696 H   0  0  0  0  0  0
  -30.5892  -22.3403   17.7645 H   0  0  0  0  0  0
  -30.9605  -17.6124   21.5601 H   0  0  0  0  0  0
  -31.2349  -17.5174   19.8709 H   0  0  0  0  0  0
  -29.2758  -24.6706   21.0884 H   0  0  0  0  0  0
  -27.5982  -24.7229   21.4542 H   0  0  0  0  0  0
  -28.8764  -15.9802   20.7692 H   0  0  0  0  0  0
  1 25  1  0  0  0
  1 30  2  0  0  0
  1 84  1  0  0  0
  2  3  1  0  0  0
  2 25  1  0  0  0
  2 85  1  0  0  0
  2 86  1  0  0  0
  3  4  1  0  0  0
  3 87  1  0  0  0
  3 88  1  0  0  0
  4  5  1  0  0  0
  4 89  1  0  0  0
  4 90  1  0  0  0
  5  6  1  0  0  0
  5 26  1  0  0  0
  5 91  1  0  0  0
  6 25  1  0  0  0
  6 92  1  0  0  0
  6 93  1  0  0  0
  7  8  2  0  0  0
  7 26  1  0  0  0
  7 29  1  0  0  0
  8  9  1  0  0  0
  8 22  1  0  0  0
  9 10  1  0  0  0
  9 27  2  0  0  0
 10 11  2  0  0  0
 10 15  1  0  0  0
 11 12  1  0  0  0
 11 94  1  0  0  0
 12 13  2  0  0  0
 12 95  1  0  0  0
 13 14  1  0  0  0
 13 31  1  0  0  0
 14 15  2  0  0  0
 14 96  1  0  0  0
 15 97  1  0  0  0
 16 17  2  0  0  0
 16 21  1  0  0  0
 16 31  1  0  0  0
 17 18  1  0  0  0
 17 98  1  0  0  0
 18 19  2  0  0  0
 18 99  1  0  0  0
 19 20  1  0  0  0
 19 24  1  0  0  0
 20 21  2  0  0  0
 20100  1  0  0  0
 21 23  1  0  0  0
 22 28  1  0  0  0
 22 32  2  0  0  0
 26 27  1  0  0  0
 28101  1  0  0  0
 28102  1  0  0  0
 29103  1  0  0  0
 29104  1  0  0  0
 33 34  1  0  0  0
 33 66  1  0  0  0
 33 70  2  0  0  0
 34 36  1  0  0  0
 34 59  1  0  0  0
 34105  1  0  0  0
 35 44  2  0  0  0
 35 45  1  0  0  0
 35 68  1  0  0  0
 36 56  1  0  0  0
 36106  1  0  0  0
 37 39  1  0  0  0
 37 47  1  0  0  0
 37 66  1  0  0  0
 37107  1  0  0  0
 38 43  2  0  0  0
 38 46  1  0  0  0
 38 47  1  0  0  0
 39 64  1  0  0  0
 39 67  2  0  0  0
 40 52  1  0  0  0
 40 53  2  0  0  0
 40 58  1  0  0  0
 41108  1  0  0  0
 41109  1  0  0  0
 41110  1  0  0  0
 41 48  1  0  0  0
 42 43  1  0  0  0
 42 66  1  0  0  0
 42111  1  0  0  0
 42112  1  0  0  0
 43 44  1  0  0  0
 44113  1  0  0  0
 45 46  2  0  0  0
 45114  1  0  0  0
 46115  1  0  0  0
 47116  1  0  0  0
 47117  1  0  0  0
 48 56  1  0  0  0
 48 65  1  0  0  0
 48118  1  0  0  0
 49 50  1  0  0  0
 49 53  1  0  0  0
 49 64  1  0  0  0
 49119  1  0  0  0
 50 51  1  0  0  0
 50120  1  0  0  0
 50121  1  0  0  0
 51 52  1  0  0  0
 51122  1  0  0  0
 51123  1  0  0  0
 52124  1  0  0  0
 52125  1  0  0  0
 53 54  1  0  0  0
 54 55  2  0  0  0
 54126  1  0  0  0
 55 57  1  0  0  0
 55127  1  0  0  0
 56 69  2  0  0  0
 57 58  2  0  0  0
 57128  1  0  0  0
 58129  1  0  0  0
 59 60  1  0  0  0
 59 61  1  0  0  0
 59 62  1  0  0  0
 60130  1  0  0  0
 60131  1  0  0  0
 60132  1  0  0  0
 61133  1  0  0  0
 61134  1  0  0  0
 61135  1  0  0  0
 62136  1  0  0  0
 62137  1  0  0  0
 62138  1  0  0  0
 63 65  1  0  0  0
 63139  1  0  0  0
 63140  1  0  0  0
 63141  1  0  0  0
 64142  1  0  0  0
 65143  1  0  0  0
 68 83  1  0  0  0
 71 73  2  0  0  0
 71 74  1  0  0  0
 71144  1  0  0  0
 72 75  2  0  0  0
 72 76  1  0  0  0
 72145  1  0  0  0
 73 75  1  0  0  0
 73 79  1  0  0  0
 74 76  2  0  0  0
 74 80  1  0  0  0
 75 81  1  0  0  0
 76 82  1  0  0  0
 77 78  1  0  0  0
 77 79  1  0  0  0
 77146  1  0  0  0
 77147  1  0  0  0
 78 79  1  0  0  0
 78148  1  0  0  0
 78149  1  0  0  0
 79 83  1  0  0  0
 80150  1  0  0  0
 80151  1  0  0  0
 80152  1  0  0  0
 81153  1  0  0  0
 81154  1  0  0  0
 81155  1  0  0  0
 82 84  1  0  0  0
 82156  1  0  0  0
 82157  1  0  0  0
 83158  1  0  0  0
 83159  1  0  0  0
 84160  1  0  0  0
M  ISO  4   1 100  68 101  83 101  84 100
M  END
> <chiral flag>
0

> <version>
0

> <s_m_source_file>
/data/baiqing/PycharmProjects/Reinvent-master-3.2/result/LINK_invent/BTK/process_docking_weight1_custom_sum_contain_oxygen_bond_distance_aromatic_linkinvent_7_9_3/rearranged_h_0158.sdf

> <i_m_source_file_index>
72

> <r_mmod_Potential_Energy-OPLS-2005>
403.345886230469

> <r_mmod_Stretch_Energy-OPLS-2005>
209.303955078125

> <r_mmod_Bend_Energy-OPLS-2005>
269.656311035156

> <r_mmod_Torsional_Energy-OPLS-2005>
262.206207275391

> <r_mmod_Improper_Torsional_Energy-OPLS-2005>
7.23050212860107

> <r_mmod_Van_der_Waal_Energy-OPLS-2005>
125.92399597168

> <r_mmod_Electrostatic_Energy-OPLS-2005>
-413.140533447266

> <r_mmod_Solvation_Energy-OPLS-2005>
-203.798278808594

> <b_mmod_Minimization_Converged-OPLS-2005>
0

> <r_mmod_RMS_Derivative-OPLS-2005>
2.03701400756836

$$$$
72
                    3D
 Structure written by MMmdl.
176185  0  0  1  0            999 V2000
  -30.7940  -14.3490   20.7157 C   0  0  0  0  0  0
  -30.4230  -12.3008   19.3916 C   0  0  0  0  0  0
  -29.4860  -12.5311   18.1923 C   0  0  0  0  0  0
  -28.0104  -12.3944   18.6103 C   0  0  0  0  0  0
  -27.6720  -13.2068   19.8871 C   0  0  2  0  0  0
  -28.7121  -12.9507   21.0006 C   0  0  0  0  0  0
  -25.2581  -13.8107   20.5555 C   0  0  0  0  0  0
  -24.1865  -13.0413   20.9155 C   0  0  0  0  0  0
  -24.6436  -11.6891   20.8771 C   0  0  0  0  0  0
  -23.9091  -10.4285   21.0434 C   0  0  0  0  0  0
  -24.3635   -9.4194   21.9210 C   0  0  0  0  0  0
  -23.6298   -8.2239   22.0761 C   0  0  0  0  0  0
  -22.4281   -8.0287   21.3535 C   0  0  0  0  0  0
  -21.9936   -9.0272   20.4643 C   0  0  0  0  0  0
  -22.7272  -10.2148   20.3072 C   0  0  0  0  0  0
  -21.6851   -6.0748   22.5271 C   0  0  0  0  0  0
  -21.4013   -6.5642   23.8213 C   0  0  0  0  0  0
  -21.3656   -5.6792   24.9175 C   0  0  0  0  0  0
  -21.6043   -4.3053   24.7222 C   0  0  0  0  0  0
  -21.8818   -3.8160   23.4337 C   0  0  0  0  0  0
  -21.9191   -4.6975   22.3395 C   0  0  0  0  0  0
  -22.7889  -13.5222   21.1800 C   0  0  0  0  0  0
  -22.1660   -4.2163   21.0969 F   0  0  0  0  0  0
  -21.5632   -3.4531   25.7733 F   0  0  0  0  0  0
  -30.0568  -13.2378   20.4636 N   0  0  0  0  0  0
  -26.3089  -12.9322   20.3419 N   0  0  0  0  0  0
  -25.9380  -11.6481   20.5853 N   0  0  0  0  0  0
  -22.0528  -12.8239   22.0376 N   0  0  0  0  0  0
  -25.4186  -15.1776   20.3651 N   0  0  0  0  0  0
  -31.7776  -14.6821   20.0490 O   0  0  0  0  0  0
  -21.6627   -6.8892   21.4231 O   0  0  0  0  0  0
  -22.3584  -14.5525   20.6631 O   0  0  0  0  0  0
  -24.6108  -31.8707   23.2134 C   0  0  0  0  0  0
  -25.9014  -32.4842   23.8436 C   0  0  1  0  0  0
  -27.2479  -27.4665   20.0776 C   0  0  0  0  0  0
  -25.5899  -33.8641   24.2363 N   0  0  0  0  0  0
  -23.3999  -30.4947   21.5519 C   0  0  2  0  0  0
  -24.8475  -28.9626   20.1189 C   0  0  0  0  0  0
  -22.7405  -29.4668   22.4986 C   0  0  0  0  0  0
  -18.0290  -28.1347   22.8500 C   0  0  0  0  0  0
  -24.1484  -36.7329   23.2635 C   0  0  0  0  0  0
  -25.9269  -30.8406   21.3672 C   0  0  0  0  0  0
  -26.0039  -29.4740   20.7213 C   0  0  0  0  0  0
  -27.2002  -28.7268   20.7117 C   0  0  0  0  0  0
  -26.0647  -26.9513   19.4949 C   0  0  0  0  0  0
  -24.8695  -27.6952   19.5116 C   0  0  0  0  0  0
  -23.6100  -29.8281   20.1659 C   0  0  0  0  0  0
  -25.4099  -36.3120   24.0349 C   0  0  1  0  0  0
  -20.5873  -28.3644   23.1318 C   0  0  2  0  0  0
  -20.6763  -26.9379   22.5411 C   0  0  0  0  0  0
  -19.5750  -26.6356   21.5202 C   0  0  0  0  0  0
  -18.1933  -26.7911   22.1610 C   0  0  0  0  0  0
  -19.1532  -28.8803   23.2917 C   0  0  0  0  0  0
  -18.9453  -30.1413   23.8908 C   0  0  0  0  0  0
  -17.6459  -30.6571   24.0537 C   0  0  0  0  0  0
  -25.9030  -34.9489   23.5148 C   0  0  0  0  0  0
  -16.5351  -29.9073   23.6302 C   0  0  0  0  0  0
  -16.7280  -28.6482   23.0339 C   0  0  0  0  0  0
  -26.4459  -31.6617   25.0750 C   0  0  0  0  0  0
  -25.3743  -31.3703   26.1508 C   0  0  0  0  0  0
  -27.0304  -30.3080   24.6098 C   0  0  0  0  0  0
  -27.6032  -32.4340   25.7500 C   0  0  0  0  0  0
  -27.5594  -37.1801   24.8457 C   0  0  0  0  0  0
  -21.4134  -29.3023   22.3721 N   0  0  0  0  0  0
  -26.4278  -37.3808   23.9438 N   0  0  0  0  0  0
  -24.6640  -31.0831   22.1029 N   0  0  0  0  0  0
  -23.4192  -28.8227   23.3027 O   0  0  0  0  0  0
  -28.4449  -26.7821   20.0547 O   0  0  0  0  0  0
  -26.5580  -34.8932   22.4701 O   0  0  0  0  0  0
  -23.5302  -32.1460   23.7535 O   0  0  0  0  0  0
  -29.5422  -19.9412   20.8652 C   0  0  0  0  0  0
  -26.7452  -19.9946   20.7929 C   0  0  0  0  0  0
  -28.8913  -21.0877   20.3404 C   0  0  0  0  0  0
  -27.4706  -21.0764   20.2561 C   0  0  0  0  0  0
  -27.4042  -18.8993   21.3782 C   0  0  0  0  0  0
  -28.8125  -18.8417   21.3849 C   0  0  0  0  0  0
  -31.2325  -22.2581   20.0954 C   0  0  0  0  0  0
  -31.6699  -23.7155   19.8789 C   0  0  0  0  0  0
  -29.3952  -23.6324   20.5198 C   0  0  0  0  0  0
  -29.7177  -22.2907   19.8474 C   0  0  2  0  0  0
  -26.6667  -22.1809   19.5863 C   0  0  0  0  0  0
  -26.5816  -17.7857   22.0004 C   0  0  0  0  0  0
  -31.2139  -26.6061   18.8341 C   0  0  0  0  0  0
  -31.1703  -16.1627   22.3848 C   0  0  0  0  0  0
  -30.7844  -17.4891   21.7110 C   0  0  0  0  0  0
  -28.7342  -26.0378   18.8715 C   0  0  0  0  0  0
  -30.1735  -25.4664   18.9192 C   0  0  2  0  0  0
  -30.4506  -15.0205   21.8197 N   0  0  0  0  0  0
  -30.4647  -24.5673   20.0875 N   0  3  2  0  0  0
  -29.3940  -17.7114   21.9203 O   0  0  0  0  0  0
  -31.4625  -12.4133   19.0793 H   0  0  0  0  0  0
  -30.3366  -11.2755   19.7562 H   0  0  0  0  0  0
  -29.7143  -11.8192   17.3969 H   0  0  0  0  0  0
  -29.6612  -13.5239   17.7743 H   0  0  0  0  0  0
  -27.8040  -11.3372   18.7783 H   0  0  0  0  0  0
  -27.3611  -12.7055   17.7908 H   0  0  0  0  0  0
  -27.7304  -14.2635   19.6242 H   0  0  0  0  0  0
  -28.6767  -11.9091   21.3244 H   0  0  0  0  0  0
  -28.4603  -13.5396   21.8822 H   0  0  0  0  0  0
  -25.2789   -9.5663   22.4786 H   0  0  0  0  0  0
  -23.9999   -7.4631   22.7485 H   0  0  0  0  0  0
  -21.0870   -8.8804   19.8953 H   0  0  0  0  0  0
  -22.3742  -10.9693   19.6177 H   0  0  0  0  0  0
  -21.2004   -7.6146   23.9719 H   0  0  0  0  0  0
  -21.1475   -6.0520   25.9078 H   0  0  0  0  0  0
  -22.0603   -2.7627   23.2828 H   0  0  0  0  0  0
  -22.4129  -11.9903   22.4789 H   0  0  0  0  0  0
  -21.1146  -13.1275   22.2557 H   0  0  0  0  0  0
  -24.6342  -15.8173   20.4185 H   0  0  0  0  0  0
  -26.2553  -15.6016   19.9877 H   0  0  0  0  0  0
  -26.7088  -32.5576   23.1205 H   0  0  0  0  0  0
  -25.0050  -33.9813   25.0507 H   0  0  0  0  0  0
  -22.6854  -31.3086   21.4154 H   0  0  0  0  0  0
  -23.3749  -35.9654   23.3248 H   0  0  0  0  0  0
  -24.3590  -36.9001   22.2068 H   0  0  0  0  0  0
  -23.7229  -37.6511   23.6693 H   0  0  0  0  0  0
  -26.0342  -31.6025   20.5943 H   0  0  0  0  0  0
  -26.8185  -30.8993   21.9810 H   0  0  0  0  0  0
  -28.0953  -29.1268   21.1714 H   0  0  0  0  0  0
  -26.0377  -25.9785   19.0287 H   0  0  0  0  0  0
  -23.9772  -27.2878   19.0557 H   0  0  0  0  0  0
  -23.7208  -30.6052   19.4087 H   0  0  0  0  0  0
  -22.7354  -29.2487   19.8664 H   0  0  0  0  0  0
  -25.1246  -36.1979   25.0835 H   0  0  0  0  0  0
  -20.9982  -28.3188   24.1432 H   0  0  0  0  0  0
  -20.5653  -26.2230   23.3585 H   0  0  0  0  0  0
  -21.6637  -26.7405   22.1206 H   0  0  0  0  0  0
  -19.6890  -25.6275   21.1216 H   0  0  0  0  0  0
  -19.6685  -27.3153   20.6726 H   0  0  0  0  0  0
  -17.4206  -26.6662   21.4006 H   0  0  0  0  0  0
  -18.0328  -26.0041   22.8985 H   0  0  0  0  0  0
  -19.7927  -30.7214   24.2280 H   0  0  0  0  0  0
  -17.5024  -31.6242   24.5146 H   0  0  0  0  0  0
  -15.5356  -30.2970   23.7615 H   0  0  0  0  0  0
  -15.8686  -28.0807   22.7037 H   0  0  0  0  0  0
  -24.5903  -30.7057   25.7862 H   0  0  0  0  0  0
  -24.8921  -32.2849   26.4974 H   0  0  0  0  0  0
  -25.8108  -30.8870   27.0259 H   0  0  0  0  0  0
  -26.2833  -29.6841   24.1174 H   0  0  0  0  0  0
  -27.4132  -29.7323   25.4539 H   0  0  0  0  0  0
  -27.8651  -30.4442   23.9214 H   0  0  0  0  0  0
  -27.2656  -33.3648   26.2074 H   0  0  0  0  0  0
  -28.3829  -32.6896   25.0314 H   0  0  0  0  0  0
  -28.0717  -31.8475   26.5417 H   0  0  0  0  0  0
  -28.2543  -38.0170   24.7590 H   0  0  0  0  0  0
  -28.1158  -36.2694   24.6154 H   0  0  0  0  0  0
  -27.2326  -37.1300   25.8860 H   0  0  0  0  0  0
  -20.9270  -29.8786   21.6996 H   0  0  0  0  0  0
  -26.0164  -38.2870   24.1488 H   0  0  0  0  0  0
  -30.6200  -19.9099   20.8726 H   0  0  0  0  0  0
  -25.6644  -20.0035   20.7541 H   0  0  0  0  0  0
  -31.4437  -21.9961   21.1333 H   0  0  0  0  0  0
  -31.7665  -21.5539   19.4574 H   0  0  0  0  0  0
  -32.0680  -23.8196   18.8687 H   0  0  0  0  0  0
  -32.4699  -23.9995   20.5632 H   0  0  0  0  0  0
  -29.4915  -23.5168   21.6008 H   0  0  0  0  0  0
  -28.3848  -23.9898   20.3724 H   0  0  0  0  0  0
  -29.5491  -22.3819   18.7733 H   0  0  0  0  0  0
  -25.7259  -21.7870   19.1991 H   0  0  0  0  0  0
  -27.1946  -22.6149   18.7378 H   0  0  0  0  0  0
  -26.4122  -22.9705   20.2938 H   0  0  0  0  0  0
  -25.5843  -17.7425   21.5633 H   0  0  0  0  0  0
  -26.4725  -17.9554   23.0710 H   0  0  0  0  0  0
  -27.0539  -16.8138   21.8585 H   0  0  0  0  0  0
  -31.0143  -27.2587   17.9854 H   0  0  0  0  0  0
  -32.2303  -26.2306   18.7106 H   0  0  0  0  0  0
  -31.1936  -27.2330   19.7263 H   0  0  0  0  0  0
  -30.9508  -16.2195   23.4520 H   0  0  0  0  0  0
  -32.2478  -16.0079   22.3049 H   0  0  0  0  0  0
  -31.0141  -17.4605   20.6442 H   0  0  0  0  0  0
  -31.3699  -18.2932   22.1600 H   0  0  0  0  0  0
  -28.0194  -25.2347   18.7002 H   0  0  0  0  0  0
  -28.6377  -26.7015   18.0093 H   0  0  0  0  0  0
  -30.2714  -24.8701   18.0101 H   0  0  0  0  0  0
  -29.6495  -14.6820   22.3312 H   0  0  0  0  0  0
  -30.6313  -25.1671   20.8832 H   0  0  0  0  0  0
  1 25  1  0  0  0
  1 30  2  0  0  0
  1 88  1  0  0  0
  2  3  1  0  0  0
  2 25  1  0  0  0
  2 91  1  0  0  0
  2 92  1  0  0  0
  3  4  1  0  0  0
  3 93  1  0  0  0
  3 94  1  0  0  0
  4  5  1  0  0  0
  4 95  1  0  0  0
  4 96  1  0  0  0
  5  6  1  0  0  0
  5 26  1  0  0  0
  5 97  1  0  0  0
  6 25  1  0  0  0
  6 98  1  0  0  0
  6 99  1  0  0  0
  7  8  2  0  0  0
  7 26  1  0  0  0
  7 29  1  0  0  0
  8  9  1  0  0  0
  8 22  1  0  0  0
  9 10  1  0  0  0
  9 27  2  0  0  0
 10 11  2  0  0  0
 10 15  1  0  0  0
 11 12  1  0  0  0
 11100  1  0  0  0
 12 13  2  0  0  0
 12101  1  0  0  0
 13 14  1  0  0  0
 13 31  1  0  0  0
 14 15  2  0  0  0
 14102  1  0  0  0
 15103  1  0  0  0
 16 17  2  0  0  0
 16 21  1  0  0  0
 16 31  1  0  0  0
 17 18  1  0  0  0
 17104  1  0  0  0
 18 19  2  0  0  0
 18105  1  0  0  0
 19 20  1  0  0  0
 19 24  1  0  0  0
 20 21  2  0  0  0
 20106  1  0  0  0
 21 23  1  0  0  0
 22 28  1  0  0  0
 22 32  2  0  0  0
 26 27  1  0  0  0
 28107  1  0  0  0
 28108  1  0  0  0
 29109  1  0  0  0
 29110  1  0  0  0
 33 34  1  0  0  0
 33 66  1  0  0  0
 33 70  2  0  0  0
 34 36  1  0  0  0
 34 59  1  0  0  0
 34111  1  0  0  0
 35 44  2  0  0  0
 35 45  1  0  0  0
 35 68  1  0  0  0
 36 56  1  0  0  0
 36112  1  0  0  0
 37 39  1  0  0  0
 37 47  1  0  0  0
 37 66  1  0  0  0
 37113  1  0  0  0
 38 43  2  0  0  0
 38 46  1  0  0  0
 38 47  1  0  0  0
 39 64  1  0  0  0
 39 67  2  0  0  0
 40 52  1  0  0  0
 40 53  2  0  0  0
 40 58  1  0  0  0
 41114  1  0  0  0
 41115  1  0  0  0
 41116  1  0  0  0
 41 48  1  0  0  0
 42 43  1  0  0  0
 42 66  1  0  0  0
 42117  1  0  0  0
 42118  1  0  0  0
 43 44  1  0  0  0
 44119  1  0  0  0
 45 46  2  0  0  0
 45120  1  0  0  0
 46121  1  0  0  0
 47122  1  0  0  0
 47123  1  0  0  0
 48 56  1  0  0  0
 48 65  1  0  0  0
 48124  1  0  0  0
 49 50  1  0  0  0
 49 53  1  0  0  0
 49 64  1  0  0  0
 49125  1  0  0  0
 50 51  1  0  0  0
 50126  1  0  0  0
 50127  1  0  0  0
 51 52  1  0  0  0
 51128  1  0  0  0
 51129  1  0  0  0
 52130  1  0  0  0
 52131  1  0  0  0
 53 54  1  0  0  0
 54 55  2  0  0  0
 54132  1  0  0  0
 55 57  1  0  0  0
 55133  1  0  0  0
 56 69  2  0  0  0
 57 58  2  0  0  0
 57134  1  0  0  0
 58135  1  0  0  0
 59 60  1  0  0  0
 59 61  1  0  0  0
 59 62  1  0  0  0
 60136  1  0  0  0
 60137  1  0  0  0
 60138  1  0  0  0
 61139  1  0  0  0
 61140  1  0  0  0
 61141  1  0  0  0
 62142  1  0  0  0
 62143  1  0  0  0
 62144  1  0  0  0
 63 65  1  0  0  0
 63145  1  0  0  0
 63146  1  0  0  0
 63147  1  0  0  0
 64148  1  0  0  0
 65149  1  0  0  0
 68 86  1  0  0  0
 71 73  2  0  0  0
 71 76  1  0  0  0
 71150  1  0  0  0
 72 74  2  0  0  0
 72 75  1  0  0  0
 72151  1  0  0  0
 73 74  1  0  0  0
 73 80  1  0  0  0
 74 81  1  0  0  0
 75 76  2  0  0  0
 75 82  1  0  0  0
 76 90  1  0  0  0
 77 78  1  0  0  0
 77 80  1  0  0  0
 77152  1  0  0  0
 77153  1  0  0  0
 78154  1  0  0  0
 78155  1  0  0  0
 78 89  1  0  0  0
 79 80  1  0  0  0
 79 89  1  0  0  0
 79156  1  0  0  0
 79157  1  0  0  0
 80158  1  0  0  0
 81159  1  0  0  0
 81160  1  0  0  0
 81161  1  0  0  0
 82162  1  0  0  0
 82163  1  0  0  0
 82164  1  0  0  0
 83165  1  0  0  0
 83166  1  0  0  0
 83167  1  0  0  0
 83 87  1  0  0  0
 84 85  1  0  0  0
 84 88  1  0  0  0
 84168  1  0  0  0
 84169  1  0  0  0
 85 90  1  0  0  0
 85170  1  0  0  0
 85171  1  0  0  0
 86 87  1  0  0  0
 86172  1  0  0  0
 86173  1  0  0  0
 87 89  1  0  0  0
 87174  1  0  0  0
 88175  1  0  0  0
 89176  1  0  0  0
M  CHG  1  89   1
M  ISO  4   1 100  68 101  86 101  88 100
M  END
> <chiral flag>
0

> <version>
0

> <s_m_source_file>
/data/baiqing/PycharmProjects/Reinvent-master-3.2/result/LINK_invent/BTK/process_docking_weight1_custom_sum_contain_oxygen_bond_distance_aromatic_linkinvent_7_9_3/rearranged_h_0158.sdf

> <i_m_source_file_index>
73

> <r_mmod_Potential_Energy-OPLS-2005>
-119.146255493164

> <r_mmod_Stretch_Energy-OPLS-2005>
38.0487899780273

> <r_mmod_Bend_Energy-OPLS-2005>
140.774002075195

> <r_mmod_Torsional_Energy-OPLS-2005>
277.917755126953

> <r_mmod_Improper_Torsional_Energy-OPLS-2005>
2.73508262634277

> <r_mmod_Van_der_Waal_Energy-OPLS-2005>
163.348342895508

> <r_mmod_Electrostatic_Energy-OPLS-2005>
-339.200042724609

> <r_mmod_Solvation_Energy-OPLS-2005>
-410.484710693359

> <b_mmod_Minimization_Converged-OPLS-2005>
0

> <r_mmod_RMS_Derivative-OPLS-2005>
2.39826035499573

$$$$
73
                    3D
 Structure written by MMmdl.
167176  0  0  1  0            999 V2000
  -30.7078  -14.5047   20.5689 C   0  0  0  0  0  0
  -30.4250  -12.3346   19.4227 C   0  0  0  0  0  0
  -29.4944  -12.5257   18.2067 C   0  0  0  0  0  0
  -28.0133  -12.3971   18.6148 C   0  0  0  0  0  0
  -27.6647  -13.2123   19.8890 C   0  0  2  0  0  0
  -28.7131  -12.9669   20.9958 C   0  0  0  0  0  0
  -25.2608  -13.8164   20.5713 C   0  0  0  0  0  0
  -24.1860  -13.0438   20.9174 C   0  0  0  0  0  0
  -24.6419  -11.6899   20.8746 C   0  0  0  0  0  0
  -23.9087  -10.4289   21.0415 C   0  0  0  0  0  0
  -24.3634   -9.4195   21.9187 C   0  0  0  0  0  0
  -23.6300   -8.2242   22.0754 C   0  0  0  0  0  0
  -22.4284   -8.0286   21.3545 C   0  0  0  0  0  0
  -21.9931   -9.0258   20.4638 C   0  0  0  0  0  0
  -22.7267  -10.2134   20.3047 C   0  0  0  0  0  0
  -21.6844   -6.0742   22.5274 C   0  0  0  0  0  0
  -21.4019   -6.5648   23.8207 C   0  0  0  0  0  0
  -21.3660   -5.6798   24.9176 C   0  0  0  0  0  0
  -21.6042   -4.3060   24.7222 C   0  0  0  0  0  0
  -21.8822   -3.8156   23.4344 C   0  0  0  0  0  0
  -21.9198   -4.6975   22.3398 C   0  0  0  0  0  0
  -22.7878  -13.5222   21.1837 C   0  0  0  0  0  0
  -22.1660   -4.2153   21.0974 F   0  0  0  0  0  0
  -21.5630   -3.4542   25.7740 F   0  0  0  0  0  0
  -30.0265  -13.3252   20.4403 N   0  0  0  0  0  0
  -26.3057  -12.9341   20.3464 N   0  0  0  0  0  0
  -25.9355  -11.6498   20.5817 N   0  0  0  0  0  0
  -22.0520  -12.8194   22.0373 N   0  0  0  0  0  0
  -25.4344  -15.1885   20.4110 N   0  0  0  0  0  0
  -31.8562  -14.6207   20.1269 O   0  0  0  0  0  0
  -21.6634   -6.8896   21.4239 O   0  0  0  0  0  0
  -22.3571  -14.5538   20.6698 O   0  0  0  0  0  0
  -24.6192  -31.8666   23.2073 C   0  0  0  0  0  0
  -25.9076  -32.4811   23.8376 C   0  0  1  0  0  0
  -27.2324  -27.4002   20.1013 C   0  0  0  0  0  0
  -25.5938  -33.8609   24.2312 N   0  0  0  0  0  0
  -23.4075  -30.4875   21.5512 C   0  0  2  0  0  0
  -24.8542  -28.9552   20.1120 C   0  0  0  0  0  0
  -22.7426  -29.4636   22.5009 C   0  0  0  0  0  0
  -18.0269  -28.1337   22.8500 C   0  0  0  0  0  0
  -24.1482  -36.7297   23.2636 C   0  0  0  0  0  0
  -25.9399  -30.8244   21.3637 C   0  0  0  0  0  0
  -26.0176  -29.4576   20.7071 C   0  0  0  0  0  0
  -27.2090  -28.6883   20.6966 C   0  0  0  0  0  0
  -26.0480  -26.9300   19.4856 C   0  0  0  0  0  0
  -24.8666  -27.6932   19.4969 C   0  0  0  0  0  0
  -23.6169  -29.8233   20.1652 C   0  0  0  0  0  0
  -25.4111  -36.3103   24.0327 C   0  0  1  0  0  0
  -20.5854  -28.3636   23.1335 C   0  0  2  0  0  0
  -20.6768  -26.9377   22.5435 C   0  0  0  0  0  0
  -19.5756  -26.6373   21.5218 C   0  0  0  0  0  0
  -18.1926  -26.7885   22.1619 C   0  0  0  0  0  0
  -19.1515  -28.8809   23.2900 C   0  0  0  0  0  0
  -18.9439  -30.1408   23.8922 C   0  0  0  0  0  0
  -17.6447  -30.6567   24.0547 C   0  0  0  0  0  0
  -25.9052  -34.9474   23.5108 C   0  0  0  0  0  0
  -16.5340  -29.9072   23.6298 C   0  0  0  0  0  0
  -16.7259  -28.6468   23.0359 C   0  0  0  0  0  0
  -26.4501  -31.6588   25.0711 C   0  0  0  0  0  0
  -25.3759  -31.3659   26.1449 C   0  0  0  0  0  0
  -27.0341  -30.3036   24.6074 C   0  0  0  0  0  0
  -27.6056  -32.4317   25.7511 C   0  0  0  0  0  0
  -27.5575  -37.1821   24.8469 C   0  0  0  0  0  0
  -21.4154  -29.2996   22.3750 N   0  0  0  0  0  0
  -26.4296  -37.3792   23.9400 N   0  0  0  0  0  0
  -24.6740  -31.0733   22.0999 N   0  0  0  0  0  0
  -23.4180  -28.8191   23.3073 O   0  0  0  0  0  0
  -28.3902  -26.6346   20.1456 O   0  0  0  0  0  0
  -26.5596  -34.8937   22.4660 O   0  0  0  0  0  0
  -23.5383  -32.1440   23.7457 O   0  0  0  0  0  0
  -32.1011  -20.9522   21.6262 C   0  0  0  0  0  0
  -30.2481  -19.4661   21.0319 C   0  0  0  0  0  0
  -31.5529  -19.6601   21.5666 C   0  0  0  0  0  0
  -31.4129  -22.0921   21.1720 C   0  0  0  0  0  0
  -29.5296  -20.6333   20.5989 C   0  0  0  0  0  0
  -30.0897  -21.9513   20.6588 C   0  0  0  0  0  0
  -29.2515  -17.4136   22.3105 C   0  0  0  0  0  0
  -29.1808  -15.9073   22.0180 C   0  0  0  0  0  0
  -30.3405  -16.9342   20.1900 C   0  0  0  0  0  0
  -29.5993  -18.0479   20.9650 C   0  0  2  0  0  0
  -32.4496  -18.5491   22.1037 C   0  0  0  0  0  0
  -32.1884  -23.4007   21.2395 C   0  0  0  0  0  0
  -28.1074  -20.4790   20.0667 C   0  0  0  0  0  0
  -28.2588  -25.2034   19.9591 C   0  0  0  0  0  0
  -29.4707  -24.3799   20.4707 C   0  0  0  0  0  0
  -29.9826  -15.6385   20.8145 N   0  0  0  0  0  0
  -29.2872  -22.9840   20.1653 O   0  0  0  0  0  0
  -31.4667  -12.4379   19.1148 H   0  0  0  0  0  0
  -30.3389  -11.3230   19.8218 H   0  0  0  0  0  0
  -29.7305  -11.7971   17.4294 H   0  0  0  0  0  0
  -29.6682  -13.5093   17.7664 H   0  0  0  0  0  0
  -27.8074  -11.3408   18.7871 H   0  0  0  0  0  0
  -27.3693  -12.7066   17.7909 H   0  0  0  0  0  0
  -27.7127  -14.2665   19.6167 H   0  0  0  0  0  0
  -28.7119  -11.9141   21.2816 H   0  0  0  0  0  0
  -28.4747  -13.4890   21.9180 H   0  0  0  0  0  0
  -25.2772   -9.5663   22.4784 H   0  0  0  0  0  0
  -23.9982   -7.4636   22.7489 H   0  0  0  0  0  0
  -21.0858   -8.8793   19.8945 H   0  0  0  0  0  0
  -22.3727  -10.9686   19.6168 H   0  0  0  0  0  0
  -21.2012   -7.6153   23.9712 H   0  0  0  0  0  0
  -21.1477   -6.0532   25.9076 H   0  0  0  0  0  0
  -22.0607   -2.7616   23.2840 H   0  0  0  0  0  0
  -22.4114  -11.9819   22.4715 H   0  0  0  0  0  0
  -21.1144  -13.1227   22.2613 H   0  0  0  0  0  0
  -24.6777  -15.8520   20.5296 H   0  0  0  0  0  0
  -26.2961  -15.6194   20.1021 H   0  0  0  0  0  0
  -26.7158  -32.5532   23.1151 H   0  0  0  0  0  0
  -25.0135  -33.9751   25.0494 H   0  0  0  0  0  0
  -22.6970  -31.3047   21.4107 H   0  0  0  0  0  0
  -23.3766  -35.9609   23.3298 H   0  0  0  0  0  0
  -24.3588  -36.8923   22.2055 H   0  0  0  0  0  0
  -23.7211  -37.6486   23.6665 H   0  0  0  0  0  0
  -26.0516  -31.5930   20.5979 H   0  0  0  0  0  0
  -26.8269  -30.8785   21.9817 H   0  0  0  0  0  0
  -28.1066  -29.0694   21.1643 H   0  0  0  0  0  0
  -26.0147  -25.9692   18.9921 H   0  0  0  0  0  0
  -23.9729  -27.3016   19.0301 H   0  0  0  0  0  0
  -23.7273  -30.6004   19.4093 H   0  0  0  0  0  0
  -22.7400  -29.2443   19.8683 H   0  0  0  0  0  0
  -25.1281  -36.1975   25.0819 H   0  0  0  0  0  0
  -20.9905  -28.3211   24.1467 H   0  0  0  0  0  0
  -20.5704  -26.2235   23.3615 H   0  0  0  0  0  0
  -21.6644  -26.7465   22.1214 H   0  0  0  0  0  0
  -19.6940  -25.6298   21.1223 H   0  0  0  0  0  0
  -19.6686  -27.3208   20.6767 H   0  0  0  0  0  0
  -17.4197  -26.6634   21.4010 H   0  0  0  0  0  0
  -18.0309  -26.0012   22.8991 H   0  0  0  0  0  0
  -19.7922  -30.7178   24.2351 H   0  0  0  0  0  0
  -17.5017  -31.6258   24.5128 H   0  0  0  0  0  0
  -15.5347  -30.2986   23.7606 H   0  0  0  0  0  0
  -15.8651  -28.0792   22.7081 H   0  0  0  0  0  0
  -24.5968  -30.6966   25.7782 H   0  0  0  0  0  0
  -24.8911  -32.2786   26.4913 H   0  0  0  0  0  0
  -25.8135  -30.8838   27.0199 H   0  0  0  0  0  0
  -26.2874  -29.6800   24.1138 H   0  0  0  0  0  0
  -27.4125  -29.7273   25.4530 H   0  0  0  0  0  0
  -27.8708  -30.4358   23.9208 H   0  0  0  0  0  0
  -27.2654  -33.3623   26.2069 H   0  0  0  0  0  0
  -28.3905  -32.6865   25.0375 H   0  0  0  0  0  0
  -28.0674  -31.8440   26.5457 H   0  0  0  0  0  0
  -28.2597  -38.0121   24.7547 H   0  0  0  0  0  0
  -28.1069  -36.2657   24.6267 H   0  0  0  0  0  0
  -27.2291  -37.1431   25.8872 H   0  0  0  0  0  0
  -20.9340  -29.8697   21.6940 H   0  0  0  0  0  0
  -26.0184  -38.2864   24.1426 H   0  0  0  0  0  0
  -33.1004  -21.0624   22.0265 H   0  0  0  0  0  0
  -30.0140  -17.6053   23.0628 H   0  0  0  0  0  0
  -28.3184  -17.8024   22.7198 H   0  0  0  0  0  0
  -28.1418  -15.6468   21.8136 H   0  0  0  0  0  0
  -29.5151  -15.3248   22.8791 H   0  0  0  0  0  0
  -31.4195  -17.0809   20.1847 H   0  0  0  0  0  0
  -30.0366  -16.9395   19.1415 H   0  0  0  0  0  0
  -28.6485  -18.1070   20.4417 H   0  0  0  0  0  0
  -33.2969  -18.3991   21.4348 H   0  0  0  0  0  0
  -31.9690  -17.5858   22.2373 H   0  0  0  0  0  0
  -32.8410  -18.8343   23.0805 H   0  0  0  0  0  0
  -33.2052  -23.2405   21.6000 H   0  0  0  0  0  0
  -31.7319  -24.1089   21.9295 H   0  0  0  0  0  0
  -32.2903  -23.8466   20.2508 H   0  0  0  0  0  0
  -27.4865  -19.9608   20.7977 H   0  0  0  0  0  0
  -28.1143  -19.9034   19.1405 H   0  0  0  0  0  0
  -27.6014  -21.4190   19.8568 H   0  0  0  0  0  0
  -27.3717  -24.8289   20.4744 H   0  0  0  0  0  0
  -28.1223  -25.0037   18.8951 H   0  0  0  0  0  0
  -29.5759  -24.5276   21.5453 H   0  0  0  0  0  0
  -30.3568  -24.7682   19.9757 H   0  0  0  0  0  0
  1 25  1  0  0  0
  1 30  2  0  0  0
  1 86  1  0  0  0
  2  3  1  0  0  0
  2 25  1  0  0  0
  2 88  1  0  0  0
  2 89  1  0  0  0
  3  4  1  0  0  0
  3 90  1  0  0  0
  3 91  1  0  0  0
  4  5  1  0  0  0
  4 92  1  0  0  0
  4 93  1  0  0  0
  5  6  1  0  0  0
  5 26  1  0  0  0
  5 94  1  0  0  0
  6 25  1  0  0  0
  6 95  1  0  0  0
  6 96  1  0  0  0
  7  8  2  0  0  0
  7 26  1  0  0  0
  7 29  1  0  0  0
  8  9  1  0  0  0
  8 22  1  0  0  0
  9 10  1  0  0  0
  9 27  2  0  0  0
 10 11  2  0  0  0
 10 15  1  0  0  0
 11 12  1  0  0  0
 11 97  1  0  0  0
 12 13  2  0  0  0
 12 98  1  0  0  0
 13 14  1  0  0  0
 13 31  1  0  0  0
 14 15  2  0  0  0
 14 99  1  0  0  0
 15100  1  0  0  0
 16 17  2  0  0  0
 16 21  1  0  0  0
 16 31  1  0  0  0
 17 18  1  0  0  0
 17101  1  0  0  0
 18 19  2  0  0  0
 18102  1  0  0  0
 19 20  1  0  0  0
 19 24  1  0  0  0
 20 21  2  0  0  0
 20103  1  0  0  0
 21 23  1  0  0  0
 22 28  1  0  0  0
 22 32  2  0  0  0
 26 27  1  0  0  0
 28104  1  0  0  0
 28105  1  0  0  0
 29106  1  0  0  0
 29107  1  0  0  0
 33 34  1  0  0  0
 33 66  1  0  0  0
 33 70  2  0  0  0
 34 36  1  0  0  0
 34 59  1  0  0  0
 34108  1  0  0  0
 35 44  2  0  0  0
 35 45  1  0  0  0
 35 68  1  0  0  0
 36 56  1  0  0  0
 36109  1  0  0  0
 37 39  1  0  0  0
 37 47  1  0  0  0
 37 66  1  0  0  0
 37110  1  0  0  0
 38 43  2  0  0  0
 38 46  1  0  0  0
 38 47  1  0  0  0
 39 64  1  0  0  0
 39 67  2  0  0  0
 40 52  1  0  0  0
 40 53  2  0  0  0
 40 58  1  0  0  0
 41111  1  0  0  0
 41112  1  0  0  0
 41113  1  0  0  0
 41 48  1  0  0  0
 42 43  1  0  0  0
 42 66  1  0  0  0
 42114  1  0  0  0
 42115  1  0  0  0
 43 44  1  0  0  0
 44116  1  0  0  0
 45 46  2  0  0  0
 45117  1  0  0  0
 46118  1  0  0  0
 47119  1  0  0  0
 47120  1  0  0  0
 48 56  1  0  0  0
 48 65  1  0  0  0
 48121  1  0  0  0
 49 50  1  0  0  0
 49 53  1  0  0  0
 49 64  1  0  0  0
 49122  1  0  0  0
 50 51  1  0  0  0
 50123  1  0  0  0
 50124  1  0  0  0
 51 52  1  0  0  0
 51125  1  0  0  0
 51126  1  0  0  0
 52127  1  0  0  0
 52128  1  0  0  0
 53 54  1  0  0  0
 54 55  2  0  0  0
 54129  1  0  0  0
 55 57  1  0  0  0
 55130  1  0  0  0
 56 69  2  0  0  0
 57 58  2  0  0  0
 57131  1  0  0  0
 58132  1  0  0  0
 59 60  1  0  0  0
 59 61  1  0  0  0
 59 62  1  0  0  0
 60133  1  0  0  0
 60134  1  0  0  0
 60135  1  0  0  0
 61136  1  0  0  0
 61137  1  0  0  0
 61138  1  0  0  0
 62139  1  0  0  0
 62140  1  0  0  0
 62141  1  0  0  0
 63 65  1  0  0  0
 63142  1  0  0  0
 63143  1  0  0  0
 63144  1  0  0  0
 64145  1  0  0  0
 65146  1  0  0  0
 68 84  1  0  0  0
 71 73  2  0  0  0
 71 74  1  0  0  0
 71147  1  0  0  0
 72 73  1  0  0  0
 72 75  2  0  0  0
 72 80  1  0  0  0
 73 81  1  0  0  0
 74 76  2  0  0  0
 74 82  1  0  0  0
 75 76  1  0  0  0
 75 83  1  0  0  0
 76 87  1  0  0  0
 77 78  1  0  0  0
 77 80  1  0  0  0
 77148  1  0  0  0
 77149  1  0  0  0
 78 86  1  0  0  0
 78150  1  0  0  0
 78151  1  0  0  0
 79 80  1  0  0  0
 79 86  1  0  0  0
 79152  1  0  0  0
 79153  1  0  0  0
 80154  1  0  0  0
 81155  1  0  0  0
 81156  1  0  0  0
 81157  1  0  0  0
 82158  1  0  0  0
 82159  1  0  0  0
 82160  1  0  0  0
 83161  1  0  0  0
 83162  1  0  0  0
 83163  1  0  0  0
 84 85  1  0  0  0
 84164  1  0  0  0
 84165  1  0  0  0
 85 87  1  0  0  0
 85166  1  0  0  0
 85167  1  0  0  0
M  ISO  4   1 100  68 101  84 101  86 100
M  END
> <chiral flag>
0

> <version>
0

> <s_m_source_file>
/data/baiqing/PycharmProjects/Reinvent-master-3.2/result/LINK_invent/BTK/process_docking_weight1_custom_sum_contain_oxygen_bond_distance_aromatic_linkinvent_7_9_3/rearranged_h_0158.sdf

> <i_m_source_file_index>
74

> <r_mmod_Potential_Energy-OPLS-2005>
204.011627197266

> <r_mmod_Stretch_Energy-OPLS-2005>
55.3287506103516

> <r_mmod_Bend_Energy-OPLS-2005>
160.610000610352

> <r_mmod_Torsional_Energy-OPLS-2005>
316.790344238281

> <r_mmod_Improper_Torsional_Energy-OPLS-2005>
12.6476602554321

> <r_mmod_Van_der_Waal_Energy-OPLS-2005>
175.38899230957

> <r_mmod_Electrostatic_Energy-OPLS-2005>
-336.801208496094

> <r_mmod_Solvation_Energy-OPLS-2005>
-198.264205932617

> <b_mmod_Minimization_Converged-OPLS-2005>
0

> <r_mmod_RMS_Derivative-OPLS-2005>
2.53707504272461

$$$$
74
                    3D
 Structure written by MMmdl.
166176  0  0  1  0            999 V2000
  -30.7458  -14.5290   20.5717 C   0  0  0  0  0  0
  -30.4144  -12.3464   19.4479 C   0  0  0  0  0  0
  -29.4941  -12.5154   18.2244 C   0  0  0  0  0  0
  -28.0164  -12.3735   18.6379 C   0  0  0  0  0  0
  -27.6639  -13.2068   19.8994 C   0  0  2  0  0  0
  -28.7176  -12.9787   21.0099 C   0  0  0  0  0  0
  -25.2618  -13.8123   20.5721 C   0  0  0  0  0  0
  -24.1845  -13.0438   20.9193 C   0  0  0  0  0  0
  -24.6429  -11.6889   20.8798 C   0  0  0  0  0  0
  -23.9090  -10.4276   21.0453 C   0  0  0  0  0  0
  -24.3619   -9.4162   21.9226 C   0  0  0  0  0  0
  -23.6282   -8.2217   22.0766 C   0  0  0  0  0  0
  -22.4270   -8.0294   21.3559 C   0  0  0  0  0  0
  -21.9926   -9.0274   20.4673 C   0  0  0  0  0  0
  -22.7258  -10.2149   20.3101 C   0  0  0  0  0  0
  -21.6841   -6.0777   22.5291 C   0  0  0  0  0  0
  -21.4009   -6.5673   23.8231 C   0  0  0  0  0  0
  -21.3651   -5.6814   24.9179 C   0  0  0  0  0  0
  -21.6037   -4.3077   24.7220 C   0  0  0  0  0  0
  -21.8804   -3.8180   23.4327 C   0  0  0  0  0  0
  -21.9180   -4.7005   22.3391 C   0  0  0  0  0  0
  -22.7888  -13.5252   21.1835 C   0  0  0  0  0  0
  -22.1661   -4.2178   21.0977 F   0  0  0  0  0  0
  -21.5613   -3.4579   25.7736 F   0  0  0  0  0  0
  -30.0138  -13.3693   20.4462 N   0  0  0  0  0  0
  -26.3066  -12.9300   20.3566 N   0  0  0  0  0  0
  -25.9354  -11.6452   20.5910 N   0  0  0  0  0  0
  -22.0511  -12.8254   22.0369 N   0  0  0  0  0  0
  -25.4377  -15.1822   20.4041 N   0  0  0  0  0  0
  -31.8889  -14.5415   20.0998 O   0  0  0  0  0  0
  -21.6610   -6.8906   21.4254 O   0  0  0  0  0  0
  -22.3577  -14.5574   20.6678 O   0  0  0  0  0  0
  -24.6238  -31.8663   23.2166 C   0  0  0  0  0  0
  -25.9115  -32.4780   23.8448 C   0  0  1  0  0  0
  -27.1903  -27.3180   20.1219 C   0  0  0  0  0  0
  -25.6002  -33.8583   24.2395 N   0  0  0  0  0  0
  -23.4175  -30.4998   21.5530 C   0  0  2  0  0  0
  -24.8618  -28.9789   20.1090 C   0  0  0  0  0  0
  -22.7465  -29.4648   22.4895 C   0  0  0  0  0  0
  -18.0290  -28.1388   22.8489 C   0  0  0  0  0  0
  -24.1508  -36.7267   23.2636 C   0  0  0  0  0  0
  -25.9664  -30.7971   21.4015 C   0  0  0  0  0  0
  -26.0323  -29.4298   20.7337 C   0  0  0  0  0  0
  -27.1944  -28.6027   20.7504 C   0  0  0  0  0  0
  -26.0096  -26.9710   19.4203 C   0  0  0  0  0  0
  -24.8495  -27.7518   19.4504 C   0  0  0  0  0  0
  -23.6383  -29.8601   20.1599 C   0  0  0  0  0  0
  -25.4128  -36.3081   24.0339 C   0  0  1  0  0  0
  -20.5896  -28.3710   23.1281 C   0  0  2  0  0  0
  -20.6797  -26.9432   22.5408 C   0  0  0  0  0  0
  -19.5763  -26.6388   21.5215 C   0  0  0  0  0  0
  -18.1938  -26.7918   22.1626 C   0  0  0  0  0  0
  -19.1541  -28.8842   23.2886 C   0  0  0  0  0  0
  -18.9466  -30.1441   23.8899 C   0  0  0  0  0  0
  -17.6467  -30.6585   24.0552 C   0  0  0  0  0  0
  -25.9074  -34.9450   23.5144 C   0  0  0  0  0  0
  -16.5354  -29.9081   23.6333 C   0  0  0  0  0  0
  -16.7277  -28.6497   23.0352 C   0  0  0  0  0  0
  -26.4543  -31.6549   25.0764 C   0  0  0  0  0  0
  -25.3829  -31.3634   26.1512 C   0  0  0  0  0  0
  -27.0395  -30.2942   24.6227 C   0  0  0  0  0  0
  -27.6134  -32.4258   25.7503 C   0  0  0  0  0  0
  -27.5596  -37.1808   24.8485 C   0  0  0  0  0  0
  -21.4179  -29.3049   22.3632 N   0  0  0  0  0  0
  -26.4333  -37.3778   23.9401 N   0  0  0  0  0  0
  -24.6866  -31.0713   22.1125 N   0  0  0  0  0  0
  -23.4212  -28.8126   23.2919 O   0  0  0  0  0  0
  -28.2531  -26.4010   20.2396 O   0  0  0  0  0  0
  -26.5585  -34.8898   22.4686 O   0  0  0  0  0  0
  -23.5405  -32.1440   23.7496 O   0  0  0  0  0  0
  -28.7926  -21.1532   20.6134 C   0  0  0  0  0  0
  -29.0015  -20.1286   21.5926 C   0  0  0  0  0  0
  -28.6637  -22.5437   20.9588 C   0  0  0  0  0  0
  -28.9772  -20.5667   22.9401 C   0  0  0  0  0  0
  -28.8339  -22.8333   22.3308 C   0  0  0  0  0  0
  -30.7337  -18.2055   21.6553 C   0  0  0  0  0  0
  -28.3569  -17.5049   21.4629 C   0  0  0  0  0  0
  -26.9860  -24.3043   20.1461 C   0  0  0  0  0  0
  -31.1839  -16.8951   20.9664 C   0  0  0  0  0  0
  -28.9848  -16.0868   21.7511 C   0  0  0  0  0  0
  -29.3545  -18.6589   21.1643 C   0  0  0  0  0  0
  -28.2398  -23.5524   19.8531 C   0  0  1  0  0  0
  -28.1171  -25.1128   19.5239 C   0  0  2  0  0  0
  -29.0426  -19.6469   24.1524 C   0  0  0  0  0  0
  -28.9688  -24.2318   22.8876 C   0  0  0  0  0  0
  -28.9378  -21.8723   23.2763 N   0  0  0  0  0  0
  -30.2349  -15.7441   21.0195 N   0  0  0  0  0  0
  -31.4575  -12.4206   19.1367 H   0  0  0  0  0  0
  -30.3261  -11.3378   19.8544 H   0  0  0  0  0  0
  -29.7372  -11.7766   17.4603 H   0  0  0  0  0  0
  -29.6581  -13.4971   17.7772 H   0  0  0  0  0  0
  -27.8335  -11.3181   18.8440 H   0  0  0  0  0  0
  -27.3593  -12.6409   17.8089 H   0  0  0  0  0  0
  -27.7100  -14.2524   19.5999 H   0  0  0  0  0  0
  -28.7346  -11.9203   21.2804 H   0  0  0  0  0  0
  -28.4973  -13.4549   21.9591 H   0  0  0  0  0  0
  -25.2761   -9.5618   22.4812 H   0  0  0  0  0  0
  -23.9985   -7.4590   22.7480 H   0  0  0  0  0  0
  -21.0864   -8.8809   19.8975 H   0  0  0  0  0  0
  -22.3737  -10.9706   19.6221 H   0  0  0  0  0  0
  -21.2015   -7.6188   23.9738 H   0  0  0  0  0  0
  -21.1497   -6.0559   25.9087 H   0  0  0  0  0  0
  -22.0586   -2.7648   23.2825 H   0  0  0  0  0  0
  -22.4129  -11.9899   22.4718 H   0  0  0  0  0  0
  -21.1181  -13.1347   22.2653 H   0  0  0  0  0  0
  -24.6703  -15.8417   20.4782 H   0  0  0  0  0  0
  -26.2987  -15.6012   20.0824 H   0  0  0  0  0  0
  -26.7165  -32.5456   23.1168 H   0  0  0  0  0  0
  -25.0213  -33.9763   25.0573 H   0  0  0  0  0  0
  -22.7083  -31.3186   21.4169 H   0  0  0  0  0  0
  -23.3778  -35.9608   23.3346 H   0  0  0  0  0  0
  -24.3609  -36.8835   22.2047 H   0  0  0  0  0  0
  -23.7284  -37.6497   23.6627 H   0  0  0  0  0  0
  -26.1215  -31.5765   20.6507 H   0  0  0  0  0  0
  -26.8394  -30.8193   22.0437 H   0  0  0  0  0  0
  -28.0860  -28.9317   21.2676 H   0  0  0  0  0  0
  -25.9078  -26.0696   18.8434 H   0  0  0  0  0  0
  -23.9534  -27.4139   18.9485 H   0  0  0  0  0  0
  -23.7757  -30.6515   19.4209 H   0  0  0  0  0  0
  -22.7585  -29.3014   19.8390 H   0  0  0  0  0  0
  -25.1315  -36.1942   25.0843 H   0  0  0  0  0  0
  -20.9997  -28.3288   24.1403 H   0  0  0  0  0  0
  -20.5737  -26.2301   23.3600 H   0  0  0  0  0  0
  -21.6667  -26.7461   22.1175 H   0  0  0  0  0  0
  -19.6953  -25.6302   21.1232 H   0  0  0  0  0  0
  -19.6716  -27.3216   20.6756 H   0  0  0  0  0  0
  -17.4224  -26.6667   21.4020 H   0  0  0  0  0  0
  -18.0341  -26.0035   22.9002 H   0  0  0  0  0  0
  -19.7938  -30.7254   24.2280 H   0  0  0  0  0  0
  -17.5026  -31.6258   24.5164 H   0  0  0  0  0  0
  -15.5378  -30.2992   23.7641 H   0  0  0  0  0  0
  -15.8674  -28.0820   22.7086 H   0  0  0  0  0  0
  -24.6051  -30.6933   25.7846 H   0  0  0  0  0  0
  -24.8987  -32.2762   26.4968 H   0  0  0  0  0  0
  -25.8197  -30.8799   27.0286 H   0  0  0  0  0  0
  -26.2960  -29.6662   24.1278 H   0  0  0  0  0  0
  -27.4075  -29.7197   25.4750 H   0  0  0  0  0  0
  -27.8854  -30.4164   23.9483 H   0  0  0  0  0  0
  -27.2820  -33.3553   26.2088 H   0  0  0  0  0  0
  -28.3934  -32.6787   25.0297 H   0  0  0  0  0  0
  -28.0859  -31.8363   26.5390 H   0  0  0  0  0  0
  -28.2627  -38.0091   24.7477 H   0  0  0  0  0  0
  -28.1060  -36.2602   24.6371 H   0  0  0  0  0  0
  -27.2274  -37.1531   25.8882 H   0  0  0  0  0  0
  -20.9332  -29.8790   21.6872 H   0  0  0  0  0  0
  -26.0187  -38.2843   24.1390 H   0  0  0  0  0  0
  -28.7395  -20.8563   19.5740 H   0  0  0  0  0  0
  -31.4688  -18.9807   21.4408 H   0  0  0  0  0  0
  -30.7472  -18.0691   22.7367 H   0  0  0  0  0  0
  -27.6511  -17.4137   20.6375 H   0  0  0  0  0  0
  -27.7230  -17.7607   22.3105 H   0  0  0  0  0  0
  -26.7595  -24.5479   21.1831 H   0  0  0  0  0  0
  -26.1153  -24.0279   19.5550 H   0  0  0  0  0  0
  -31.4155  -17.1094   19.9196 H   0  0  0  0  0  0
  -32.1318  -16.6063   21.4228 H   0  0  0  0  0  0
  -28.1826  -15.3897   21.5582 H   0  0  0  0  0  0
  -29.2131  -16.0041   22.8157 H   0  0  0  0  0  0
  -29.4360  -18.6769   20.0771 H   0  0  0  0  0  0
  -28.2120  -22.9715   18.9306 H   0  0  0  0  0  0
  -28.0420  -25.3312   18.4587 H   0  0  0  0  0  0
  -30.0139  -19.7304   24.6392 H   0  0  0  0  0  0
  -28.8600  -18.5981   23.9396 H   0  0  0  0  0  0
  -28.2904  -19.9454   24.8826 H   0  0  0  0  0  0
  -28.3149  -24.3605   23.7471 H   0  0  0  0  0  0
  -28.7413  -25.0099   22.1695 H   0  0  0  0  0  0
  -29.9929  -24.3853   23.2230 H   0  0  0  0  0  0
  1 25  1  0  0  0
  1 30  2  0  0  0
  1 87  1  0  0  0
  2  3  1  0  0  0
  2 25  1  0  0  0
  2 88  1  0  0  0
  2 89  1  0  0  0
  3  4  1  0  0  0
  3 90  1  0  0  0
  3 91  1  0  0  0
  4  5  1  0  0  0
  4 92  1  0  0  0
  4 93  1  0  0  0
  5  6  1  0  0  0
  5 26  1  0  0  0
  5 94  1  0  0  0
  6 25  1  0  0  0
  6 95  1  0  0  0
  6 96  1  0  0  0
  7  8  2  0  0  0
  7 26  1  0  0  0
  7 29  1  0  0  0
  8  9  1  0  0  0
  8 22  1  0  0  0
  9 10  1  0  0  0
  9 27  2  0  0  0
 10 11  2  0  0  0
 10 15  1  0  0  0
 11 12  1  0  0  0
 11 97  1  0  0  0
 12 13  2  0  0  0
 12 98  1  0  0  0
 13 14  1  0  0  0
 13 31  1  0  0  0
 14 15  2  0  0  0
 14 99  1  0  0  0
 15100  1  0  0  0
 16 17  2  0  0  0
 16 21  1  0  0  0
 16 31  1  0  0  0
 17 18  1  0  0  0
 17101  1  0  0  0
 18 19  2  0  0  0
 18102  1  0  0  0
 19 20  1  0  0  0
 19 24  1  0  0  0
 20 21  2  0  0  0
 20103  1  0  0  0
 21 23  1  0  0  0
 22 28  1  0  0  0
 22 32  2  0  0  0
 26 27  1  0  0  0
 28104  1  0  0  0
 28105  1  0  0  0
 29106  1  0  0  0
 29107  1  0  0  0
 33 34  1  0  0  0
 33 66  1  0  0  0
 33 70  2  0  0  0
 34 36  1  0  0  0
 34 59  1  0  0  0
 34108  1  0  0  0
 35 44  2  0  0  0
 35 45  1  0  0  0
 35 68  1  0  0  0
 36 56  1  0  0  0
 36109  1  0  0  0
 37 39  1  0  0  0
 37 47  1  0  0  0
 37 66  1  0  0  0
 37110  1  0  0  0
 38 43  2  0  0  0
 38 46  1  0  0  0
 38 47  1  0  0  0
 39 64  1  0  0  0
 39 67  2  0  0  0
 40 52  1  0  0  0
 40 53  2  0  0  0
 40 58  1  0  0  0
 41111  1  0  0  0
 41112  1  0  0  0
 41113  1  0  0  0
 41 48  1  0  0  0
 42 43  1  0  0  0
 42 66  1  0  0  0
 42114  1  0  0  0
 42115  1  0  0  0
 43 44  1  0  0  0
 44116  1  0  0  0
 45 46  2  0  0  0
 45117  1  0  0  0
 46118  1  0  0  0
 47119  1  0  0  0
 47120  1  0  0  0
 48 56  1  0  0  0
 48 65  1  0  0  0
 48121  1  0  0  0
 49 50  1  0  0  0
 49 53  1  0  0  0
 49 64  1  0  0  0
 49122  1  0  0  0
 50 51  1  0  0  0
 50123  1  0  0  0
 50124  1  0  0  0
 51 52  1  0  0  0
 51125  1  0  0  0
 51126  1  0  0  0
 52127  1  0  0  0
 52128  1  0  0  0
 53 54  1  0  0  0
 54 55  2  0  0  0
 54129  1  0  0  0
 55 57  1  0  0  0
 55130  1  0  0  0
 56 69  2  0  0  0
 57 58  2  0  0  0
 57131  1  0  0  0
 58132  1  0  0  0
 59 60  1  0  0  0
 59 61  1  0  0  0
 59 62  1  0  0  0
 60133  1  0  0  0
 60134  1  0  0  0
 60135  1  0  0  0
 61136  1  0  0  0
 61137  1  0  0  0
 61138  1  0  0  0
 62139  1  0  0  0
 62140  1  0  0  0
 62141  1  0  0  0
 63 65  1  0  0  0
 63142  1  0  0  0
 63143  1  0  0  0
 63144  1  0  0  0
 64145  1  0  0  0
 65146  1  0  0  0
 68 83  1  0  0  0
 71 72  2  0  0  0
 71 73  1  0  0  0
 71147  1  0  0  0
 72 74  1  0  0  0
 72 81  1  0  0  0
 73 75  2  0  0  0
 73 82  1  0  0  0
 74 84  1  0  0  0
 74 86  2  0  0  0
 75 85  1  0  0  0
 75 86  1  0  0  0
 76 79  1  0  0  0
 76 81  1  0  0  0
 76148  1  0  0  0
 76149  1  0  0  0
 77 80  1  0  0  0
 77 81  1  0  0  0
 77150  1  0  0  0
 77151  1  0  0  0
 78 82  1  0  0  0
 78 83  1  0  0  0
 78152  1  0  0  0
 78153  1  0  0  0
 79 87  1  0  0  0
 79154  1  0  0  0
 79155  1  0  0  0
 80 87  1  0  0  0
 80156  1  0  0  0
 80157  1  0  0  0
 81158  1  0  0  0
 82 83  1  0  0  0
 82159  1  0  0  0
 83160  1  0  0  0
 84161  1  0  0  0
 84162  1  0  0  0
 84163  1  0  0  0
 85164  1  0  0  0
 85165  1  0  0  0
 85166  1  0  0  0
M  ISO  4   1 100  68 101  83 101  87 100
M  END
> <chiral flag>
0

> <version>
0

> <s_m_source_file>
/data/baiqing/PycharmProjects/Reinvent-master-3.2/result/LINK_invent/BTK/process_docking_weight1_custom_sum_contain_oxygen_bond_distance_aromatic_linkinvent_7_9_3/rearranged_h_0158.sdf

> <i_m_source_file_index>
75

> <r_mmod_Potential_Energy-OPLS-2005>
268.769104003906

> <r_mmod_Stretch_Energy-OPLS-2005>
87.4835052490234

> <r_mmod_Bend_Energy-OPLS-2005>
277.975799560547

> <r_mmod_Torsional_Energy-OPLS-2005>
322.215057373047

> <r_mmod_Improper_Torsional_Energy-OPLS-2005>
5.06788349151611

> <r_mmod_Van_der_Waal_Energy-OPLS-2005>
194.56916809082

> <r_mmod_Electrostatic_Energy-OPLS-2005>
-450.800170898438

> <r_mmod_Solvation_Energy-OPLS-2005>
-214.96745300293

> <b_mmod_Minimization_Converged-OPLS-2005>
0

> <r_mmod_RMS_Derivative-OPLS-2005>
7.1735520362854

$$$$
75
                    3D
 Structure written by MMmdl.
161170  0  0  1  0            999 V2000
  -30.7385  -14.4087   20.6423 C   0  0  0  0  0  0
  -30.4262  -12.2966   19.4029 C   0  0  0  0  0  0
  -29.4924  -12.5086   18.1949 C   0  0  0  0  0  0
  -28.0136  -12.3765   18.6091 C   0  0  0  0  0  0
  -27.6677  -13.2022   19.8770 C   0  0  2  0  0  0
  -28.7075  -12.9522   20.9917 C   0  0  0  0  0  0
  -25.2622  -13.8149   20.5657 C   0  0  0  0  0  0
  -24.1863  -13.0433   20.9153 C   0  0  0  0  0  0
  -24.6413  -11.6903   20.8713 C   0  0  0  0  0  0
  -23.9071  -10.4290   21.0386 C   0  0  0  0  0  0
  -24.3617   -9.4204   21.9169 C   0  0  0  0  0  0
  -23.6287   -8.2245   22.0755 C   0  0  0  0  0  0
  -22.4265   -8.0283   21.3544 C   0  0  0  0  0  0
  -21.9907   -9.0253   20.4642 C   0  0  0  0  0  0
  -22.7241  -10.2130   20.3038 C   0  0  0  0  0  0
  -21.6857   -6.0726   22.5275 C   0  0  0  0  0  0
  -21.4020   -6.5632   23.8204 C   0  0  0  0  0  0
  -21.3652   -5.6785   24.9171 C   0  0  0  0  0  0
  -21.6043   -4.3048   24.7223 C   0  0  0  0  0  0
  -21.8824   -3.8136   23.4342 C   0  0  0  0  0  0
  -21.9201   -4.6952   22.3400 C   0  0  0  0  0  0
  -22.7888  -13.5235   21.1820 C   0  0  0  0  0  0
  -22.1665   -4.2134   21.0976 F   0  0  0  0  0  0
  -21.5627   -3.4533   25.7734 F   0  0  0  0  0  0
  -30.0449  -13.2552   20.4501 N   0  0  0  0  0  0
  -26.3064  -12.9316   20.3360 N   0  0  0  0  0  0
  -25.9337  -11.6479   20.5738 N   0  0  0  0  0  0
  -22.0518  -12.8236   22.0368 N   0  0  0  0  0  0
  -25.4360  -15.1867   20.4074 N   0  0  0  0  0  0
  -31.8034  -14.6661   20.0768 O   0  0  0  0  0  0
  -21.6640   -6.8870   21.4234 O   0  0  0  0  0  0
  -22.3574  -14.5529   20.6651 O   0  0  0  0  0  0
  -24.6141  -31.8677   23.2112 C   0  0  0  0  0  0
  -25.9038  -32.4824   23.8401 C   0  0  1  0  0  0
  -27.2406  -27.4393   20.0915 C   0  0  0  0  0  0
  -25.5901  -33.8624   24.2343 N   0  0  0  0  0  0
  -23.4026  -30.4939   21.5504 C   0  0  2  0  0  0
  -24.8476  -28.9619   20.1145 C   0  0  0  0  0  0
  -22.7403  -29.4678   22.4980 C   0  0  0  0  0  0
  -18.0278  -28.1381   22.8511 C   0  0  0  0  0  0
  -24.1481  -36.7295   23.2642 C   0  0  0  0  0  0
  -25.9326  -30.8341   21.3643 C   0  0  0  0  0  0
  -26.0086  -29.4699   20.7105 C   0  0  0  0  0  0
  -27.2047  -28.7173   20.6946 C   0  0  0  0  0  0
  -26.0534  -26.9419   19.4980 C   0  0  0  0  0  0
  -24.8652  -27.6958   19.5074 C   0  0  0  0  0  0
  -23.6094  -29.8299   20.1642 C   0  0  0  0  0  0
  -25.4101  -36.3110   24.0352 C   0  0  1  0  0  0
  -20.5869  -28.3665   23.1317 C   0  0  2  0  0  0
  -20.6783  -26.9395   22.5425 C   0  0  0  0  0  0
  -19.5760  -26.6397   21.5220 C   0  0  0  0  0  0
  -18.1928  -26.7943   22.1620 C   0  0  0  0  0  0
  -19.1529  -28.8834   23.2919 C   0  0  0  0  0  0
  -18.9460  -30.1454   23.8919 C   0  0  0  0  0  0
  -17.6460  -30.6590   24.0581 C   0  0  0  0  0  0
  -25.9034  -34.9483   23.5139 C   0  0  0  0  0  0
  -16.5347  -29.9100   23.6338 C   0  0  0  0  0  0
  -16.7268  -28.6513   23.0358 C   0  0  0  0  0  0
  -26.4470  -31.6599   25.0725 C   0  0  0  0  0  0
  -25.3744  -31.3702   26.1473 C   0  0  0  0  0  0
  -27.0292  -30.3053   24.6086 C   0  0  0  0  0  0
  -27.6060  -32.4305   25.7473 C   0  0  0  0  0  0
  -27.5583  -37.1793   24.8467 C   0  0  0  0  0  0
  -21.4128  -29.3037   22.3708 N   0  0  0  0  0  0
  -26.4289  -37.3792   23.9426 N   0  0  0  0  0  0
  -24.6682  -31.0792   22.1009 N   0  0  0  0  0  0
  -23.4172  -28.8221   23.3021 O   0  0  0  0  0  0
  -28.4279  -26.7303   20.0999 O   0  0  0  0  0  0
  -26.5585  -34.8932   22.4701 O   0  0  0  0  0  0
  -23.5335  -32.1412   23.7529 O   0  0  0  0  0  0
  -29.6272  -19.7661   20.4136 C   0  0  0  0  0  0
  -30.0975  -21.1896   22.2913 C   0  0  0  0  0  0
  -29.5335  -20.9248   19.6136 C   0  0  0  0  0  0
  -29.9074  -19.8853   21.7922 C   0  0  0  0  0  0
  -29.7375  -22.1802   20.2253 C   0  0  0  0  0  0
  -27.8864  -21.1702   17.5893 C   0  0  0  0  0  0
  -28.3546  -19.7346   17.5788 C   0  0  0  0  0  0
  -29.2472  -20.8184   18.1445 C   0  0  0  0  0  0
  -30.6453  -16.6466   21.7344 C   0  0  0  0  0  0
  -29.5247  -17.5368   22.3026 C   0  0  0  0  0  0
  -28.3791  -25.3363   19.7651 C   0  0  0  0  0  0
  -29.7279  -24.6362   20.0113 C   0  0  0  0  0  0
  -30.0132  -22.3081   21.5393 N   0  0  0  0  0  0
  -30.1588  -15.2927   21.4631 N   0  0  0  0  0  0
  -30.0078  -18.8285   22.6777 O   0  0  0  0  0  0
  -29.6805  -23.3179   19.4403 O   0  0  0  0  0  0
  -31.4683  -12.4053   19.0978 H   0  0  0  0  0  0
  -30.3370  -11.2772   19.7826 H   0  0  0  0  0  0
  -29.7268  -11.7869   17.4111 H   0  0  0  0  0  0
  -29.6658  -13.4948   17.7614 H   0  0  0  0  0  0
  -27.8146  -11.3197   18.7902 H   0  0  0  0  0  0
  -27.3662  -12.6694   17.7813 H   0  0  0  0  0  0
  -27.7237  -14.2545   19.5989 H   0  0  0  0  0  0
  -28.6785  -11.9076   21.3054 H   0  0  0  0  0  0
  -28.4573  -13.5237   21.8861 H   0  0  0  0  0  0
  -25.2770   -9.5681   22.4737 H   0  0  0  0  0  0
  -23.9994   -7.4637   22.7481 H   0  0  0  0  0  0
  -21.0837   -8.8762   19.8947 H   0  0  0  0  0  0
  -22.3698  -10.9659   19.6133 H   0  0  0  0  0  0
  -21.2011   -7.6142   23.9704 H   0  0  0  0  0  0
  -21.1467   -6.0516   25.9070 H   0  0  0  0  0  0
  -22.0611   -2.7601   23.2847 H   0  0  0  0  0  0
  -22.4136  -11.9909   22.4775 H   0  0  0  0  0  0
  -21.1119  -13.1245   22.2512 H   0  0  0  0  0  0
  -24.6719  -15.8450   20.5172 H   0  0  0  0  0  0
  -26.2906  -15.6232   20.0844 H   0  0  0  0  0  0
  -26.7109  -32.5518   23.1157 H   0  0  0  0  0  0
  -25.0103  -33.9784   25.0522 H   0  0  0  0  0  0
  -22.6939  -31.3133   21.4137 H   0  0  0  0  0  0
  -23.3768  -35.9603   23.3304 H   0  0  0  0  0  0
  -24.3598  -36.8896   22.2060 H   0  0  0  0  0  0
  -23.7205  -37.6495   23.6641 H   0  0  0  0  0  0
  -26.0513  -31.6020   20.5987 H   0  0  0  0  0  0
  -26.8179  -30.8811   21.9871 H   0  0  0  0  0  0
  -28.1016  -29.1149   21.1501 H   0  0  0  0  0  0
  -26.0175  -25.9783   19.0134 H   0  0  0  0  0  0
  -23.9744  -27.2955   19.0435 H   0  0  0  0  0  0
  -23.7134  -30.6054   19.4040 H   0  0  0  0  0  0
  -22.7332  -29.2489   19.8712 H   0  0  0  0  0  0
  -25.1276  -36.1978   25.0845 H   0  0  0  0  0  0
  -20.9986  -28.3229   24.1425 H   0  0  0  0  0  0
  -20.5714  -26.2253   23.3606 H   0  0  0  0  0  0
  -21.6643  -26.7455   22.1174 H   0  0  0  0  0  0
  -19.6920  -25.6315   21.1220 H   0  0  0  0  0  0
  -19.6714  -27.3247   20.6777 H   0  0  0  0  0  0
  -17.4205  -26.6724   21.4005 H   0  0  0  0  0  0
  -18.0309  -26.0083   22.9006 H   0  0  0  0  0  0
  -19.7935  -30.7284   24.2276 H   0  0  0  0  0  0
  -17.5012  -31.6275   24.5186 H   0  0  0  0  0  0
  -15.5348  -30.3012   23.7661 H   0  0  0  0  0  0
  -15.8670  -28.0850   22.7041 H   0  0  0  0  0  0
  -24.5915  -30.7045   25.7824 H   0  0  0  0  0  0
  -24.8918  -32.2847   26.4927 H   0  0  0  0  0  0
  -25.8092  -30.8875   27.0230 H   0  0  0  0  0  0
  -26.2819  -29.6827   24.1150 H   0  0  0  0  0  0
  -27.4105  -29.7268   25.4510 H   0  0  0  0  0  0
  -27.8642  -30.4408   23.9211 H   0  0  0  0  0  0
  -27.2708  -33.3618   26.2050 H   0  0  0  0  0  0
  -28.3859  -32.6830   25.0278 H   0  0  0  0  0  0
  -28.0739  -31.8421   26.5374 H   0  0  0  0  0  0
  -28.2579  -38.0110   24.7544 H   0  0  0  0  0  0
  -28.1088  -36.2641   24.6239 H   0  0  0  0  0  0
  -27.2316  -37.1384   25.8872 H   0  0  0  0  0  0
  -20.9272  -29.8729   21.6914 H   0  0  0  0  0  0
  -26.0181  -38.2867   24.1450 H   0  0  0  0  0  0
  -29.4895  -18.7991   19.9545 H   0  0  0  0  0  0
  -30.3185  -21.3417   23.3378 H   0  0  0  0  0  0
  -27.0919  -21.4279   18.2890 H   0  0  0  0  0  0
  -27.8434  -21.6749   16.6263 H   0  0  0  0  0  0
  -28.6232  -19.3130   16.6116 H   0  0  0  0  0  0
  -27.8488  -19.0497   18.2569 H   0  0  0  0  0  0
  -30.1193  -21.1087   17.5602 H   0  0  0  0  0  0
  -31.4691  -16.5907   22.4468 H   0  0  0  0  0  0
  -31.0503  -17.0928   20.8259 H   0  0  0  0  0  0
  -29.1383  -17.0772   23.2135 H   0  0  0  0  0  0
  -28.6705  -17.5944   21.6273 H   0  0  0  0  0  0
  -27.6043  -24.8315   20.3452 H   0  0  0  0  0  0
  -28.1260  -25.2352   18.7082 H   0  0  0  0  0  0
  -29.9938  -24.6844   21.0664 H   0  0  0  0  0  0
  -30.5121  -25.1836   19.4868 H   0  0  0  0  0  0
  -29.2962  -15.0063   21.9010 H   0  0  0  0  0  0
  1 25  1  0  0  0
  1 30  2  0  0  0
  1 84  1  0  0  0
  2  3  1  0  0  0
  2 25  1  0  0  0
  2 87  1  0  0  0
  2 88  1  0  0  0
  3  4  1  0  0  0
  3 89  1  0  0  0
  3 90  1  0  0  0
  4  5  1  0  0  0
  4 91  1  0  0  0
  4 92  1  0  0  0
  5  6  1  0  0  0
  5 26  1  0  0  0
  5 93  1  0  0  0
  6 25  1  0  0  0
  6 94  1  0  0  0
  6 95  1  0  0  0
  7  8  2  0  0  0
  7 26  1  0  0  0
  7 29  1  0  0  0
  8  9  1  0  0  0
  8 22  1  0  0  0
  9 10  1  0  0  0
  9 27  2  0  0  0
 10 11  2  0  0  0
 10 15  1  0  0  0
 11 12  1  0  0  0
 11 96  1  0  0  0
 12 13  2  0  0  0
 12 97  1  0  0  0
 13 14  1  0  0  0
 13 31  1  0  0  0
 14 15  2  0  0  0
 14 98  1  0  0  0
 15 99  1  0  0  0
 16 17  2  0  0  0
 16 21  1  0  0  0
 16 31  1  0  0  0
 17 18  1  0  0  0
 17100  1  0  0  0
 18 19  2  0  0  0
 18101  1  0  0  0
 19 20  1  0  0  0
 19 24  1  0  0  0
 20 21  2  0  0  0
 20102  1  0  0  0
 21 23  1  0  0  0
 22 28  1  0  0  0
 22 32  2  0  0  0
 26 27  1  0  0  0
 28103  1  0  0  0
 28104  1  0  0  0
 29105  1  0  0  0
 29106  1  0  0  0
 33 34  1  0  0  0
 33 66  1  0  0  0
 33 70  2  0  0  0
 34 36  1  0  0  0
 34 59  1  0  0  0
 34107  1  0  0  0
 35 44  2  0  0  0
 35 45  1  0  0  0
 35 68  1  0  0  0
 36 56  1  0  0  0
 36108  1  0  0  0
 37 39  1  0  0  0
 37 47  1  0  0  0
 37 66  1  0  0  0
 37109  1  0  0  0
 38 43  2  0  0  0
 38 46  1  0  0  0
 38 47  1  0  0  0
 39 64  1  0  0  0
 39 67  2  0  0  0
 40 52  1  0  0  0
 40 53  2  0  0  0
 40 58  1  0  0  0
 41110  1  0  0  0
 41111  1  0  0  0
 41112  1  0  0  0
 41 48  1  0  0  0
 42 43  1  0  0  0
 42 66  1  0  0  0
 42113  1  0  0  0
 42114  1  0  0  0
 43 44  1  0  0  0
 44115  1  0  0  0
 45 46  2  0  0  0
 45116  1  0  0  0
 46117  1  0  0  0
 47118  1  0  0  0
 47119  1  0  0  0
 48 56  1  0  0  0
 48 65  1  0  0  0
 48120  1  0  0  0
 49 50  1  0  0  0
 49 53  1  0  0  0
 49 64  1  0  0  0
 49121  1  0  0  0
 50 51  1  0  0  0
 50122  1  0  0  0
 50123  1  0  0  0
 51 52  1  0  0  0
 51124  1  0  0  0
 51125  1  0  0  0
 52126  1  0  0  0
 52127  1  0  0  0
 53 54  1  0  0  0
 54 55  2  0  0  0
 54128  1  0  0  0
 55 57  1  0  0  0
 55129  1  0  0  0
 56 69  2  0  0  0
 57 58  2  0  0  0
 57130  1  0  0  0
 58131  1  0  0  0
 59 60  1  0  0  0
 59 61  1  0  0  0
 59 62  1  0  0  0
 60132  1  0  0  0
 60133  1  0  0  0
 60134  1  0  0  0
 61135  1  0  0  0
 61136  1  0  0  0
 61137  1  0  0  0
 62138  1  0  0  0
 62139  1  0  0  0
 62140  1  0  0  0
 63 65  1  0  0  0
 63141  1  0  0  0
 63142  1  0  0  0
 63143  1  0  0  0
 64144  1  0  0  0
 65145  1  0  0  0
 68 81  1  0  0  0
 71 73  2  0  0  0
 71 74  1  0  0  0
 71146  1  0  0  0
 72 74  2  0  0  0
 72 83  1  0  0  0
 72147  1  0  0  0
 73 75  1  0  0  0
 73 78  1  0  0  0
 74 85  1  0  0  0
 75 83  2  0  0  0
 75 86  1  0  0  0
 76 77  1  0  0  0
 76 78  1  0  0  0
 76148  1  0  0  0
 76149  1  0  0  0
 77 78  1  0  0  0
 77150  1  0  0  0
 77151  1  0  0  0
 78152  1  0  0  0
 79 80  1  0  0  0
 79 84  1  0  0  0
 79153  1  0  0  0
 79154  1  0  0  0
 80 85  1  0  0  0
 80155  1  0  0  0
 80156  1  0  0  0
 81 82  1  0  0  0
 81157  1  0  0  0
 81158  1  0  0  0
 82 86  1  0  0  0
 82159  1  0  0  0
 82160  1  0  0  0
 84161  1  0  0  0
M  ISO  4   1 100  68 101  81 101  84 100
M  END
> <chiral flag>
0

> <version>
0

> <s_m_source_file>
/data/baiqing/PycharmProjects/Reinvent-master-3.2/result/LINK_invent/BTK/process_docking_weight1_custom_sum_contain_oxygen_bond_distance_aromatic_linkinvent_7_9_3/rearranged_h_0158.sdf

> <i_m_source_file_index>
76

> <r_mmod_Potential_Energy-OPLS-2005>
-224.350723266602

> <r_mmod_Stretch_Energy-OPLS-2005>
35.7304878234863

> <r_mmod_Bend_Energy-OPLS-2005>
113.574417114258

> <r_mmod_Torsional_Energy-OPLS-2005>
204.064682006836

> <r_mmod_Improper_Torsional_Energy-OPLS-2005>
1.91098380088806

> <r_mmod_Van_der_Waal_Energy-OPLS-2005>
165.942352294922

> <r_mmod_Electrostatic_Energy-OPLS-2005>
-534.60546875

> <r_mmod_Solvation_Energy-OPLS-2005>
-219.82926940918

> <b_mmod_Minimization_Converged-OPLS-2005>
0

> <r_mmod_RMS_Derivative-OPLS-2005>
2.51394534111023

$$$$
76
                    3D
 Structure written by MMmdl.
171181  0  0  1  0            999 V2000
  -30.6625  -14.7294   20.4653 C   0  0  0  0  0  0
  -30.4162  -12.4519   19.4710 C   0  0  0  0  0  0
  -29.5009  -12.5046   18.2310 C   0  0  0  0  0  0
  -28.0282  -12.3351   18.6474 C   0  0  0  0  0  0
  -27.6362  -13.2404   19.8467 C   0  0  2  0  0  0
  -28.6828  -13.1933   20.9792 C   0  0  0  0  0  0
  -25.2490  -13.8226   20.5717 C   0  0  0  0  0  0
  -24.1788  -13.0454   20.9208 C   0  0  0  0  0  0
  -24.6397  -11.6936   20.8755 C   0  0  0  0  0  0
  -23.9079  -10.4302   21.0409 C   0  0  0  0  0  0
  -24.3631   -9.4215   21.9183 C   0  0  0  0  0  0
  -23.6302   -8.2252   22.0753 C   0  0  0  0  0  0
  -22.4282   -8.0290   21.3547 C   0  0  0  0  0  0
  -21.9923   -9.0264   20.4647 C   0  0  0  0  0  0
  -22.7253  -10.2142   20.3056 C   0  0  0  0  0  0
  -21.6855   -6.0741   22.5278 C   0  0  0  0  0  0
  -21.4015   -6.5642   23.8213 C   0  0  0  0  0  0
  -21.3661   -5.6793   24.9175 C   0  0  0  0  0  0
  -21.6047   -4.3057   24.7224 C   0  0  0  0  0  0
  -21.8819   -3.8150   23.4344 C   0  0  0  0  0  0
  -21.9194   -4.6968   22.3401 C   0  0  0  0  0  0
  -22.7807  -13.5223   21.1867 C   0  0  0  0  0  0
  -22.1662   -4.2155   21.0976 F   0  0  0  0  0  0
  -21.5629   -3.4537   25.7736 F   0  0  0  0  0  0
  -29.9769  -13.5368   20.3819 N   0  0  0  0  0  0
  -26.2916  -12.9450   20.3296 N   0  0  0  0  0  0
  -25.9329  -11.6583   20.5769 N   0  0  0  0  0  0
  -22.0465  -12.8202   22.0425 N   0  0  0  0  0  0
  -25.4189  -15.1951   20.4157 N   0  0  0  0  0  0
  -31.8654  -14.7300   20.1829 O   0  0  0  0  0  0
  -21.6645   -6.8887   21.4242 O   0  0  0  0  0  0
  -22.3484  -14.5525   20.6718 O   0  0  0  0  0  0
  -24.6312  -31.8565   23.2002 C   0  0  0  0  0  0
  -25.9141  -32.4760   23.8342 C   0  0  1  0  0  0
  -27.2079  -27.2674   20.1327 C   0  0  0  0  0  0
  -25.5941  -33.8562   24.2264 N   0  0  0  0  0  0
  -23.4277  -30.4803   21.5438 C   0  0  2  0  0  0
  -24.8754  -28.9339   20.1063 C   0  0  0  0  0  0
  -22.7503  -29.4604   22.4913 C   0  0  0  0  0  0
  -18.0292  -28.1390   22.8483 C   0  0  0  0  0  0
  -24.1491  -36.7281   23.2638 C   0  0  0  0  0  0
  -25.9744  -30.7710   21.3813 C   0  0  0  0  0  0
  -26.0476  -29.3953   20.7216 C   0  0  0  0  0  0
  -27.2216  -28.5736   20.7263 C   0  0  0  0  0  0
  -26.0245  -26.8859   19.4662 C   0  0  0  0  0  0
  -24.8689  -27.6871   19.4653 C   0  0  0  0  0  0
  -23.6455  -29.8191   20.1579 C   0  0  0  0  0  0
  -25.4116  -36.3069   24.0326 C   0  0  1  0  0  0
  -20.5897  -28.3701   23.1268 C   0  0  2  0  0  0
  -20.6780  -26.9417   22.5413 C   0  0  0  0  0  0
  -19.5756  -26.6384   21.5214 C   0  0  0  0  0  0
  -18.1934  -26.7934   22.1620 C   0  0  0  0  0  0
  -19.1547  -28.8862   23.2870 C   0  0  0  0  0  0
  -18.9467  -30.1463   23.8886 C   0  0  0  0  0  0
  -17.6465  -30.6588   24.0563 C   0  0  0  0  0  0
  -25.9060  -34.9441   23.5095 C   0  0  0  0  0  0
  -16.5357  -29.9083   23.6333 C   0  0  0  0  0  0
  -16.7280  -28.6503   23.0352 C   0  0  0  0  0  0
  -26.4505  -31.6582   25.0732 C   0  0  0  0  0  0
  -25.3723  -31.3733   26.1448 C   0  0  0  0  0  0
  -27.0356  -30.2997   24.6225 C   0  0  0  0  0  0
  -27.6058  -32.4326   25.7502 C   0  0  0  0  0  0
  -27.5584  -37.1790   24.8458 C   0  0  0  0  0  0
  -21.4212  -29.3044   22.3654 N   0  0  0  0  0  0
  -26.4286  -37.3772   23.9417 N   0  0  0  0  0  0
  -24.6966  -31.0534   22.0980 N   0  0  0  0  0  0
  -23.4204  -28.8142   23.3009 O   0  0  0  0  0  0
  -28.2486  -26.3153   20.1949 O   0  0  0  0  0  0
  -26.5628  -34.8915   22.4663 O   0  0  0  0  0  0
  -23.5462  -32.1385   23.7299 O   0  0  0  0  0  0
  -28.5131  -21.2880   19.6380 C   0  0  0  0  0  0
  -29.3231  -23.0037   21.6578 C   0  0  0  0  0  0
  -29.2840  -20.6904   20.6807 C   0  0  0  0  0  0
  -29.6996  -21.6137   21.7014 C   0  0  0  0  0  0
  -28.1374  -22.6790   19.6122 C   0  0  0  0  0  0
  -28.5213  -23.5911   20.6424 C   0  0  0  0  0  0
  -28.9536  -18.1230   21.5805 C   0  0  0  0  0  0
  -29.7443  -18.3754   19.3308 C   0  0  0  0  0  0
  -32.0502  -21.2974   22.6045 C   0  0  0  0  0  0
  -29.5987  -16.6705   21.6914 C   0  0  0  0  0  0
  -30.4331  -16.9537   19.4070 C   0  0  0  0  0  0
  -32.3545  -22.6904   23.1584 C   0  0  0  0  0  0
  -30.4274  -21.8814   24.1926 C   0  0  0  0  0  0
  -29.7231  -19.1398   20.6772 C   0  0  0  0  0  0
  -30.5665  -21.1141   22.8719 C   0  0  1  0  0  0
  -27.2583  -23.1709   18.4770 C   0  0  0  0  0  0
  -27.8620  -25.0321   20.8715 C   0  0  0  0  0  0
  -29.9751  -15.9535   20.4331 N   0  0  0  0  0  0
  -31.3308  -22.9818   24.1102 O   0  0  0  0  0  0
  -31.4589  -12.5504   19.1656 H   0  0  0  0  0  0
  -30.3434  -11.4827   19.9670 H   0  0  0  0  0  0
  -29.7807  -11.7277   17.5184 H   0  0  0  0  0  0
  -29.6314  -13.4573   17.7149 H   0  0  0  0  0  0
  -27.8820  -11.2869   18.9123 H   0  0  0  0  0  0
  -27.3708  -12.5272   17.7991 H   0  0  0  0  0  0
  -27.6256  -14.2603   19.4609 H   0  0  0  0  0  0
  -28.7203  -12.2043   21.4381 H   0  0  0  0  0  0
  -28.4195  -13.8904   21.7737 H   0  0  0  0  0  0
  -25.2779   -9.5687   22.4753 H   0  0  0  0  0  0
  -24.0011   -7.4640   22.7471 H   0  0  0  0  0  0
  -21.0856   -8.8788   19.8948 H   0  0  0  0  0  0
  -22.3717  -10.9682   19.6165 H   0  0  0  0  0  0
  -21.2008   -7.6151   23.9719 H   0  0  0  0  0  0
  -21.1481   -6.0523   25.9079 H   0  0  0  0  0  0
  -22.0595   -2.7611   23.2841 H   0  0  0  0  0  0
  -22.4097  -11.9868   22.4808 H   0  0  0  0  0  0
  -21.1082  -13.1212   22.2642 H   0  0  0  0  0  0
  -24.6565  -15.8529   20.5348 H   0  0  0  0  0  0
  -26.2816  -15.6362   20.1220 H   0  0  0  0  0  0
  -26.7209  -32.5416   23.1085 H   0  0  0  0  0  0
  -25.0092  -33.9700   25.0411 H   0  0  0  0  0  0
  -22.7237  -31.3026   21.4004 H   0  0  0  0  0  0
  -23.3762  -35.9603   23.3277 H   0  0  0  0  0  0
  -24.3585  -36.8932   22.2058 H   0  0  0  0  0  0
  -23.7229  -37.6467   23.6681 H   0  0  0  0  0  0
  -26.1143  -31.5330   20.6134 H   0  0  0  0  0  0
  -26.8511  -30.8179   22.0157 H   0  0  0  0  0  0
  -28.1145  -28.9139   21.2317 H   0  0  0  0  0  0
  -25.9760  -25.9285   18.9673 H   0  0  0  0  0  0
  -23.9750  -27.3322   18.9707 H   0  0  0  0  0  0
  -23.7676  -30.5980   19.4044 H   0  0  0  0  0  0
  -22.7638  -29.2529   19.8524 H   0  0  0  0  0  0
  -25.1292  -36.1913   25.0816 H   0  0  0  0  0  0
  -20.9989  -28.3286   24.1389 H   0  0  0  0  0  0
  -20.5683  -26.2310   23.3618 H   0  0  0  0  0  0
  -21.6648  -26.7439   22.1208 H   0  0  0  0  0  0
  -19.6919  -25.6292   21.1248 H   0  0  0  0  0  0
  -19.6697  -27.3188   20.6739 H   0  0  0  0  0  0
  -17.4207  -26.6689   21.4017 H   0  0  0  0  0  0
  -18.0325  -26.0074   22.9012 H   0  0  0  0  0  0
  -19.7942  -30.7287   24.2248 H   0  0  0  0  0  0
  -17.5017  -31.6265   24.5172 H   0  0  0  0  0  0
  -15.5357  -30.2981   23.7664 H   0  0  0  0  0  0
  -15.8681  -28.0822   22.7068 H   0  0  0  0  0  0
  -24.5915  -30.7060   25.7781 H   0  0  0  0  0  0
  -24.8894  -32.2902   26.4838 H   0  0  0  0  0  0
  -25.8040  -30.8944   27.0246 H   0  0  0  0  0  0
  -26.2947  -29.6740   24.1239 H   0  0  0  0  0  0
  -27.4019  -29.7263   25.4752 H   0  0  0  0  0  0
  -27.8830  -30.4263   23.9485 H   0  0  0  0  0  0
  -27.2666  -33.3633   26.2059 H   0  0  0  0  0  0
  -28.3874  -32.6875   25.0333 H   0  0  0  0  0  0
  -28.0720  -31.8467   26.5434 H   0  0  0  0  0  0
  -28.2574  -38.0114   24.7541 H   0  0  0  0  0  0
  -28.1106  -36.2648   24.6232 H   0  0  0  0  0  0
  -27.2311  -37.1375   25.8861 H   0  0  0  0  0  0
  -20.9400  -29.8765   21.6859 H   0  0  0  0  0  0
  -26.0162  -38.2838   24.1447 H   0  0  0  0  0  0
  -28.1785  -20.6529   18.8299 H   0  0  0  0  0  0
  -29.6141  -23.6541   22.4685 H   0  0  0  0  0  0
  -28.8503  -18.5256   22.5874 H   0  0  0  0  0  0
  -27.9300  -18.0304   21.2145 H   0  0  0  0  0  0
  -28.7286  -18.2699   18.9467 H   0  0  0  0  0  0
  -30.2781  -18.9760   18.5933 H   0  0  0  0  0  0
  -32.6108  -20.5605   23.1816 H   0  0  0  0  0  0
  -32.3284  -21.1742   21.5574 H   0  0  0  0  0  0
  -28.9212  -16.0391   22.2660 H   0  0  0  0  0  0
  -30.5024  -16.7500   22.2981 H   0  0  0  0  0  0
  -31.4991  -17.1332   19.5596 H   0  0  0  0  0  0
  -30.3553  -16.4849   18.4244 H   0  0  0  0  0  0
  -32.3147  -23.4370   22.3646 H   0  0  0  0  0  0
  -33.3440  -22.7393   23.6147 H   0  0  0  0  0  0
  -30.7575  -21.2495   25.0191 H   0  0  0  0  0  0
  -29.4042  -22.1894   24.4114 H   0  0  0  0  0  0
  -30.7596  -19.1480   21.0151 H   0  0  0  0  0  0
  -30.3430  -20.0698   23.0738 H   0  0  0  0  0  0
  -27.2443  -22.4641   17.6470 H   0  0  0  0  0  0
  -27.6227  -24.1244   18.0925 H   0  0  0  0  0  0
  -26.2332  -23.3081   18.8219 H   0  0  0  0  0  0
  -27.9784  -25.2458   21.9346 H   0  0  0  0  0  0
  -26.7915  -24.8537   20.7773 H   0  0  0  0  0  0
  1 25  1  0  0  0
  1 30  2  0  0  0
  1 88  1  0  0  0
  2  3  1  0  0  0
  2 25  1  0  0  0
  2 90  1  0  0  0
  2 91  1  0  0  0
  3  4  1  0  0  0
  3 92  1  0  0  0
  3 93  1  0  0  0
  4  5  1  0  0  0
  4 94  1  0  0  0
  4 95  1  0  0  0
  5  6  1  0  0  0
  5 26  1  0  0  0
  5 96  1  0  0  0
  6 25  1  0  0  0
  6 97  1  0  0  0
  6 98  1  0  0  0
  7  8  2  0  0  0
  7 26  1  0  0  0
  7 29  1  0  0  0
  8  9  1  0  0  0
  8 22  1  0  0  0
  9 10  1  0  0  0
  9 27  2  0  0  0
 10 11  2  0  0  0
 10 15  1  0  0  0
 11 12  1  0  0  0
 11 99  1  0  0  0
 12 13  2  0  0  0
 12100  1  0  0  0
 13 14  1  0  0  0
 13 31  1  0  0  0
 14 15  2  0  0  0
 14101  1  0  0  0
 15102  1  0  0  0
 16 17  2  0  0  0
 16 21  1  0  0  0
 16 31  1  0  0  0
 17 18  1  0  0  0
 17103  1  0  0  0
 18 19  2  0  0  0
 18104  1  0  0  0
 19 20  1  0  0  0
 19 24  1  0  0  0
 20 21  2  0  0  0
 20105  1  0  0  0
 21 23  1  0  0  0
 22 28  1  0  0  0
 22 32  2  0  0  0
 26 27  1  0  0  0
 28106  1  0  0  0
 28107  1  0  0  0
 29108  1  0  0  0
 29109  1  0  0  0
 33 34  1  0  0  0
 33 66  1  0  0  0
 33 70  2  0  0  0
 34 36  1  0  0  0
 34 59  1  0  0  0
 34110  1  0  0  0
 35 44  2  0  0  0
 35 45  1  0  0  0
 35 68  1  0  0  0
 36 56  1  0  0  0
 36111  1  0  0  0
 37 39  1  0  0  0
 37 47  1  0  0  0
 37 66  1  0  0  0
 37112  1  0  0  0
 38 43  2  0  0  0
 38 46  1  0  0  0
 38 47  1  0  0  0
 39 64  1  0  0  0
 39 67  2  0  0  0
 40 52  1  0  0  0
 40 53  2  0  0  0
 40 58  1  0  0  0
 41113  1  0  0  0
 41114  1  0  0  0
 41115  1  0  0  0
 41 48  1  0  0  0
 42 43  1  0  0  0
 42 66  1  0  0  0
 42116  1  0  0  0
 42117  1  0  0  0
 43 44  1  0  0  0
 44118  1  0  0  0
 45 46  2  0  0  0
 45119  1  0  0  0
 46120  1  0  0  0
 47121  1  0  0  0
 47122  1  0  0  0
 48 56  1  0  0  0
 48 65  1  0  0  0
 48123  1  0  0  0
 49 50  1  0  0  0
 49 53  1  0  0  0
 49 64  1  0  0  0
 49124  1  0  0  0
 50 51  1  0  0  0
 50125  1  0  0  0
 50126  1  0  0  0
 51 52  1  0  0  0
 51127  1  0  0  0
 51128  1  0  0  0
 52129  1  0  0  0
 52130  1  0  0  0
 53 54  1  0  0  0
 54 55  2  0  0  0
 54131  1  0  0  0
 55 57  1  0  0  0
 55132  1  0  0  0
 56 69  2  0  0  0
 57 58  2  0  0  0
 57133  1  0  0  0
 58134  1  0  0  0
 59 60  1  0  0  0
 59 61  1  0  0  0
 59 62  1  0  0  0
 60135  1  0  0  0
 60136  1  0  0  0
 60137  1  0  0  0
 61138  1  0  0  0
 61139  1  0  0  0
 61140  1  0  0  0
 62141  1  0  0  0
 62142  1  0  0  0
 62143  1  0  0  0
 63 65  1  0  0  0
 63144  1  0  0  0
 63145  1  0  0  0
 63146  1  0  0  0
 64147  1  0  0  0
 65148  1  0  0  0
 68 87  1  0  0  0
 71 73  2  0  0  0
 71 75  1  0  0  0
 71149  1  0  0  0
 72 74  2  0  0  0
 72 76  1  0  0  0
 72150  1  0  0  0
 73 74  1  0  0  0
 73 84  1  0  0  0
 74 85  1  0  0  0
 75 76  2  0  0  0
 75 86  1  0  0  0
 76 87  1  0  0  0
 77 80  1  0  0  0
 77 84  1  0  0  0
 77151  1  0  0  0
 77152  1  0  0  0
 78 81  1  0  0  0
 78 84  1  0  0  0
 78153  1  0  0  0
 78154  1  0  0  0
 79 82  1  0  0  0
 79 85  1  0  0  0
 79155  1  0  0  0
 79156  1  0  0  0
 80 88  1  0  0  0
 80157  1  0  0  0
 80158  1  0  0  0
 81 88  1  0  0  0
 81159  1  0  0  0
 81160  1  0  0  0
 82 89  1  0  0  0
 82161  1  0  0  0
 82162  1  0  0  0
 83 85  1  0  0  0
 83 89  1  0  0  0
 83163  1  0  0  0
 83164  1  0  0  0
 84165  1  0  0  0
 85166  1  0  0  0
 86167  1  0  0  0
 86168  1  0  0  0
 86169  1  0  0  0
 87170  1  0  0  0
 87171  1  0  0  0
M  ISO  4   1 100  68 101  87 101  88 100
M  END
> <chiral flag>
0

> <version>
0

> <s_m_source_file>
/data/baiqing/PycharmProjects/Reinvent-master-3.2/result/LINK_invent/BTK/process_docking_weight1_custom_sum_contain_oxygen_bond_distance_aromatic_linkinvent_7_9_3/rearranged_h_0158.sdf

> <i_m_source_file_index>
77

> <r_mmod_Potential_Energy-OPLS-2005>
509.03857421875

> <r_mmod_Stretch_Energy-OPLS-2005>
119.933135986328

> <r_mmod_Bend_Energy-OPLS-2005>
211.34407043457

> <r_mmod_Torsional_Energy-OPLS-2005>
400.91748046875

> <r_mmod_Improper_Torsional_Energy-OPLS-2005>
18.5166645050049

> <r_mmod_Van_der_Waal_Energy-OPLS-2005>
144.831588745117

> <r_mmod_Electrostatic_Energy-OPLS-2005>
-277.270538330078

> <r_mmod_Solvation_Energy-OPLS-2005>
-198.964263916016

> <b_mmod_Minimization_Converged-OPLS-2005>
0

> <r_mmod_RMS_Derivative-OPLS-2005>
0.576191306114197

$$$$
77
                    3D
 Structure written by MMmdl.
179188  0  0  1  0            999 V2000
  -30.7968  -14.3509   20.5293 C   0  0  0  0  0  0
  -30.4291  -12.2179   19.3884 C   0  0  0  0  0  0
  -29.4845  -12.4304   18.1905 C   0  0  0  0  0  0
  -28.0143  -12.3106   18.6333 C   0  0  0  0  0  0
  -27.6831  -13.1706   19.8833 C   0  0  2  0  0  0
  -28.7373  -12.9422   20.9870 C   0  0  0  0  0  0
  -25.2725  -13.8021   20.5740 C   0  0  0  0  0  0
  -24.1914  -13.0427   20.9042 C   0  0  0  0  0  0
  -24.6398  -11.6823   20.8659 C   0  0  0  0  0  0
  -23.9020  -10.4288   21.0369 C   0  0  0  0  0  0
  -24.3596   -9.4236   21.9162 C   0  0  0  0  0  0
  -23.6283   -8.2275   22.0762 C   0  0  0  0  0  0
  -22.4300   -8.0292   21.3534 C   0  0  0  0  0  0
  -21.9902   -9.0232   20.4665 C   0  0  0  0  0  0
  -22.7172  -10.2113   20.3037 C   0  0  0  0  0  0
  -21.6870   -6.0783   22.5265 C   0  0  0  0  0  0
  -21.4025   -6.5679   23.8203 C   0  0  0  0  0  0
  -21.3621   -5.6804   24.9152 C   0  0  0  0  0  0
  -21.6059   -4.3080   24.7180 C   0  0  0  0  0  0
  -21.8817   -3.8179   23.4301 C   0  0  0  0  0  0
  -21.9211   -4.7018   22.3368 C   0  0  0  0  0  0
  -22.7934  -13.5219   21.1715 C   0  0  0  0  0  0
  -22.1689   -4.2218   21.0950 F   0  0  0  0  0  0
  -21.5589   -3.4555   25.7686 F   0  0  0  0  0  0
  -30.0741  -13.2083   20.4128 N   0  0  0  0  0  0
  -26.3195  -12.9161   20.3485 N   0  0  0  0  0  0
  -25.9336  -11.6403   20.5871 N   0  0  0  0  0  0
  -22.0560  -12.8231   22.0316 N   0  0  0  0  0  0
  -25.4523  -15.1712   20.4213 N   0  0  0  0  0  0
  -31.9357  -14.4962   20.0757 O   0  0  0  0  0  0
  -21.6630   -6.8915   21.4251 O   0  0  0  0  0  0
  -22.3581  -14.5545   20.6592 O   0  0  0  0  0  0
  -24.6191  -31.8668   23.2278 C   0  0  0  0  0  0
  -25.9075  -32.4852   23.8522 C   0  0  1  0  0  0
  -27.1475  -27.4025   20.0446 C   0  0  0  0  0  0
  -25.6007  -33.8658   24.2460 N   0  0  0  0  0  0
  -23.3995  -30.5073   21.5649 C   0  0  2  0  0  0
  -24.8221  -28.9910   20.1089 C   0  0  0  0  0  0
  -22.7301  -29.4744   22.5035 C   0  0  0  0  0  0
  -18.0265  -28.1250   22.8315 C   0  0  0  0  0  0
  -24.1471  -36.7299   23.2620 C   0  0  0  0  0  0
  -25.9461  -30.7984   21.4114 C   0  0  0  0  0  0
  -25.9939  -29.4333   20.7587 C   0  0  0  0  0  0
  -27.1532  -28.6089   20.7794 C   0  0  0  0  0  0
  -26.0376  -27.1193   19.2397 C   0  0  0  0  0  0
  -24.8425  -27.8232   19.3505 C   0  0  0  0  0  0
  -23.5971  -29.8631   20.1753 C   0  0  0  0  0  0
  -25.4122  -36.3104   24.0330 C   0  0  1  0  0  0
  -20.5747  -28.3583   23.1193 C   0  0  2  0  0  0
  -20.6724  -26.9444   22.5087 C   0  0  0  0  0  0
  -19.5848  -26.6826   21.4632 C   0  0  0  0  0  0
  -18.2057  -26.7899   22.1327 C   0  0  0  0  0  0
  -19.1426  -28.8759   23.2910 C   0  0  0  0  0  0
  -18.9211  -30.1250   23.9133 C   0  0  0  0  0  0
  -17.6090  -30.6190   24.0607 C   0  0  0  0  0  0
  -25.9096  -34.9476   23.5210 C   0  0  0  0  0  0
  -16.5090  -29.8762   23.5982 C   0  0  0  0  0  0
  -16.7173  -28.6170   23.0050 C   0  0  0  0  0  0
  -26.4448  -31.6584   25.0879 C   0  0  0  0  0  0
  -25.3699  -31.3736   26.1636 C   0  0  0  0  0  0
  -27.0354  -30.3028   24.6370 C   0  0  0  0  0  0
  -27.6051  -32.4371   25.7588 C   0  0  0  0  0  0
  -27.5595  -37.1825   24.8481 C   0  0  0  0  0  0
  -21.4061  -29.2933   22.3537 N   0  0  0  0  0  0
  -26.4319  -37.3817   23.9391 N   0  0  0  0  0  0
  -24.6736  -31.0729   22.1212 N   0  0  0  0  0  0
  -23.4038  -28.8323   23.3158 O   0  0  0  0  0  0
  -28.1291  -26.4430   20.0779 O   0  0  0  0  0  0
  -26.5595  -34.8941   22.4718 O   0  0  0  0  0  0
  -23.5406  -32.1521   23.7616 O   0  0  0  0  0  0
  -24.9500  -19.8147   23.5107 C   0  0  0  0  0  0
  -26.2212  -19.8376   21.0255 C   0  0  0  0  0  0
  -24.8209  -20.9460   22.6811 C   0  0  0  0  0  0
  -25.6416  -18.6799   23.0778 C   0  0  0  0  0  0
  -25.4572  -20.9640   21.4044 C   0  0  0  0  0  0
  -26.2850  -18.6931   21.8264 C   0  0  0  0  0  0
  -28.5974  -16.4631   22.4137 C   0  0  0  0  0  0
  -28.7508  -17.2439   19.9493 C   0  0  0  0  0  0
  -29.9792  -15.8483   22.2398 C   0  0  0  0  0  0
  -30.1309  -16.5820   19.9336 C   0  0  0  0  0  0
  -28.2720  -17.5548   21.3795 C   0  0  0  0  0  0
  -23.9299  -22.0420   23.2288 C   0  0  0  0  0  0
  -25.6656  -17.4519   23.9715 C   0  0  0  0  0  0
  -27.4145  -23.3754   18.6854 C   0  0  0  0  0  0
  -24.3760  -24.2257   20.8750 C   0  0  0  0  0  0
  -25.2599  -22.0258   20.3135 C   0  0  0  0  0  0
  -27.6300  -25.1588   20.6024 C   0  0  0  0  0  0
  -26.6334  -24.1736   19.7886 C   0  0  2  0  0  0
  -30.0934  -15.4371   20.8488 N   0  0  0  0  0  0
  -25.6396  -23.4264   20.6812 N   0  3  1  0  0  0
  -26.8618  -17.5695   21.3480 O   0  0  0  0  0  0
  -31.4740  -12.2839   19.0739 H   0  0  0  0  0  0
  -30.3104  -11.2065   19.7942 H   0  0  0  0  0  0
  -29.6965  -11.6914   17.4148 H   0  0  0  0  0  0
  -29.6539  -13.4031   17.7282 H   0  0  0  0  0  0
  -27.8393  -11.2599   18.8709 H   0  0  0  0  0  0
  -27.3408  -12.5465   17.8105 H   0  0  0  0  0  0
  -27.7388  -14.2122   19.5751 H   0  0  0  0  0  0
  -28.6961  -11.9072   21.3398 H   0  0  0  0  0  0
  -28.5307  -13.5570   21.8573 H   0  0  0  0  0  0
  -25.2773   -9.5764   22.4701 H   0  0  0  0  0  0
  -24.0025   -7.4707   22.7509 H   0  0  0  0  0  0
  -21.0822   -8.8697   19.8975 H   0  0  0  0  0  0
  -22.3601  -10.9632   19.6131 H   0  0  0  0  0  0
  -21.2036   -7.6199   23.9697 H   0  0  0  0  0  0
  -21.1435   -6.0564   25.9050 H   0  0  0  0  0  0
  -22.0642   -2.7670   23.2750 H   0  0  0  0  0  0
  -22.4198  -11.9868   22.4608 H   0  0  0  0  0  0
  -21.1224  -13.1305   22.2602 H   0  0  0  0  0  0
  -24.6992  -15.8187   20.6325 H   0  0  0  0  0  0
  -26.3557  -15.6356   20.4197 H   0  0  0  0  0  0
  -26.7182  -32.5532   23.1347 H   0  0  0  0  0  0
  -25.0103  -33.9782   25.0584 H   0  0  0  0  0  0
  -22.6971  -31.3405   21.4362 H   0  0  0  0  0  0
  -23.3741  -35.9627   23.3305 H   0  0  0  0  0  0
  -24.3544  -36.8909   22.2026 H   0  0  0  0  0  0
  -23.7199  -37.6526   23.6605 H   0  0  0  0  0  0
  -26.0970  -31.5731   20.6598 H   0  0  0  0  0  0
  -26.8302  -30.8324   22.0429 H   0  0  0  0  0  0
  -28.0376  -28.8703   21.3439 H   0  0  0  0  0  0
  -26.1184  -26.4129   18.4347 H   0  0  0  0  0  0
  -23.9975  -27.5389   18.7373 H   0  0  0  0  0  0
  -23.6943  -30.6427   19.4211 H   0  0  0  0  0  0
  -22.7198  -29.2951   19.8814 H   0  0  0  0  0  0
  -25.1250  -36.1999   25.0821 H   0  0  0  0  0  0
  -20.9741  -28.3000   24.1315 H   0  0  0  0  0  0
  -20.5771  -26.2015   23.3078 H   0  0  0  0  0  0
  -21.6681  -26.7929   22.0879 H   0  0  0  0  0  0
  -19.7250  -25.7038   21.0105 H   0  0  0  0  0  0
  -19.6432  -27.4120   20.6483 H   0  0  0  0  0  0
  -17.4154  -26.6774   21.3874 H   0  0  0  0  0  0
  -18.1020  -25.9956   22.8759 H   0  0  0  0  0  0
  -19.7429  -30.7145   24.3003 H   0  0  0  0  0  0
  -17.4311  -31.5585   24.5499 H   0  0  0  0  0  0
  -15.4981  -30.2497   23.7350 H   0  0  0  0  0  0
  -15.8804  -28.0286   22.6602 H   0  0  0  0  0  0
  -24.5887  -30.7070   25.7978 H   0  0  0  0  0  0
  -24.8870  -32.2908   26.5023 H   0  0  0  0  0  0
  -25.8032  -30.8939   27.0417 H   0  0  0  0  0  0
  -26.3017  -29.6802   24.1313 H   0  0  0  0  0  0
  -27.3927  -29.7290   25.4884 H   0  0  0  0  0  0
  -27.8869  -30.4326   23.9750 H   0  0  0  0  0  0
  -27.2679  -33.3693   26.2137 H   0  0  0  0  0  0
  -28.3822  -32.6946   25.0384 H   0  0  0  0  0  0
  -28.0789  -31.8573   26.5531 H   0  0  0  0  0  0
  -28.2620  -38.0106   24.7526 H   0  0  0  0  0  0
  -28.1070  -36.2648   24.6294 H   0  0  0  0  0  0
  -27.2306  -37.1485   25.8885 H   0  0  0  0  0  0
  -20.9339  -29.7959   21.6050 H   0  0  0  0  0  0
  -26.0191  -38.2900   24.1386 H   0  0  0  0  0  0
  -24.4599  -19.7731   24.4779 H   0  0  0  0  0  0
  -26.6837  -19.7989   20.0479 H   0  0  0  0  0  0
  -28.5179  -16.8657   23.4163 H   0  0  0  0  0  0
  -27.8510  -15.6709   22.3576 H   0  0  0  0  0  0
  -28.0424  -16.5759   19.4526 H   0  0  0  0  0  0
  -28.7635  -18.1514   19.3455 H   0  0  0  0  0  0
  -30.0985  -15.0105   22.9301 H   0  0  0  0  0  0
  -30.7667  -16.5716   22.4602 H   0  0  0  0  0  0
  -30.9126  -17.2879   20.2173 H   0  0  0  0  0  0
  -30.3489  -16.2490   18.9111 H   0  0  0  0  0  0
  -28.7310  -18.4940   21.7055 H   0  0  0  0  0  0
  -22.9420  -22.0056   22.7569 H   0  0  0  0  0  0
  -24.3889  -23.0191   23.1099 H   0  0  0  0  0  0
  -23.7567  -21.9137   24.2988 H   0  0  0  0  0  0
  -24.7918  -17.4552   24.6149 H   0  0  0  0  0  0
  -26.5529  -17.4248   24.6151 H   0  0  0  0  0  0
  -25.6077  -16.5529   23.3735 H   0  0  0  0  0  0
  -27.8977  -24.0832   18.0056 H   0  0  0  0  0  0
  -26.7899  -22.7664   18.0157 H   0  0  0  0  0  0
  -28.2123  -22.7461   19.0849 H   0  0  0  0  0  0
  -23.5444  -23.6682   21.3163 H   0  0  0  0  0  0
  -23.9415  -24.5563   19.9310 H   0  0  0  0  0  0
  -24.5051  -25.1125   21.4928 H   0  0  0  0  0  0
  -24.2481  -21.9633   19.9103 H   0  0  0  0  0  0
  -25.8397  -21.6634   19.4748 H   0  0  0  0  0  0
  -28.5333  -24.5814   20.8184 H   0  0  0  0  0  0
  -27.2529  -25.3476   21.6102 H   0  0  0  0  0  0
  -25.9192  -24.6596   19.1427 H   0  0  0  0  0  0
  -26.0625  -23.3154   21.5898 H   0  0  0  0  0  0
  1 25  1  0  0  0
  1 30  2  0  0  0
  1 89  1  0  0  0
  2  3  1  0  0  0
  2 25  1  0  0  0
  2 92  1  0  0  0
  2 93  1  0  0  0
  3  4  1  0  0  0
  3 94  1  0  0  0
  3 95  1  0  0  0
  4  5  1  0  0  0
  4 96  1  0  0  0
  4 97  1  0  0  0
  5  6  1  0  0  0
  5 26  1  0  0  0
  5 98  1  0  0  0
  6 25  1  0  0  0
  6 99  1  0  0  0
  6100  1  0  0  0
  7  8  2  0  0  0
  7 26  1  0  0  0
  7 29  1  0  0  0
  8  9  1  0  0  0
  8 22  1  0  0  0
  9 10  1  0  0  0
  9 27  2  0  0  0
 10 11  2  0  0  0
 10 15  1  0  0  0
 11 12  1  0  0  0
 11101  1  0  0  0
 12 13  2  0  0  0
 12102  1  0  0  0
 13 14  1  0  0  0
 13 31  1  0  0  0
 14 15  2  0  0  0
 14103  1  0  0  0
 15104  1  0  0  0
 16 17  2  0  0  0
 16 21  1  0  0  0
 16 31  1  0  0  0
 17 18  1  0  0  0
 17105  1  0  0  0
 18 19  2  0  0  0
 18106  1  0  0  0
 19 20  1  0  0  0
 19 24  1  0  0  0
 20 21  2  0  0  0
 20107  1  0  0  0
 21 23  1  0  0  0
 22 28  1  0  0  0
 22 32  2  0  0  0
 26 27  1  0  0  0
 28108  1  0  0  0
 28109  1  0  0  0
 29110  1  0  0  0
 29111  1  0  0  0
 33 34  1  0  0  0
 33 66  1  0  0  0
 33 70  2  0  0  0
 34 36  1  0  0  0
 34 59  1  0  0  0
 34112  1  0  0  0
 35 44  2  0  0  0
 35 45  1  0  0  0
 35 68  1  0  0  0
 36 56  1  0  0  0
 36113  1  0  0  0
 37 39  1  0  0  0
 37 47  1  0  0  0
 37 66  1  0  0  0
 37114  1  0  0  0
 38 43  2  0  0  0
 38 46  1  0  0  0
 38 47  1  0  0  0
 39 64  1  0  0  0
 39 67  2  0  0  0
 40 52  1  0  0  0
 40 53  2  0  0  0
 40 58  1  0  0  0
 41115  1  0  0  0
 41116  1  0  0  0
 41117  1  0  0  0
 41 48  1  0  0  0
 42 43  1  0  0  0
 42 66  1  0  0  0
 42118  1  0  0  0
 42119  1  0  0  0
 43 44  1  0  0  0
 44120  1  0  0  0
 45 46  2  0  0  0
 45121  1  0  0  0
 46122  1  0  0  0
 47123  1  0  0  0
 47124  1  0  0  0
 48 56  1  0  0  0
 48 65  1  0  0  0
 48125  1  0  0  0
 49 50  1  0  0  0
 49 53  1  0  0  0
 49 64  1  0  0  0
 49126  1  0  0  0
 50 51  1  0  0  0
 50127  1  0  0  0
 50128  1  0  0  0
 51 52  1  0  0  0
 51129  1  0  0  0
 51130  1  0  0  0
 52131  1  0  0  0
 52132  1  0  0  0
 53 54  1  0  0  0
 54 55  2  0  0  0
 54133  1  0  0  0
 55 57  1  0  0  0
 55134  1  0  0  0
 56 69  2  0  0  0
 57 58  2  0  0  0
 57135  1  0  0  0
 58136  1  0  0  0
 59 60  1  0  0  0
 59 61  1  0  0  0
 59 62  1  0  0  0
 60137  1  0  0  0
 60138  1  0  0  0
 60139  1  0  0  0
 61140  1  0  0  0
 61141  1  0  0  0
 61142  1  0  0  0
 62143  1  0  0  0
 62144  1  0  0  0
 62145  1  0  0  0
 63 65  1  0  0  0
 63146  1  0  0  0
 63147  1  0  0  0
 63148  1  0  0  0
 64149  1  0  0  0
 65150  1  0  0  0
 68 87  1  0  0  0
 71 73  2  0  0  0
 71 74  1  0  0  0
 71151  1  0  0  0
 72 75  2  0  0  0
 72 76  1  0  0  0
 72152  1  0  0  0
 73 75  1  0  0  0
 73 82  1  0  0  0
 74 76  2  0  0  0
 74 83  1  0  0  0
 75 86  1  0  0  0
 76 91  1  0  0  0
 77 79  1  0  0  0
 77 81  1  0  0  0
 77153  1  0  0  0
 77154  1  0  0  0
 78 80  1  0  0  0
 78 81  1  0  0  0
 78155  1  0  0  0
 78156  1  0  0  0
 79 89  1  0  0  0
 79157  1  0  0  0
 79158  1  0  0  0
 80 89  1  0  0  0
 80159  1  0  0  0
 80160  1  0  0  0
 81 91  1  0  0  0
 81161  1  0  0  0
 82162  1  0  0  0
 82163  1  0  0  0
 82164  1  0  0  0
 83165  1  0  0  0
 83166  1  0  0  0
 83167  1  0  0  0
 84168  1  0  0  0
 84169  1  0  0  0
 84170  1  0  0  0
 84 88  1  0  0  0
 85171  1  0  0  0
 85172  1  0  0  0
 85173  1  0  0  0
 85 90  1  0  0  0
 86 90  1  0  0  0
 86174  1  0  0  0
 86175  1  0  0  0
 87 88  1  0  0  0
 87176  1  0  0  0
 87177  1  0  0  0
 88 90  1  0  0  0
 88178  1  0  0  0
 90179  1  0  0  0
M  CHG  1  90   1
M  ISO  4   1 100  68 101  87 101  89 100
M  END
> <chiral flag>
0

> <version>
0

> <s_m_source_file>
/data/baiqing/PycharmProjects/Reinvent-master-3.2/result/LINK_invent/BTK/process_docking_weight1_custom_sum_contain_oxygen_bond_distance_aromatic_linkinvent_7_9_3/rearranged_h_0158.sdf

> <i_m_source_file_index>
78

> <r_mmod_Potential_Energy-OPLS-2005>
305.517639160156

> <r_mmod_Stretch_Energy-OPLS-2005>
61.4684829711914

> <r_mmod_Bend_Energy-OPLS-2005>
170.312026977539

> <r_mmod_Torsional_Energy-OPLS-2005>
414.145965576172

> <r_mmod_Improper_Torsional_Energy-OPLS-2005>
14.5835905075073

> <r_mmod_Van_der_Waal_Energy-OPLS-2005>
183.254089355469

> <r_mmod_Electrostatic_Energy-OPLS-2005>
-197.991485595703

> <r_mmod_Solvation_Energy-OPLS-2005>
-396.695159912109

> <b_mmod_Minimization_Converged-OPLS-2005>
0

> <r_mmod_RMS_Derivative-OPLS-2005>
16.6920032501221

$$$$
78
                    3D
 Structure written by MMmdl.
173182  0  0  1  0            999 V2000
  -30.7340  -14.6025   20.5513 C   0  0  0  0  0  0
  -30.4087  -12.3859   19.4723 C   0  0  0  0  0  0
  -29.4983  -12.4986   18.2329 C   0  0  0  0  0  0
  -28.0252  -12.3236   18.6396 C   0  0  0  0  0  0
  -27.6428  -13.2098   19.8508 C   0  0  2  0  0  0
  -28.6870  -13.1251   20.9949 C   0  0  0  0  0  0
  -25.2505  -13.8139   20.5663 C   0  0  0  0  0  0
  -24.1797  -13.0421   20.9212 C   0  0  0  0  0  0
  -24.6376  -11.6897   20.8744 C   0  0  0  0  0  0
  -23.9047  -10.4291   21.0402 C   0  0  0  0  0  0
  -24.3606   -9.4207   21.9172 C   0  0  0  0  0  0
  -23.6273   -8.2247   22.0753 C   0  0  0  0  0  0
  -22.4263   -8.0288   21.3536 C   0  0  0  0  0  0
  -21.9904   -9.0250   20.4634 C   0  0  0  0  0  0
  -22.7236  -10.2124   20.3039 C   0  0  0  0  0  0
  -21.6851   -6.0742   22.5275 C   0  0  0  0  0  0
  -21.4007   -6.5622   23.8214 C   0  0  0  0  0  0
  -21.3662   -5.6773   24.9169 C   0  0  0  0  0  0
  -21.6053   -4.3043   24.7216 C   0  0  0  0  0  0
  -21.8814   -3.8147   23.4335 C   0  0  0  0  0  0
  -21.9183   -4.6975   22.3398 C   0  0  0  0  0  0
  -22.7824  -13.5214   21.1867 C   0  0  0  0  0  0
  -22.1648   -4.2170   21.0973 F   0  0  0  0  0  0
  -21.5645   -3.4519   25.7718 F   0  0  0  0  0  0
  -30.0069  -13.4414   20.4331 N   0  0  0  0  0  0
  -26.2922  -12.9317   20.3274 N   0  0  0  0  0  0
  -25.9289  -11.6481   20.5756 N   0  0  0  0  0  0
  -22.0457  -12.8197   22.0412 N   0  0  0  0  0  0
  -25.4162  -15.1852   20.4010 N   0  0  0  0  0  0
  -31.8741  -14.6537   20.0804 O   0  0  0  0  0  0
  -21.6636   -6.8884   21.4237 O   0  0  0  0  0  0
  -22.3500  -14.5516   20.6713 O   0  0  0  0  0  0
  -24.6263  -31.8650   23.2118 C   0  0  0  0  0  0
  -25.9129  -32.4800   23.8428 C   0  0  1  0  0  0
  -27.2124  -27.3272   20.1004 C   0  0  0  0  0  0
  -25.5962  -33.8603   24.2347 N   0  0  0  0  0  0
  -23.4178  -30.4937   21.5560 C   0  0  2  0  0  0
  -24.8621  -28.9711   20.1090 C   0  0  0  0  0  0
  -22.7486  -29.4629   22.4967 C   0  0  0  0  0  0
  -18.0278  -28.1373   22.8479 C   0  0  0  0  0  0
  -24.1483  -36.7272   23.2624 C   0  0  0  0  0  0
  -25.9638  -30.7920   21.3925 C   0  0  0  0  0  0
  -26.0339  -29.4267   20.7259 C   0  0  0  0  0  0
  -27.2098  -28.6148   20.7228 C   0  0  0  0  0  0
  -26.0185  -26.9618   19.4195 C   0  0  0  0  0  0
  -24.8571  -27.7418   19.4481 C   0  0  0  0  0  0
  -23.6315  -29.8472   20.1657 C   0  0  0  0  0  0
  -25.4093  -36.3087   24.0339 C   0  0  1  0  0  0
  -20.5876  -28.3672   23.1274 C   0  0  2  0  0  0
  -20.6771  -26.9395   22.5389 C   0  0  0  0  0  0
  -19.5746  -26.6376   21.5196 C   0  0  0  0  0  0
  -18.1924  -26.7923   22.1597 C   0  0  0  0  0  0
  -19.1536  -28.8839   23.2870 C   0  0  0  0  0  0
  -18.9461  -30.1443   23.8895 C   0  0  0  0  0  0
  -17.6463  -30.6569   24.0551 C   0  0  0  0  0  0
  -25.9053  -34.9460   23.5137 C   0  0  0  0  0  0
  -16.5351  -29.9057   23.6348 C   0  0  0  0  0  0
  -16.7267  -28.6476   23.0367 C   0  0  0  0  0  0
  -26.4511  -31.6580   25.0789 C   0  0  0  0  0  0
  -25.3733  -31.3704   26.1504 C   0  0  0  0  0  0
  -27.0353  -30.2998   24.6257 C   0  0  0  0  0  0
  -27.6068  -32.4312   25.7567 C   0  0  0  0  0  0
  -27.5612  -37.1757   24.8428 C   0  0  0  0  0  0
  -21.4195  -29.3043   22.3707 N   0  0  0  0  0  0
  -26.4252  -37.3804   23.9477 N   0  0  0  0  0  0
  -24.6879  -31.0667   22.1085 N   0  0  0  0  0  0
  -23.4217  -28.8156   23.3026 O   0  0  0  0  0  0
  -28.2949  -26.4217   20.1863 O   0  0  0  0  0  0
  -26.5609  -34.8924   22.4694 O   0  0  0  0  0  0
  -23.5428  -32.1464   23.7428 O   0  0  0  0  0  0
  -29.6012  -23.5421   21.1750 C   0  0  0  0  0  0
  -28.7970  -21.2533   19.7625 C   0  0  0  0  0  0
  -28.7150  -23.7211   20.0847 C   0  0  0  0  0  0
  -30.0584  -22.2413   21.5712 C   0  0  0  0  0  0
  -28.3363  -22.5389   19.3766 C   0  0  0  0  0  0
  -29.6351  -21.0628   20.8822 C   0  0  0  0  0  0
  -31.4991  -17.8851   20.9159 C   0  0  0  0  0  0
  -29.0951  -17.6968   20.1289 C   0  0  0  0  0  0
  -31.1834  -16.6799   21.8494 C   0  0  0  0  0  0
  -28.9758  -16.4318   21.0421 C   0  0  0  0  0  0
  -30.2628  -18.6893   20.4311 C   0  0  0  0  0  0
  -27.3667  -22.6059   18.2041 C   0  0  0  0  0  0
  -29.2815  -22.0607   24.6077 C   0  0  0  0  0  0
  -32.4250  -22.6711   22.3444 C   0  0  0  0  0  0
  -27.9875  -25.0572   19.7086 C   0  0  0  0  0  0
  -30.5307  -22.7543   24.0473 C   0  0  0  0  0  0
  -31.0445  -22.1204   22.7375 C   0  0  1  0  0  0
  -30.2551  -15.7093   21.2257 N   0  0  0  0  0  0
  -29.9868  -19.7846   21.3472 O   0  0  0  0  0  0
  -31.4565  -12.4519   19.1744 H   0  0  0  0  0  0
  -30.3059  -11.4028   19.9333 H   0  0  0  0  0  0
  -29.7740  -11.7481   17.4904 H   0  0  0  0  0  0
  -29.6396  -13.4699   17.7565 H   0  0  0  0  0  0
  -27.8682  -11.2722   18.8789 H   0  0  0  0  0  0
  -27.3719  -12.5431   17.7942 H   0  0  0  0  0  0
  -27.6316  -14.2159   19.4416 H   0  0  0  0  0  0
  -28.6975  -12.1238   21.4271 H   0  0  0  0  0  0
  -28.4272  -13.7961   21.8149 H   0  0  0  0  0  0
  -25.2779   -9.5671   22.4707 H   0  0  0  0  0  0
  -23.9981   -7.4635   22.7470 H   0  0  0  0  0  0
  -21.0854   -8.8763   19.8915 H   0  0  0  0  0  0
  -22.3734  -10.9630   19.6109 H   0  0  0  0  0  0
  -21.1993   -7.6130   23.9727 H   0  0  0  0  0  0
  -21.1477   -6.0501   25.9075 H   0  0  0  0  0  0
  -22.0590   -2.7611   23.2815 H   0  0  0  0  0  0
  -22.4073  -11.9847   22.4787 H   0  0  0  0  0  0
  -21.1061  -13.1165   22.2591 H   0  0  0  0  0  0
  -24.6444  -15.8323   20.5132 H   0  0  0  0  0  0
  -26.2569  -15.6269   20.0534 H   0  0  0  0  0  0
  -26.7186  -32.5470   23.1165 H   0  0  0  0  0  0
  -25.0153  -33.9744   25.0525 H   0  0  0  0  0  0
  -22.7087  -31.3135   21.4213 H   0  0  0  0  0  0
  -23.3819  -35.9513   23.3120 H   0  0  0  0  0  0
  -24.3631  -36.9070   22.2080 H   0  0  0  0  0  0
  -23.7123  -37.6371   23.6751 H   0  0  0  0  0  0
  -26.1056  -31.5595   20.6310 H   0  0  0  0  0  0
  -26.8405  -30.8277   22.0278 H   0  0  0  0  0  0
  -28.1005  -28.9582   21.2301 H   0  0  0  0  0  0
  -25.9150  -26.0507   18.8511 H   0  0  0  0  0  0
  -23.9661  -27.3938   18.9440 H   0  0  0  0  0  0
  -23.7464  -30.6345   19.4193 H   0  0  0  0  0  0
  -22.7522  -29.2786   19.8589 H   0  0  0  0  0  0
  -25.1244  -36.1924   25.0820 H   0  0  0  0  0  0
  -20.9925  -28.3221   24.1407 H   0  0  0  0  0  0
  -20.5650  -26.2283   23.3584 H   0  0  0  0  0  0
  -21.6647  -26.7400   22.1197 H   0  0  0  0  0  0
  -19.6900  -25.6274   21.1258 H   0  0  0  0  0  0
  -19.6707  -27.3182   20.6715 H   0  0  0  0  0  0
  -17.4193  -26.6667   21.3999 H   0  0  0  0  0  0
  -18.0311  -26.0044   22.8972 H   0  0  0  0  0  0
  -19.7929  -30.7263   24.2264 H   0  0  0  0  0  0
  -17.5007  -31.6263   24.5122 H   0  0  0  0  0  0
  -15.5356  -30.2956   23.7673 H   0  0  0  0  0  0
  -15.8661  -28.0793   22.7097 H   0  0  0  0  0  0
  -24.5927  -30.7028   25.7841 H   0  0  0  0  0  0
  -24.8899  -32.2850   26.4939 H   0  0  0  0  0  0
  -25.8053  -30.8890   27.0283 H   0  0  0  0  0  0
  -26.2930  -29.6771   24.1244 H   0  0  0  0  0  0
  -27.3994  -29.7246   25.4783 H   0  0  0  0  0  0
  -27.8839  -30.4284   23.9529 H   0  0  0  0  0  0
  -27.2685  -33.3634   26.2102 H   0  0  0  0  0  0
  -28.3909  -32.6822   25.0411 H   0  0  0  0  0  0
  -28.0687  -31.8458   26.5532 H   0  0  0  0  0  0
  -28.2420  -38.0253   24.7764 H   0  0  0  0  0  0
  -28.1317  -36.2819   24.5858 H   0  0  0  0  0  0
  -27.2395  -37.0908   25.8823 H   0  0  0  0  0  0
  -20.9377  -29.8807   21.6950 H   0  0  0  0  0  0
  -26.0123  -38.2832   24.1648 H   0  0  0  0  0  0
  -29.9133  -24.4103   21.7358 H   0  0  0  0  0  0
  -28.4519  -20.3900   19.2126 H   0  0  0  0  0  0
  -32.0224  -17.4995   20.0399 H   0  0  0  0  0  0
  -32.2076  -18.5576   21.4016 H   0  0  0  0  0  0
  -28.1458  -18.2328   20.1162 H   0  0  0  0  0  0
  -29.2332  -17.3321   19.1094 H   0  0  0  0  0  0
  -30.7529  -17.0466   22.7825 H   0  0  0  0  0  0
  -32.1141  -16.1886   22.1399 H   0  0  0  0  0  0
  -28.2053  -15.7909   20.6396 H   0  0  0  0  0  0
  -28.5965  -16.7327   22.0190 H   0  0  0  0  0  0
  -30.5486  -19.1529   19.4855 H   0  0  0  0  0  0
  -27.1125  -21.6130   17.8318 H   0  0  0  0  0  0
  -27.8030  -23.1650   17.3753 H   0  0  0  0  0  0
  -26.4311  -23.0845   18.4970 H   0  0  0  0  0  0
  -28.9531  -22.5408   25.5299 H   0  0  0  0  0  0
  -29.4840  -21.0143   24.8389 H   0  0  0  0  0  0
  -28.4527  -22.0930   23.9001 H   0  0  0  0  0  0
  -32.8164  -22.1482   21.4706 H   0  0  0  0  0  0
  -33.1492  -22.5353   23.1496 H   0  0  0  0  0  0
  -32.3854  -23.7345   22.1087 H   0  0  0  0  0  0
  -26.9969  -24.7910   20.0775 H   0  0  0  0  0  0
  -27.9542  -25.1224   18.6202 H   0  0  0  0  0  0
  -31.3161  -22.6964   24.8029 H   0  0  0  0  0  0
  -30.3317  -23.8169   23.9109 H   0  0  0  0  0  0
  -31.2028  -21.0646   22.9555 H   0  0  0  0  0  0
  1 25  1  0  0  0
  1 30  2  0  0  0
  1 88  1  0  0  0
  2  3  1  0  0  0
  2 25  1  0  0  0
  2 90  1  0  0  0
  2 91  1  0  0  0
  3  4  1  0  0  0
  3 92  1  0  0  0
  3 93  1  0  0  0
  4  5  1  0  0  0
  4 94  1  0  0  0
  4 95  1  0  0  0
  5  6  1  0  0  0
  5 26  1  0  0  0
  5 96  1  0  0  0
  6 25  1  0  0  0
  6 97  1  0  0  0
  6 98  1  0  0  0
  7  8  2  0  0  0
  7 26  1  0  0  0
  7 29  1  0  0  0
  8  9  1  0  0  0
  8 22  1  0  0  0
  9 10  1  0  0  0
  9 27  2  0  0  0
 10 11  2  0  0  0
 10 15  1  0  0  0
 11 12  1  0  0  0
 11 99  1  0  0  0
 12 13  2  0  0  0
 12100  1  0  0  0
 13 14  1  0  0  0
 13 31  1  0  0  0
 14 15  2  0  0  0
 14101  1  0  0  0
 15102  1  0  0  0
 16 17  2  0  0  0
 16 21  1  0  0  0
 16 31  1  0  0  0
 17 18  1  0  0  0
 17103  1  0  0  0
 18 19  2  0  0  0
 18104  1  0  0  0
 19 20  1  0  0  0
 19 24  1  0  0  0
 20 21  2  0  0  0
 20105  1  0  0  0
 21 23  1  0  0  0
 22 28  1  0  0  0
 22 32  2  0  0  0
 26 27  1  0  0  0
 28106  1  0  0  0
 28107  1  0  0  0
 29108  1  0  0  0
 29109  1  0  0  0
 33 34  1  0  0  0
 33 66  1  0  0  0
 33 70  2  0  0  0
 34 36  1  0  0  0
 34 59  1  0  0  0
 34110  1  0  0  0
 35 44  2  0  0  0
 35 45  1  0  0  0
 35 68  1  0  0  0
 36 56  1  0  0  0
 36111  1  0  0  0
 37 39  1  0  0  0
 37 47  1  0  0  0
 37 66  1  0  0  0
 37112  1  0  0  0
 38 43  2  0  0  0
 38 46  1  0  0  0
 38 47  1  0  0  0
 39 64  1  0  0  0
 39 67  2  0  0  0
 40 52  1  0  0  0
 40 53  2  0  0  0
 40 58  1  0  0  0
 41113  1  0  0  0
 41114  1  0  0  0
 41115  1  0  0  0
 41 48  1  0  0  0
 42 43  1  0  0  0
 42 66  1  0  0  0
 42116  1  0  0  0
 42117  1  0  0  0
 43 44  1  0  0  0
 44118  1  0  0  0
 45 46  2  0  0  0
 45119  1  0  0  0
 46120  1  0  0  0
 47121  1  0  0  0
 47122  1  0  0  0
 48 56  1  0  0  0
 48 65  1  0  0  0
 48123  1  0  0  0
 49 50  1  0  0  0
 49 53  1  0  0  0
 49 64  1  0  0  0
 49124  1  0  0  0
 50 51  1  0  0  0
 50125  1  0  0  0
 50126  1  0  0  0
 51 52  1  0  0  0
 51127  1  0  0  0
 51128  1  0  0  0
 52129  1  0  0  0
 52130  1  0  0  0
 53 54  1  0  0  0
 54 55  2  0  0  0
 54131  1  0  0  0
 55 57  1  0  0  0
 55132  1  0  0  0
 56 69  2  0  0  0
 57 58  2  0  0  0
 57133  1  0  0  0
 58134  1  0  0  0
 59 60  1  0  0  0
 59 61  1  0  0  0
 59 62  1  0  0  0
 60135  1  0  0  0
 60136  1  0  0  0
 60137  1  0  0  0
 61138  1  0  0  0
 61139  1  0  0  0
 61140  1  0  0  0
 62141  1  0  0  0
 62142  1  0  0  0
 62143  1  0  0  0
 63 65  1  0  0  0
 63144  1  0  0  0
 63145  1  0  0  0
 63146  1  0  0  0
 64147  1  0  0  0
 65148  1  0  0  0
 68 85  1  0  0  0
 71 73  2  0  0  0
 71 74  1  0  0  0
 71149  1  0  0  0
 72 75  2  0  0  0
 72 76  1  0  0  0
 72150  1  0  0  0
 73 75  1  0  0  0
 73 85  1  0  0  0
 74 76  2  0  0  0
 74 87  1  0  0  0
 75 82  1  0  0  0
 76 89  1  0  0  0
 77 79  1  0  0  0
 77 81  1  0  0  0
 77151  1  0  0  0
 77152  1  0  0  0
 78 80  1  0  0  0
 78 81  1  0  0  0
 78153  1  0  0  0
 78154  1  0  0  0
 79 88  1  0  0  0
 79155  1  0  0  0
 79156  1  0  0  0
 80 88  1  0  0  0
 80157  1  0  0  0
 80158  1  0  0  0
 81 89  1  0  0  0
 81159  1  0  0  0
 82160  1  0  0  0
 82161  1  0  0  0
 82162  1  0  0  0
 83 86  1  0  0  0
 83163  1  0  0  0
 83164  1  0  0  0
 83165  1  0  0  0
 84166  1  0  0  0
 84167  1  0  0  0
 84168  1  0  0  0
 84 87  1  0  0  0
 85169  1  0  0  0
 85170  1  0  0  0
 86 87  1  0  0  0
 86171  1  0  0  0
 86172  1  0  0  0
 87173  1  0  0  0
M  ISO  4   1 100  68 101  85 101  88 100
M  END
> <chiral flag>
0

> <version>
0

> <s_m_source_file>
/data/baiqing/PycharmProjects/Reinvent-master-3.2/result/LINK_invent/BTK/process_docking_weight1_custom_sum_contain_oxygen_bond_distance_aromatic_linkinvent_7_9_3/rearranged_h_0158.sdf

> <i_m_source_file_index>
79

> <r_mmod_Potential_Energy-OPLS-2005>
342.550994873047

> <r_mmod_Stretch_Energy-OPLS-2005>
76.2698364257812

> <r_mmod_Bend_Energy-OPLS-2005>
185.686401367188

> <r_mmod_Torsional_Energy-OPLS-2005>
326.121490478516

> <r_mmod_Improper_Torsional_Energy-OPLS-2005>
4.37052726745605

> <r_mmod_Van_der_Waal_Energy-OPLS-2005>
170.520217895508

> <r_mmod_Electrostatic_Energy-OPLS-2005>
-277.099090576172

> <r_mmod_Solvation_Energy-OPLS-2005>
-194.296340942383

> <b_mmod_Minimization_Converged-OPLS-2005>
0

> <r_mmod_RMS_Derivative-OPLS-2005>
2.58131718635559

$$$$
79
                    3D
 Structure written by MMmdl.
174183  0  0  1  0            999 V2000
  -30.6808  -14.6833   20.4927 C   0  0  0  0  0  0
  -30.4223  -12.4240   19.4639 C   0  0  0  0  0  0
  -29.5069  -12.5195   18.2263 C   0  0  0  0  0  0
  -28.0329  -12.3461   18.6385 C   0  0  0  0  0  0
  -27.6483  -13.2334   19.8520 C   0  0  2  0  0  0
  -28.6940  -13.1448   20.9820 C   0  0  0  0  0  0
  -25.2531  -13.8205   20.5708 C   0  0  0  0  0  0
  -24.1813  -13.0451   20.9211 C   0  0  0  0  0  0
  -24.6402  -11.6925   20.8721 C   0  0  0  0  0  0
  -23.9072  -10.4297   21.0392 C   0  0  0  0  0  0
  -24.3622   -9.4214   21.9181 C   0  0  0  0  0  0
  -23.6299   -8.2254   22.0753 C   0  0  0  0  0  0
  -22.4285   -8.0291   21.3545 C   0  0  0  0  0  0
  -21.9913   -9.0263   20.4647 C   0  0  0  0  0  0
  -22.7233  -10.2141   20.3045 C   0  0  0  0  0  0
  -21.6841   -6.0736   22.5273 C   0  0  0  0  0  0
  -21.4002   -6.5635   23.8211 C   0  0  0  0  0  0
  -21.3663   -5.6789   24.9181 C   0  0  0  0  0  0
  -21.6041   -4.3053   24.7222 C   0  0  0  0  0  0
  -21.8811   -3.8152   23.4336 C   0  0  0  0  0  0
  -21.9177   -4.6968   22.3393 C   0  0  0  0  0  0
  -22.7830  -13.5230   21.1884 C   0  0  0  0  0  0
  -22.1652   -4.2154   21.0975 F   0  0  0  0  0  0
  -21.5645   -3.4530   25.7734 F   0  0  0  0  0  0
  -30.0050  -13.4840   20.4117 N   0  0  0  0  0  0
  -26.2982  -12.9426   20.3294 N   0  0  0  0  0  0
  -25.9336  -11.6569   20.5712 N   0  0  0  0  0  0
  -22.0472  -12.8239   22.0454 N   0  0  0  0  0  0
  -25.4233  -15.1940   20.4116 N   0  0  0  0  0  0
  -31.8324  -14.7658   20.0546 O   0  0  0  0  0  0
  -21.6648   -6.8889   21.4244 O   0  0  0  0  0  0
  -22.3510  -14.5527   20.6719 O   0  0  0  0  0  0
  -24.6307  -31.8582   23.2016 C   0  0  0  0  0  0
  -25.9145  -32.4761   23.8349 C   0  0  1  0  0  0
  -27.2174  -27.2775   20.1297 C   0  0  0  0  0  0
  -25.5946  -33.8562   24.2268 N   0  0  0  0  0  0
  -23.4230  -30.4848   21.5438 C   0  0  2  0  0  0
  -24.8703  -28.9359   20.1084 C   0  0  0  0  0  0
  -22.7488  -29.4634   22.4908 C   0  0  0  0  0  0
  -18.0301  -28.1394   22.8501 C   0  0  0  0  0  0
  -24.1475  -36.7281   23.2634 C   0  0  0  0  0  0
  -25.9678  -30.7768   21.3774 C   0  0  0  0  0  0
  -26.0416  -29.4009   20.7188 C   0  0  0  0  0  0
  -27.2172  -28.5868   20.7160 C   0  0  0  0  0  0
  -26.0233  -26.8829   19.4806 C   0  0  0  0  0  0
  -24.8673  -27.6852   19.4746 C   0  0  0  0  0  0
  -23.6415  -29.8211   20.1586 C   0  0  0  0  0  0
  -25.4096  -36.3065   24.0326 C   0  0  1  0  0  0
  -20.5899  -28.3712   23.1265 C   0  0  2  0  0  0
  -20.6772  -26.9432   22.5398 C   0  0  0  0  0  0
  -19.5742  -26.6395   21.5202 C   0  0  0  0  0  0
  -18.1937  -26.7937   22.1631 C   0  0  0  0  0  0
  -19.1550  -28.8868   23.2882 C   0  0  0  0  0  0
  -18.9473  -30.1470   23.8898 C   0  0  0  0  0  0
  -17.6471  -30.6593   24.0574 C   0  0  0  0  0  0
  -25.9052  -34.9445   23.5086 C   0  0  0  0  0  0
  -16.5365  -29.9092   23.6338 C   0  0  0  0  0  0
  -16.7288  -28.6510   23.0362 C   0  0  0  0  0  0
  -26.4511  -31.6587   25.0734 C   0  0  0  0  0  0
  -25.3752  -31.3764   26.1473 C   0  0  0  0  0  0
  -27.0342  -30.3003   24.6209 C   0  0  0  0  0  0
  -27.6057  -32.4332   25.7514 C   0  0  0  0  0  0
  -27.5565  -37.1791   24.8465 C   0  0  0  0  0  0
  -21.4198  -29.3061   22.3646 N   0  0  0  0  0  0
  -26.4266  -37.3773   23.9426 N   0  0  0  0  0  0
  -24.6927  -31.0572   22.0974 N   0  0  0  0  0  0
  -23.4205  -28.8179   23.2998 O   0  0  0  0  0  0
  -28.3068  -26.3792   20.2116 O   0  0  0  0  0  0
  -26.5614  -34.8918   22.4649 O   0  0  0  0  0  0
  -23.5465  -32.1390   23.7327 O   0  0  0  0  0  0
  -29.3620  -15.1939   23.8050 C   0  0  0  0  0  0
  -31.6598  -14.3888   25.1935 C   0  0  0  0  0  0
  -30.6188  -15.6945   23.4066 C   0  0  0  0  0  0
  -29.2520  -14.2442   24.8373 C   0  0  0  0  0  0
  -31.7755  -15.3193   24.1401 C   0  0  0  0  0  0
  -30.4124  -13.8261   25.5287 C   0  0  0  0  0  0
  -29.5133  -16.9603   20.1514 C   0  0  0  0  0  0
  -30.7057  -16.5139   22.1169 C   0  0  2  0  0  0
  -29.9112  -18.3829   20.7483 C   0  0  2  0  0  0
  -30.1255  -17.9551   22.2076 C   0  0  2  0  0  0
  -27.8858  -13.6588   25.1482 C   0  0  0  0  0  0
  -33.1551  -15.8678   23.8103 C   0  0  0  0  0  0
  -30.3424  -12.7718   26.6195 C   0  0  0  0  0  0
  -28.9702  -19.6784   20.4714 C   0  0  0  0  0  0
  -29.0382  -23.7416   20.5124 C   0  0  0  0  0  0
  -28.0274  -24.9119   20.0572 C   0  0  0  0  0  0
  -28.5769  -22.2033   20.3017 C   0  0  0  0  0  0
  -30.0567  -15.8218   20.9845 N   0  0  0  0  0  0
  -31.0400  -18.8178   22.8587 O   0  0  0  0  0  0
  -29.4644  -21.0689   20.6791 O   0  0  0  0  0  0
  -31.4681  -12.5100   19.1675 H   0  0  0  0  0  0
  -30.3331  -11.4421   19.9314 H   0  0  0  0  0  0
  -29.7834  -11.7627   17.4908 H   0  0  0  0  0  0
  -29.6457  -13.4847   17.7376 H   0  0  0  0  0  0
  -27.8837  -11.2931   18.8837 H   0  0  0  0  0  0
  -27.3744  -12.5586   17.7940 H   0  0  0  0  0  0
  -27.6531  -14.2620   19.4913 H   0  0  0  0  0  0
  -28.7173  -12.1426   21.4125 H   0  0  0  0  0  0
  -28.4207  -13.8154   21.7910 H   0  0  0  0  0  0
  -25.2757   -9.5699   22.4764 H   0  0  0  0  0  0
  -23.9994   -7.4644   22.7470 H   0  0  0  0  0  0
  -21.0845   -8.8767   19.8963 H   0  0  0  0  0  0
  -22.3681  -10.9677   19.6152 H   0  0  0  0  0  0
  -21.1998   -7.6150   23.9707 H   0  0  0  0  0  0
  -21.1500   -6.0531   25.9080 H   0  0  0  0  0  0
  -22.0592   -2.7610   23.2827 H   0  0  0  0  0  0
  -22.4089  -11.9902   22.4854 H   0  0  0  0  0  0
  -21.1085  -13.1261   22.2660 H   0  0  0  0  0  0
  -24.6567  -15.8471   20.5243 H   0  0  0  0  0  0
  -26.2776  -15.6351   20.0962 H   0  0  0  0  0  0
  -26.7210  -32.5437   23.1094 H   0  0  0  0  0  0
  -25.0113  -33.9685   25.0422 H   0  0  0  0  0  0
  -22.7185  -31.3068   21.4017 H   0  0  0  0  0  0
  -23.3728  -35.9620   23.3289 H   0  0  0  0  0  0
  -24.3567  -36.8921   22.2051 H   0  0  0  0  0  0
  -23.7230  -37.6479   23.6670 H   0  0  0  0  0  0
  -26.1010  -31.5355   20.6052 H   0  0  0  0  0  0
  -26.8466  -30.8278   22.0100 H   0  0  0  0  0  0
  -28.1129  -28.9408   21.2067 H   0  0  0  0  0  0
  -25.9483  -25.9290   18.9822 H   0  0  0  0  0  0
  -23.9734  -27.3260   18.9839 H   0  0  0  0  0  0
  -23.7689  -30.5989   19.4056 H   0  0  0  0  0  0
  -22.7585  -29.2594   19.8513 H   0  0  0  0  0  0
  -25.1271  -36.1898   25.0819 H   0  0  0  0  0  0
  -21.0013  -28.3292   24.1377 H   0  0  0  0  0  0
  -20.5647  -26.2334   23.3604 H   0  0  0  0  0  0
  -21.6643  -26.7436   22.1206 H   0  0  0  0  0  0
  -19.6894  -25.6299   21.1247 H   0  0  0  0  0  0
  -19.6664  -27.3184   20.6714 H   0  0  0  0  0  0
  -17.4192  -26.6694   21.4049 H   0  0  0  0  0  0
  -18.0358  -26.0060   22.9014 H   0  0  0  0  0  0
  -19.7947  -30.7298   24.2252 H   0  0  0  0  0  0
  -17.5027  -31.6275   24.5177 H   0  0  0  0  0  0
  -15.5363  -30.3005   23.7645 H   0  0  0  0  0  0
  -15.8692  -28.0830   22.7075 H   0  0  0  0  0  0
  -24.5906  -30.7109   25.7853 H   0  0  0  0  0  0
  -24.8955  -32.2944   26.4890 H   0  0  0  0  0  0
  -25.8091  -30.8979   27.0261 H   0  0  0  0  0  0
  -26.2923  -29.6763   24.1208 H   0  0  0  0  0  0
  -27.3995  -29.7261   25.4733 H   0  0  0  0  0  0
  -27.8822  -30.4264   23.9468 H   0  0  0  0  0  0
  -27.2649  -33.3637   26.2067 H   0  0  0  0  0  0
  -28.3890  -32.6885   25.0368 H   0  0  0  0  0  0
  -28.0688  -31.8467   26.5460 H   0  0  0  0  0  0
  -28.2578  -38.0093   24.7512 H   0  0  0  0  0  0
  -28.1066  -36.2624   24.6276 H   0  0  0  0  0  0
  -27.2300  -37.1433   25.8875 H   0  0  0  0  0  0
  -20.9371  -29.8814   21.6884 H   0  0  0  0  0  0
  -26.0136  -38.2841   24.1451 H   0  0  0  0  0  0
  -28.4743  -15.4951   23.2648 H   0  0  0  0  0  0
  -32.5453  -14.0776   25.7315 H   0  0  0  0  0  0
  -29.8577  -16.8739   19.1199 H   0  0  0  0  0  0
  -28.4265  -16.8603   20.1319 H   0  0  0  0  0  0
  -31.7528  -16.6236   21.8291 H   0  0  0  0  0  0
  -30.8876  -18.6131   20.3165 H   0  0  0  0  0  0
  -29.1680  -17.9468   22.7319 H   0  0  0  0  0  0
  -27.8116  -12.6431   24.7607 H   0  0  0  0  0  0
  -27.0953  -14.2477   24.6822 H   0  0  0  0  0  0
  -27.6887  -13.6410   26.2210 H   0  0  0  0  0  0
  -33.8880  -15.5865   24.5684 H   0  0  0  0  0  0
  -33.1355  -16.9570   23.7659 H   0  0  0  0  0  0
  -33.5107  -15.4843   22.8547 H   0  0  0  0  0  0
  -31.3368  -12.4702   26.9516 H   0  0  0  0  0  0
  -29.8336  -11.8768   26.2579 H   0  0  0  0  0  0
  -29.8004  -13.1549   27.4841 H   0  0  0  0  0  0
  -28.0584  -19.5602   21.0564 H   0  0  0  0  0  0
  -28.6538  -19.6283   19.4297 H   0  0  0  0  0  0
  -29.2661  -23.8836   21.5686 H   0  0  0  0  0  0
  -29.9809  -23.8930   19.9885 H   0  0  0  0  0  0
  -27.0944  -24.7041   20.5828 H   0  0  0  0  0  0
  -27.8227  -24.7465   18.9983 H   0  0  0  0  0  0
  -28.3295  -22.0794   19.2472 H   0  0  0  0  0  0
  -27.6363  -22.0654   20.8363 H   0  0  0  0  0  0
  -31.1586  -18.4827   23.7425 H   0  0  0  0  0  0
  1 25  1  0  0  0
  1 30  2  0  0  0
  1 88  1  0  0  0
  2  3  1  0  0  0
  2 25  1  0  0  0
  2 91  1  0  0  0
  2 92  1  0  0  0
  3  4  1  0  0  0
  3 93  1  0  0  0
  3 94  1  0  0  0
  4  5  1  0  0  0
  4 95  1  0  0  0
  4 96  1  0  0  0
  5  6  1  0  0  0
  5 26  1  0  0  0
  5 97  1  0  0  0
  6 25  1  0  0  0
  6 98  1  0  0  0
  6 99  1  0  0  0
  7  8  2  0  0  0
  7 26  1  0  0  0
  7 29  1  0  0  0
  8  9  1  0  0  0
  8 22  1  0  0  0
  9 10  1  0  0  0
  9 27  2  0  0  0
 10 11  2  0  0  0
 10 15  1  0  0  0
 11 12  1  0  0  0
 11100  1  0  0  0
 12 13  2  0  0  0
 12101  1  0  0  0
 13 14  1  0  0  0
 13 31  1  0  0  0
 14 15  2  0  0  0
 14102  1  0  0  0
 15103  1  0  0  0
 16 17  2  0  0  0
 16 21  1  0  0  0
 16 31  1  0  0  0
 17 18  1  0  0  0
 17104  1  0  0  0
 18 19  2  0  0  0
 18105  1  0  0  0
 19 20  1  0  0  0
 19 24  1  0  0  0
 20 21  2  0  0  0
 20106  1  0  0  0
 21 23  1  0  0  0
 22 28  1  0  0  0
 22 32  2  0  0  0
 26 27  1  0  0  0
 28107  1  0  0  0
 28108  1  0  0  0
 29109  1  0  0  0
 29110  1  0  0  0
 33 34  1  0  0  0
 33 66  1  0  0  0
 33 70  2  0  0  0
 34 36  1  0  0  0
 34 59  1  0  0  0
 34111  1  0  0  0
 35 44  2  0  0  0
 35 45  1  0  0  0
 35 68  1  0  0  0
 36 56  1  0  0  0
 36112  1  0  0  0
 37 39  1  0  0  0
 37 47  1  0  0  0
 37 66  1  0  0  0
 37113  1  0  0  0
 38 43  2  0  0  0
 38 46  1  0  0  0
 38 47  1  0  0  0
 39 64  1  0  0  0
 39 67  2  0  0  0
 40 52  1  0  0  0
 40 53  2  0  0  0
 40 58  1  0  0  0
 41114  1  0  0  0
 41115  1  0  0  0
 41116  1  0  0  0
 41 48  1  0  0  0
 42 43  1  0  0  0
 42 66  1  0  0  0
 42117  1  0  0  0
 42118  1  0  0  0
 43 44  1  0  0  0
 44119  1  0  0  0
 45 46  2  0  0  0
 45120  1  0  0  0
 46121  1  0  0  0
 47122  1  0  0  0
 47123  1  0  0  0
 48 56  1  0  0  0
 48 65  1  0  0  0
 48124  1  0  0  0
 49 50  1  0  0  0
 49 53  1  0  0  0
 49 64  1  0  0  0
 49125  1  0  0  0
 50 51  1  0  0  0
 50126  1  0  0  0
 50127  1  0  0  0
 51 52  1  0  0  0
 51128  1  0  0  0
 51129  1  0  0  0
 52130  1  0  0  0
 52131  1  0  0  0
 53 54  1  0  0  0
 54 55  2  0  0  0
 54132  1  0  0  0
 55 57  1  0  0  0
 55133  1  0  0  0
 56 69  2  0  0  0
 57 58  2  0  0  0
 57134  1  0  0  0
 58135  1  0  0  0
 59 60  1  0  0  0
 59 61  1  0  0  0
 59 62  1  0  0  0
 60136  1  0  0  0
 60137  1  0  0  0
 60138  1  0  0  0
 61139  1  0  0  0
 61140  1  0  0  0
 61141  1  0  0  0
 62142  1  0  0  0
 62143  1  0  0  0
 62144  1  0  0  0
 63 65  1  0  0  0
 63145  1  0  0  0
 63146  1  0  0  0
 63147  1  0  0  0
 64148  1  0  0  0
 65149  1  0  0  0
 68 86  1  0  0  0
 71 73  2  0  0  0
 71 74  1  0  0  0
 71150  1  0  0  0
 72 75  2  0  0  0
 72 76  1  0  0  0
 72151  1  0  0  0
 73 75  1  0  0  0
 73 78  1  0  0  0
 74 76  2  0  0  0
 74 81  1  0  0  0
 75 82  1  0  0  0
 76 83  1  0  0  0
 77 79  1  0  0  0
 77 88  1  0  0  0
 77152  1  0  0  0
 77153  1  0  0  0
 78 80  1  0  0  0
 78 88  1  0  0  0
 78154  1  0  0  0
 79 80  1  0  0  0
 79 84  1  0  0  0
 79155  1  0  0  0
 80 89  1  0  0  0
 80156  1  0  0  0
 81157  1  0  0  0
 81158  1  0  0  0
 81159  1  0  0  0
 82160  1  0  0  0
 82161  1  0  0  0
 82162  1  0  0  0
 83163  1  0  0  0
 83164  1  0  0  0
 83165  1  0  0  0
 84 90  1  0  0  0
 84166  1  0  0  0
 84167  1  0  0  0
 85 86  1  0  0  0
 85 87  1  0  0  0
 85168  1  0  0  0
 85169  1  0  0  0
 86170  1  0  0  0
 86171  1  0  0  0
 87 90  1  0  0  0
 87172  1  0  0  0
 87173  1  0  0  0
 89174  1  0  0  0
M  ISO  4   1 100  68 101  86 101  88 100
M  END
> <chiral flag>
0

> <version>
0

> <s_m_source_file>
/data/baiqing/PycharmProjects/Reinvent-master-3.2/result/LINK_invent/BTK/process_docking_weight1_custom_sum_contain_oxygen_bond_distance_aromatic_linkinvent_7_9_3/rearranged_h_0158.sdf

> <i_m_source_file_index>
80

> <r_mmod_Potential_Energy-OPLS-2005>
303.892150878906

> <r_mmod_Stretch_Energy-OPLS-2005>
118.631309509277

> <r_mmod_Bend_Energy-OPLS-2005>
200.704986572266

> <r_mmod_Torsional_Energy-OPLS-2005>
325.736938476562

> <r_mmod_Improper_Torsional_Energy-OPLS-2005>
7.0105767250061

> <r_mmod_Van_der_Waal_Energy-OPLS-2005>
133.268844604492

> <r_mmod_Electrostatic_Energy-OPLS-2005>
-332.833923339844

> <r_mmod_Solvation_Energy-OPLS-2005>
-217.406463623047

> <b_mmod_Minimization_Converged-OPLS-2005>
0

> <r_mmod_RMS_Derivative-OPLS-2005>
2.70228910446167

$$$$
80
                    3D
 Structure written by MMmdl.
179189  0  0  1  0            999 V2000
  -30.7439  -14.4755   20.6432 C   0  0  0  0  0  0
  -30.4241  -12.3422   19.4214 C   0  0  0  0  0  0
  -29.4913  -12.5143   18.2062 C   0  0  0  0  0  0
  -28.0182  -12.3387   18.6208 C   0  0  0  0  0  0
  -27.6583  -13.1858   19.8653 C   0  0  2  0  0  0
  -28.7032  -12.9829   20.9926 C   0  0  0  0  0  0
  -25.2609  -13.8108   20.5654 C   0  0  0  0  0  0
  -24.1844  -13.0417   20.9178 C   0  0  0  0  0  0
  -24.6374  -11.6877   20.8750 C   0  0  0  0  0  0
  -23.9043  -10.4277   21.0424 C   0  0  0  0  0  0
  -24.3606   -9.4196   21.9198 C   0  0  0  0  0  0
  -23.6283   -8.2232   22.0759 C   0  0  0  0  0  0
  -22.4266   -8.0273   21.3547 C   0  0  0  0  0  0
  -21.9901   -9.0244   20.4647 C   0  0  0  0  0  0
  -22.7226  -10.2123   20.3060 C   0  0  0  0  0  0
  -21.6847   -6.0732   22.5282 C   0  0  0  0  0  0
  -21.4006   -6.5639   23.8215 C   0  0  0  0  0  0
  -21.3657   -5.6791   24.9178 C   0  0  0  0  0  0
  -21.6043   -4.3053   24.7226 C   0  0  0  0  0  0
  -21.8821   -3.8144   23.4350 C   0  0  0  0  0  0
  -21.9193   -4.6960   22.3407 C   0  0  0  0  0  0
  -22.7873  -13.5238   21.1847 C   0  0  0  0  0  0
  -22.1661   -4.2147   21.0982 F   0  0  0  0  0  0
  -21.5634   -3.4536   25.7741 F   0  0  0  0  0  0
  -30.0309  -13.3221   20.4545 N   0  0  0  0  0  0
  -26.3003  -12.9229   20.3314 N   0  0  0  0  0  0
  -25.9289  -11.6418   20.5765 N   0  0  0  0  0  0
  -22.0497  -12.8233   22.0389 N   0  0  0  0  0  0
  -25.4337  -15.1826   20.4030 N   0  0  0  0  0  0
  -31.8257  -14.6562   20.0737 O   0  0  0  0  0  0
  -21.6632   -6.8871   21.4243 O   0  0  0  0  0  0
  -22.3576  -14.5553   20.6704 O   0  0  0  0  0  0
  -24.6131  -31.8697   23.2124 C   0  0  0  0  0  0
  -25.9028  -32.4840   23.8419 C   0  0  1  0  0  0
  -27.2518  -27.4557   20.0904 C   0  0  0  0  0  0
  -25.5880  -33.8631   24.2350 N   0  0  0  0  0  0
  -23.4033  -30.4918   21.5516 C   0  0  2  0  0  0
  -24.8560  -28.9606   20.1222 C   0  0  0  0  0  0
  -22.7420  -29.4660   22.5001 C   0  0  0  0  0  0
  -18.0269  -28.1392   22.8483 C   0  0  0  0  0  0
  -24.1478  -36.7294   23.2645 C   0  0  0  0  0  0
  -25.9321  -30.8411   21.3660 C   0  0  0  0  0  0
  -26.0157  -29.4765   20.7152 C   0  0  0  0  0  0
  -27.2195  -28.7327   20.7042 C   0  0  0  0  0  0
  -26.0690  -26.9495   19.5157 C   0  0  0  0  0  0
  -24.8747  -27.6909   19.5238 C   0  0  0  0  0  0
  -23.6145  -29.8223   20.1682 C   0  0  0  0  0  0
  -25.4101  -36.3116   24.0349 C   0  0  1  0  0  0
  -20.5864  -28.3660   23.1329 C   0  0  2  0  0  0
  -20.6763  -26.9402   22.5414 C   0  0  0  0  0  0
  -19.5744  -26.6400   21.5212 C   0  0  0  0  0  0
  -18.1913  -26.7948   22.1612 C   0  0  0  0  0  0
  -19.1523  -28.8842   23.2907 C   0  0  0  0  0  0
  -18.9462  -30.1450   23.8912 C   0  0  0  0  0  0
  -17.6464  -30.6587   24.0574 C   0  0  0  0  0  0
  -25.9021  -34.9483   23.5144 C   0  0  0  0  0  0
  -16.5349  -29.9093   23.6343 C   0  0  0  0  0  0
  -16.7261  -28.6522   23.0341 C   0  0  0  0  0  0
  -26.4471  -31.6606   25.0728 C   0  0  0  0  0  0
  -25.3746  -31.3697   26.1484 C   0  0  0  0  0  0
  -27.0308  -30.3058   24.6070 C   0  0  0  0  0  0
  -27.6048  -32.4326   25.7485 C   0  0  0  0  0  0
  -27.5582  -37.1805   24.8470 C   0  0  0  0  0  0
  -21.4144  -29.3035   22.3748 N   0  0  0  0  0  0
  -26.4295  -37.3794   23.9419 N   0  0  0  0  0  0
  -24.6670  -31.0812   22.1015 N   0  0  0  0  0  0
  -23.4208  -28.8198   23.3027 O   0  0  0  0  0  0
  -28.3441  -26.6199   20.0025 O   0  0  0  0  0  0
  -26.5574  -34.8932   22.4701 O   0  0  0  0  0  0
  -23.5320  -32.1441   23.7509 O   0  0  0  0  0  0
  -29.0938  -24.1743   21.8648 C   0  0  0  0  0  0
  -30.2321  -24.9635   21.6379 C   0  0  0  0  0  0
  -31.6844  -23.0019   21.7263 C   0  0  0  0  0  0
  -30.5482  -22.1976   22.0469 C   0  0  0  0  0  0
  -31.5080  -24.4083   21.5910 C   0  0  0  0  0  0
  -29.2511  -22.7815   22.0910 C   0  0  0  0  0  0
  -31.4720  -17.5882   21.9759 C   0  0  0  0  0  0
  -29.1521  -17.5275   21.0453 C   0  0  0  0  0  0
  -31.2889  -16.1122   22.4230 C   0  0  0  0  0  0
  -29.0237  -16.0780   21.5624 C   0  0  0  0  0  0
  -31.7956  -26.7036   21.5970 C   0  0  0  0  0  0
  -30.2752  -26.4678   21.5298 C   0  0  1  0  0  0
  -30.1231  -18.3435   21.9165 C   0  0  0  0  0  0
  -33.0579  -22.3649   21.5335 C   0  0  0  0  0  0
  -33.7632  -25.2602   22.1467 C   0  0  0  0  0  0
  -26.8910  -22.5115   22.4784 C   0  0  0  0  0  0
  -30.6953  -20.7222   22.4633 C   0  0  0  0  0  0
  -29.6710  -27.0716   20.2414 C   0  0  0  0  0  0
  -32.4877  -25.4116   21.4525 N   0  0  0  0  0  0
  -30.3211  -15.3732   21.5842 N   0  0  0  0  0  0
  -30.2434  -19.7510   21.4397 N   0  3  0  0  0  0
  -28.1915  -21.9420   22.3670 O   0  0  0  0  0  0
  -31.4645  -12.4504   19.1102 H   0  0  0  0  0  0
  -30.3483  -11.3302   19.8216 H   0  0  0  0  0  0
  -29.7495  -11.7931   17.4297 H   0  0  0  0  0  0
  -29.6357  -13.5028   17.7670 H   0  0  0  0  0  0
  -27.8509  -11.2813   18.8291 H   0  0  0  0  0  0
  -27.3602  -12.5936   17.7892 H   0  0  0  0  0  0
  -27.6865  -14.2143   19.5144 H   0  0  0  0  0  0
  -28.7014  -11.9412   21.3165 H   0  0  0  0  0  0
  -28.4485  -13.5467   21.8891 H   0  0  0  0  0  0
  -25.2754   -9.5671   22.4769 H   0  0  0  0  0  0
  -23.9995   -7.4619   22.7473 H   0  0  0  0  0  0
  -21.0837   -8.8760   19.8946 H   0  0  0  0  0  0
  -22.3698  -10.9663   19.6161 H   0  0  0  0  0  0
  -21.1987   -7.6145   23.9718 H   0  0  0  0  0  0
  -21.1479   -6.0519   25.9081 H   0  0  0  0  0  0
  -22.0602   -2.7604   23.2851 H   0  0  0  0  0  0
  -22.4093  -11.9877   22.4758 H   0  0  0  0  0  0
  -21.1115  -13.1272   22.2585 H   0  0  0  0  0  0
  -24.6651  -15.8357   20.5083 H   0  0  0  0  0  0
  -26.2787  -15.6194   20.0585 H   0  0  0  0  0  0
  -26.7103  -32.5565   23.1192 H   0  0  0  0  0  0
  -25.0051  -33.9793   25.0516 H   0  0  0  0  0  0
  -22.6906  -31.3065   21.4091 H   0  0  0  0  0  0
  -23.3759  -35.9607   23.3299 H   0  0  0  0  0  0
  -24.3581  -36.8894   22.2059 H   0  0  0  0  0  0
  -23.7204  -37.6494   23.6643 H   0  0  0  0  0  0
  -26.0419  -31.6085   20.5989 H   0  0  0  0  0  0
  -26.8191  -30.8968   21.9830 H   0  0  0  0  0  0
  -28.1003  -29.1453   21.1737 H   0  0  0  0  0  0
  -26.0773  -25.9706   19.0567 H   0  0  0  0  0  0
  -23.9811  -27.2789   19.0769 H   0  0  0  0  0  0
  -23.7203  -30.5952   19.4064 H   0  0  0  0  0  0
  -22.7420  -29.2362   19.8727 H   0  0  0  0  0  0
  -25.1285  -36.1986   25.0844 H   0  0  0  0  0  0
  -20.9942  -28.3210   24.1459 H   0  0  0  0  0  0
  -20.5666  -26.2265   23.3592 H   0  0  0  0  0  0
  -21.6637  -26.7440   22.1203 H   0  0  0  0  0  0
  -19.6906  -25.6322   21.1215 H   0  0  0  0  0  0
  -19.6708  -27.3240   20.6772 H   0  0  0  0  0  0
  -17.4199  -26.6716   21.3996 H   0  0  0  0  0  0
  -18.0280  -26.0084   22.8996 H   0  0  0  0  0  0
  -19.7940  -30.7262   24.2284 H   0  0  0  0  0  0
  -17.5029  -31.6274   24.5167 H   0  0  0  0  0  0
  -15.5358  -30.3003   23.7684 H   0  0  0  0  0  0
  -15.8654  -28.0862   22.7039 H   0  0  0  0  0  0
  -24.5912  -30.7049   25.7819 H   0  0  0  0  0  0
  -24.8951  -32.2855   26.4955 H   0  0  0  0  0  0
  -25.8111  -30.8855   27.0233 H   0  0  0  0  0  0
  -26.2842  -29.6815   24.1142 H   0  0  0  0  0  0
  -27.4137  -29.7283   25.4499 H   0  0  0  0  0  0
  -27.8653  -30.4396   23.9176 H   0  0  0  0  0  0
  -27.2663  -33.3622   26.2075 H   0  0  0  0  0  0
  -28.3852  -32.6892   25.0306 H   0  0  0  0  0  0
  -28.0725  -31.8448   26.5395 H   0  0  0  0  0  0
  -28.2593  -38.0111   24.7522 H   0  0  0  0  0  0
  -28.1083  -36.2639   24.6283 H   0  0  0  0  0  0
  -27.2299  -37.1426   25.8874 H   0  0  0  0  0  0
  -20.9294  -29.8782   21.6990 H   0  0  0  0  0  0
  -26.0187  -38.2871   24.1442 H   0  0  0  0  0  0
  -28.1319  -24.6640   21.9072 H   0  0  0  0  0  0
  -31.9573  -17.6109   20.9992 H   0  0  0  0  0  0
  -32.1530  -18.0865   22.6667 H   0  0  0  0  0  0
  -28.1660  -17.9953   21.0466 H   0  0  0  0  0  0
  -29.4877  -17.5186   20.0064 H   0  0  0  0  0  0
  -30.9359  -16.0832   23.4548 H   0  0  0  0  0  0
  -32.2588  -15.6102   22.4385 H   0  0  0  0  0  0
  -28.2881  -15.5858   20.9435 H   0  0  0  0  0  0
  -28.6068  -16.0759   22.5713 H   0  0  0  0  0  0
  -32.0454  -27.1351   22.5684 H   0  0  0  0  0  0
  -32.1327  -27.4159   20.8428 H   0  0  0  0  0  0
  -29.7833  -26.9023   22.4009 H   0  0  0  0  0  0
  -29.6983  -18.3678   22.9222 H   0  0  0  0  0  0
  -32.9935  -21.3444   21.1601 H   0  0  0  0  0  0
  -33.6211  -22.3555   22.4670 H   0  0  0  0  0  0
  -33.6316  -22.9071   20.7833 H   0  0  0  0  0  0
  -34.5087  -24.8026   21.4957 H   0  0  0  0  0  0
  -33.6653  -24.6549   23.0486 H   0  0  0  0  0  0
  -34.1614  -26.2296   22.4486 H   0  0  0  0  0  0
  -26.1677  -21.7251   22.6920 H   0  0  0  0  0  0
  -26.5833  -22.9944   21.5498 H   0  0  0  0  0  0
  -26.8406  -23.2335   23.2953 H   0  0  0  0  0  0
  -30.1012  -20.5851   23.3672 H   0  0  0  0  0  0
  -31.7144  -20.4916   22.7702 H   0  0  0  0  0  0
  -30.2590  -26.7276   19.3893 H   0  0  0  0  0  0
  -29.7665  -28.1564   20.2326 H   0  0  0  0  0  0
  -29.3263  -20.0583   21.1586 H   0  0  0  0  0  0
  -30.8398  -19.8051   20.6305 H   0  0  0  0  0  0
  1 25  1  0  0  0
  1 30  2  0  0  0
  1 90  1  0  0  0
  2  3  1  0  0  0
  2 25  1  0  0  0
  2 93  1  0  0  0
  2 94  1  0  0  0
  3  4  1  0  0  0
  3 95  1  0  0  0
  3 96  1  0  0  0
  4  5  1  0  0  0
  4 97  1  0  0  0
  4 98  1  0  0  0
  5  6  1  0  0  0
  5 26  1  0  0  0
  5 99  1  0  0  0
  6 25  1  0  0  0
  6100  1  0  0  0
  6101  1  0  0  0
  7  8  2  0  0  0
  7 26  1  0  0  0
  7 29  1  0  0  0
  8  9  1  0  0  0
  8 22  1  0  0  0
  9 10  1  0  0  0
  9 27  2  0  0  0
 10 11  2  0  0  0
 10 15  1  0  0  0
 11 12  1  0  0  0
 11102  1  0  0  0
 12 13  2  0  0  0
 12103  1  0  0  0
 13 14  1  0  0  0
 13 31  1  0  0  0
 14 15  2  0  0  0
 14104  1  0  0  0
 15105  1  0  0  0
 16 17  2  0  0  0
 16 21  1  0  0  0
 16 31  1  0  0  0
 17 18  1  0  0  0
 17106  1  0  0  0
 18 19  2  0  0  0
 18107  1  0  0  0
 19 20  1  0  0  0
 19 24  1  0  0  0
 20 21  2  0  0  0
 20108  1  0  0  0
 21 23  1  0  0  0
 22 28  1  0  0  0
 22 32  2  0  0  0
 26 27  1  0  0  0
 28109  1  0  0  0
 28110  1  0  0  0
 29111  1  0  0  0
 29112  1  0  0  0
 33 34  1  0  0  0
 33 66  1  0  0  0
 33 70  2  0  0  0
 34 36  1  0  0  0
 34 59  1  0  0  0
 34113  1  0  0  0
 35 44  2  0  0  0
 35 45  1  0  0  0
 35 68  1  0  0  0
 36 56  1  0  0  0
 36114  1  0  0  0
 37 39  1  0  0  0
 37 47  1  0  0  0
 37 66  1  0  0  0
 37115  1  0  0  0
 38 43  2  0  0  0
 38 46  1  0  0  0
 38 47  1  0  0  0
 39 64  1  0  0  0
 39 67  2  0  0  0
 40 52  1  0  0  0
 40 53  2  0  0  0
 40 58  1  0  0  0
 41116  1  0  0  0
 41117  1  0  0  0
 41118  1  0  0  0
 41 48  1  0  0  0
 42 43  1  0  0  0
 42 66  1  0  0  0
 42119  1  0  0  0
 42120  1  0  0  0
 43 44  1  0  0  0
 44121  1  0  0  0
 45 46  2  0  0  0
 45122  1  0  0  0
 46123  1  0  0  0
 47124  1  0  0  0
 47125  1  0  0  0
 48 56  1  0  0  0
 48 65  1  0  0  0
 48126  1  0  0  0
 49 50  1  0  0  0
 49 53  1  0  0  0
 49 64  1  0  0  0
 49127  1  0  0  0
 50 51  1  0  0  0
 50128  1  0  0  0
 50129  1  0  0  0
 51 52  1  0  0  0
 51130  1  0  0  0
 51131  1  0  0  0
 52132  1  0  0  0
 52133  1  0  0  0
 53 54  1  0  0  0
 54 55  2  0  0  0
 54134  1  0  0  0
 55 57  1  0  0  0
 55135  1  0  0  0
 56 69  2  0  0  0
 57 58  2  0  0  0
 57136  1  0  0  0
 58137  1  0  0  0
 59 60  1  0  0  0
 59 61  1  0  0  0
 59 62  1  0  0  0
 60138  1  0  0  0
 60139  1  0  0  0
 60140  1  0  0  0
 61141  1  0  0  0
 61142  1  0  0  0
 61143  1  0  0  0
 62144  1  0  0  0
 62145  1  0  0  0
 62146  1  0  0  0
 63 65  1  0  0  0
 63147  1  0  0  0
 63148  1  0  0  0
 63149  1  0  0  0
 64150  1  0  0  0
 65151  1  0  0  0
 68 88  1  0  0  0
 71 72  2  0  0  0
 71 76  1  0  0  0
 71152  1  0  0  0
 72 75  1  0  0  0
 72 82  1  0  0  0
 73 74  1  0  0  0
 73 75  2  0  0  0
 73 84  1  0  0  0
 74 76  2  0  0  0
 74 87  1  0  0  0
 75 89  1  0  0  0
 76 92  1  0  0  0
 77 79  1  0  0  0
 77 83  1  0  0  0
 77153  1  0  0  0
 77154  1  0  0  0
 78 80  1  0  0  0
 78 83  1  0  0  0
 78155  1  0  0  0
 78156  1  0  0  0
 79 90  1  0  0  0
 79157  1  0  0  0
 79158  1  0  0  0
 80 90  1  0  0  0
 80159  1  0  0  0
 80160  1  0  0  0
 81 82  1  0  0  0
 81 89  1  0  0  0
 81161  1  0  0  0
 81162  1  0  0  0
 82 88  1  0  0  0
 82163  1  0  0  0
 83 91  1  0  0  0
 83164  1  0  0  0
 84165  1  0  0  0
 84166  1  0  0  0
 84167  1  0  0  0
 85 89  1  0  0  0
 85168  1  0  0  0
 85169  1  0  0  0
 85170  1  0  0  0
 86 92  1  0  0  0
 86171  1  0  0  0
 86172  1  0  0  0
 86173  1  0  0  0
 87 91  1  0  0  0
 87174  1  0  0  0
 87175  1  0  0  0
 88176  1  0  0  0
 88177  1  0  0  0
 91178  1  0  0  0
 91179  1  0  0  0
M  CHG  1  91   1
M  ISO  4   1 100  68 101  88 101  90 100
M  END
> <chiral flag>
0

> <version>
0

> <s_m_source_file>
/data/baiqing/PycharmProjects/Reinvent-master-3.2/result/LINK_invent/BTK/process_docking_weight1_custom_sum_contain_oxygen_bond_distance_aromatic_linkinvent_7_9_3/rearranged_h_0158.sdf

> <i_m_source_file_index>
81

> <r_mmod_Potential_Energy-OPLS-2005>
2.52540016174316

> <r_mmod_Stretch_Energy-OPLS-2005>
46.8847503662109

> <r_mmod_Bend_Energy-OPLS-2005>
176.583343505859

> <r_mmod_Torsional_Energy-OPLS-2005>
301.507965087891

> <r_mmod_Improper_Torsional_Energy-OPLS-2005>
9.00718212127686

> <r_mmod_Van_der_Waal_Energy-OPLS-2005>
167.003402709961

> <r_mmod_Electrostatic_Energy-OPLS-2005>
-259.083435058594

> <r_mmod_Solvation_Energy-OPLS-2005>
-451.793823242188

> <b_mmod_Minimization_Converged-OPLS-2005>
0

> <r_mmod_RMS_Derivative-OPLS-2005>
1.56402599811554

$$$$
81
                    3D
 Structure written by MMmdl.
179189  0  0  1  0            999 V2000
  -30.6900  -14.4417   20.5522 C   0  0  0  0  0  0
  -30.4254  -12.2781   19.4128 C   0  0  0  0  0  0
  -29.4924  -12.4850   18.2007 C   0  0  0  0  0  0
  -28.0112  -12.3553   18.6144 C   0  0  0  0  0  0
  -27.6608  -13.1871   19.8777 C   0  0  2  0  0  0
  -28.7083  -12.9573   20.9926 C   0  0  0  0  0  0
  -25.2606  -13.8119   20.5677 C   0  0  0  0  0  0
  -24.1840  -13.0424   20.9191 C   0  0  0  0  0  0
  -24.6366  -11.6885   20.8753 C   0  0  0  0  0  0
  -23.9024  -10.4286   21.0413 C   0  0  0  0  0  0
  -24.3592   -9.4206   21.9186 C   0  0  0  0  0  0
  -23.6283   -8.2235   22.0750 C   0  0  0  0  0  0
  -22.4270   -8.0266   21.3540 C   0  0  0  0  0  0
  -21.9896   -9.0235   20.4643 C   0  0  0  0  0  0
  -22.7204  -10.2123   20.3053 C   0  0  0  0  0  0
  -21.6849   -6.0734   22.5283 C   0  0  0  0  0  0
  -21.4011   -6.5636   23.8216 C   0  0  0  0  0  0
  -21.3658   -5.6787   24.9175 C   0  0  0  0  0  0
  -21.6041   -4.3051   24.7227 C   0  0  0  0  0  0
  -21.8817   -3.8148   23.4348 C   0  0  0  0  0  0
  -21.9193   -4.6964   22.3407 C   0  0  0  0  0  0
  -22.7864  -13.5241   21.1851 C   0  0  0  0  0  0
  -22.1659   -4.2151   21.0982 F   0  0  0  0  0  0
  -21.5630   -3.4534   25.7740 F   0  0  0  0  0  0
  -30.0359  -13.2568   20.4352 N   0  0  0  0  0  0
  -26.3021  -12.9238   20.3401 N   0  0  0  0  0  0
  -25.9287  -11.6423   20.5801 N   0  0  0  0  0  0
  -22.0489  -12.8249   22.0407 N   0  0  0  0  0  0
  -25.4329  -15.1829   20.4023 N   0  0  0  0  0  0
  -31.8513  -14.6143   20.1644 O   0  0  0  0  0  0
  -21.6637   -6.8865   21.4238 O   0  0  0  0  0  0
  -22.3557  -14.5542   20.6680 O   0  0  0  0  0  0
  -24.6066  -31.8724   23.2138 C   0  0  0  0  0  0
  -25.8981  -32.4851   23.8424 C   0  0  1  0  0  0
  -27.2665  -27.4888   20.0962 C   0  0  0  0  0  0
  -25.5855  -33.8649   24.2349 N   0  0  0  0  0  0
  -23.3938  -30.4920   21.5516 C   0  0  2  0  0  0
  -24.8484  -28.9592   20.1211 C   0  0  0  0  0  0
  -22.7372  -29.4667   22.5019 C   0  0  0  0  0  0
  -18.0263  -28.1372   22.8494 C   0  0  0  0  0  0
  -24.1486  -36.7338   23.2638 C   0  0  0  0  0  0
  -25.9139  -30.8530   21.3609 C   0  0  0  0  0  0
  -25.9976  -29.4856   20.7215 C   0  0  0  0  0  0
  -27.2023  -28.7559   20.7238 C   0  0  0  0  0  0
  -26.0985  -26.9679   19.4997 C   0  0  0  0  0  0
  -24.8891  -27.6918   19.5131 C   0  0  0  0  0  0
  -23.6046  -29.8181   20.1671 C   0  0  0  0  0  0
  -25.4102  -36.3137   24.0346 C   0  0  1  0  0  0
  -20.5846  -28.3646   23.1338 C   0  0  2  0  0  0
  -20.6751  -26.9386   22.5427 C   0  0  0  0  0  0
  -19.5736  -26.6382   21.5215 C   0  0  0  0  0  0
  -18.1910  -26.7921   22.1621 C   0  0  0  0  0  0
  -19.1510  -28.8826   23.2917 C   0  0  0  0  0  0
  -18.9442  -30.1432   23.8926 C   0  0  0  0  0  0
  -17.6447  -30.6581   24.0569 C   0  0  0  0  0  0
  -25.9018  -34.9497   23.5150 C   0  0  0  0  0  0
  -16.5338  -29.9087   23.6321 C   0  0  0  0  0  0
  -16.7254  -28.6504   23.0342 C   0  0  0  0  0  0
  -26.4440  -31.6608   25.0719 C   0  0  0  0  0  0
  -25.3730  -31.3698   26.1485 C   0  0  0  0  0  0
  -27.0258  -30.3061   24.6046 C   0  0  0  0  0  0
  -27.6028  -32.4315   25.7475 C   0  0  0  0  0  0
  -27.5585  -37.1824   24.8462 C   0  0  0  0  0  0
  -21.4108  -29.3020   22.3753 N   0  0  0  0  0  0
  -26.4298  -37.3808   23.9405 N   0  0  0  0  0  0
  -24.6555  -31.0862   22.1017 N   0  0  0  0  0  0
  -23.4169  -28.8221   23.3053 O   0  0  0  0  0  0
  -28.4093  -26.7235   20.0010 O   0  0  0  0  0  0
  -26.5590  -34.8932   22.4714 O   0  0  0  0  0  0
  -23.5273  -32.1455   23.7559 O   0  0  0  0  0  0
  -30.8786  -19.6881   20.7831 C   0  0  0  0  0  0
  -30.3425  -19.8772   18.4183 C   0  0  0  0  0  0
  -30.7550  -20.4850   19.6213 C   0  0  0  0  0  0
  -30.5362  -18.3181   20.7490 C   0  0  0  0  0  0
  -30.0472  -17.7410   19.5551 C   0  0  0  0  0  0
  -29.9750  -18.5208   18.3774 C   0  0  0  0  0  0
  -30.6963  -17.4669   22.0005 C   0  0  0  0  0  0
  -29.5487  -16.3027   19.5450 C   0  0  0  0  0  0
  -29.7507  -22.7674   19.2248 C   0  0  0  0  0  0
  -31.5867  -22.5949   20.9064 C   0  0  0  0  0  0
  -30.0465  -24.2632   19.0712 C   0  0  0  0  0  0
  -31.8238  -24.1161   20.7648 C   0  0  0  0  0  0
  -31.0248  -21.9902   19.6026 C   0  0  1  0  0  0
  -29.7959  -16.2088   22.0220 C   0  0  1  0  0  0
  -29.4936  -17.9310   17.0611 C   0  0  0  0  0  0
  -28.1299  -17.0214   23.8338 C   0  0  0  0  0  0
  -28.3227  -16.5084   22.3994 C   0  0  0  0  0  0
  -30.7994  -26.3124   20.2235 C   0  0  0  0  0  0
  -29.5838  -27.1268   20.7048 C   0  0  0  0  0  0
  -29.8681  -15.4984   20.7344 N   0  0  0  0  0  0
  -30.5975  -24.8403   20.3264 N   0  3  1  0  0  0
  -31.4694  -12.3820   19.1104 H   0  0  0  0  0  0
  -30.3269  -11.2648   19.8060 H   0  0  0  0  0  0
  -29.7238  -11.7581   17.4215 H   0  0  0  0  0  0
  -29.6682  -13.4669   17.7592 H   0  0  0  0  0  0
  -27.8105  -11.2996   18.8008 H   0  0  0  0  0  0
  -27.3623  -12.6419   17.7860 H   0  0  0  0  0  0
  -27.6971  -14.2306   19.5798 H   0  0  0  0  0  0
  -28.6814  -11.9206   21.3311 H   0  0  0  0  0  0
  -28.4936  -13.5561   21.8762 H   0  0  0  0  0  0
  -25.2736   -9.5698   22.4758 H   0  0  0  0  0  0
  -24.0000   -7.4626   22.7466 H   0  0  0  0  0  0
  -21.0828   -8.8732   19.8955 H   0  0  0  0  0  0
  -22.3644  -10.9654   19.6160 H   0  0  0  0  0  0
  -21.1995   -7.6143   23.9719 H   0  0  0  0  0  0
  -21.1484   -6.0518   25.9077 H   0  0  0  0  0  0
  -22.0603   -2.7614   23.2844 H   0  0  0  0  0  0
  -22.4083  -11.9906   22.4813 H   0  0  0  0  0  0
  -21.1096  -13.1272   22.2578 H   0  0  0  0  0  0
  -24.6653  -15.8372   20.5062 H   0  0  0  0  0  0
  -26.2919  -15.6246   20.1029 H   0  0  0  0  0  0
  -26.7060  -32.5605   23.1211 H   0  0  0  0  0  0
  -24.9995  -33.9826   25.0486 H   0  0  0  0  0  0
  -22.6797  -31.3060   21.4105 H   0  0  0  0  0  0
  -23.3738  -35.9681   23.3323 H   0  0  0  0  0  0
  -24.3580  -36.8928   22.2047 H   0  0  0  0  0  0
  -23.7248  -37.6557   23.6633 H   0  0  0  0  0  0
  -26.0118  -31.6148   20.5864 H   0  0  0  0  0  0
  -26.8047  -30.9196   21.9726 H   0  0  0  0  0  0
  -28.0631  -29.1986   21.2018 H   0  0  0  0  0  0
  -26.1301  -26.0008   19.0176 H   0  0  0  0  0  0
  -24.0059  -27.2750   19.0487 H   0  0  0  0  0  0
  -23.7083  -30.5909   19.4041 H   0  0  0  0  0  0
  -22.7315  -29.2314   19.8744 H   0  0  0  0  0  0
  -25.1280  -36.2021   25.0841 H   0  0  0  0  0  0
  -20.9932  -28.3206   24.1461 H   0  0  0  0  0  0
  -20.5642  -26.2256   23.3611 H   0  0  0  0  0  0
  -21.6625  -26.7433   22.1226 H   0  0  0  0  0  0
  -19.6895  -25.6296   21.1235 H   0  0  0  0  0  0
  -19.6681  -27.3201   20.6750 H   0  0  0  0  0  0
  -17.4186  -26.6675   21.4018 H   0  0  0  0  0  0
  -18.0303  -26.0056   22.9008 H   0  0  0  0  0  0
  -19.7918  -30.7235   24.2311 H   0  0  0  0  0  0
  -17.5005  -31.6263   24.5161 H   0  0  0  0  0  0
  -15.5337  -30.3005   23.7621 H   0  0  0  0  0  0
  -15.8654  -28.0836   22.7038 H   0  0  0  0  0  0
  -24.5881  -30.7068   25.7828 H   0  0  0  0  0  0
  -24.8942  -32.2849   26.4982 H   0  0  0  0  0  0
  -25.8097  -30.8831   27.0214 H   0  0  0  0  0  0
  -26.2786  -29.6847   24.1093 H   0  0  0  0  0  0
  -27.4040  -29.7267   25.4478 H   0  0  0  0  0  0
  -27.8617  -30.4399   23.9173 H   0  0  0  0  0  0
  -27.2646  -33.3585   26.2123 H   0  0  0  0  0  0
  -28.3802  -32.6926   25.0280 H   0  0  0  0  0  0
  -28.0738  -31.8396   26.5338 H   0  0  0  0  0  0
  -28.2618  -38.0107   24.7498 H   0  0  0  0  0  0
  -28.1067  -36.2641   24.6302 H   0  0  0  0  0  0
  -27.2302  -37.1495   25.8865 H   0  0  0  0  0  0
  -20.9258  -29.8744   21.6985 H   0  0  0  0  0  0
  -26.0204  -38.2898   24.1390 H   0  0  0  0  0  0
  -31.2223  -20.1158   21.7139 H   0  0  0  0  0  0
  -30.2779  -20.4717   17.5173 H   0  0  0  0  0  0
  -30.5445  -18.0763   22.8904 H   0  0  0  0  0  0
  -31.7401  -17.1522   22.0371 H   0  0  0  0  0  0
  -29.9060  -15.8103   18.6385 H   0  0  0  0  0  0
  -28.4646  -16.3433   19.4482 H   0  0  0  0  0  0
  -29.3364  -22.4061   18.2839 H   0  0  0  0  0  0
  -28.9758  -22.6094   19.9764 H   0  0  0  0  0  0
  -30.8998  -22.4152   21.7339 H   0  0  0  0  0  0
  -32.5272  -22.1089   21.1706 H   0  0  0  0  0  0
  -29.1309  -24.7719   18.7723 H   0  0  0  0  0  0
  -30.7575  -24.4121   18.2564 H   0  0  0  0  0  0
  -32.6265  -24.2988   20.0489 H   0  0  0  0  0  0
  -32.1638  -24.5157   21.7214 H   0  0  0  0  0  0
  -31.7687  -22.1491   18.8195 H   0  0  0  0  0  0
  -30.1816  -15.5464   22.8011 H   0  0  0  0  0  0
  -29.4034  -18.6955   16.2893 H   0  0  0  0  0  0
  -28.5146  -17.4654   17.1749 H   0  0  0  0  0  0
  -30.1956  -17.1799   16.6982 H   0  0  0  0  0  0
  -27.0696  -17.1240   24.0654 H   0  0  0  0  0  0
  -28.5818  -18.0019   23.9801 H   0  0  0  0  0  0
  -28.5614  -16.3368   24.5647 H   0  0  0  0  0  0
  -27.7207  -15.6077   22.2864 H   0  0  0  0  0  0
  -27.8970  -17.2340   21.7048 H   0  0  0  0  0  0
  -31.6528  -26.6172   20.8310 H   0  0  0  0  0  0
  -31.0552  -26.5881   19.1998 H   0  0  0  0  0  0
  -29.8110  -28.1773   20.5238 H   0  0  0  0  0  0
  -29.4315  -26.9970   21.7774 H   0  0  0  0  0  0
  -29.9048  -24.6990   21.0483 H   0  0  0  0  0  0
  1 25  1  0  0  0
  1 30  2  0  0  0
  1 90  1  0  0  0
  2  3  1  0  0  0
  2 25  1  0  0  0
  2 92  1  0  0  0
  2 93  1  0  0  0
  3  4  1  0  0  0
  3 94  1  0  0  0
  3 95  1  0  0  0
  4  5  1  0  0  0
  4 96  1  0  0  0
  4 97  1  0  0  0
  5  6  1  0  0  0
  5 26  1  0  0  0
  5 98  1  0  0  0
  6 25  1  0  0  0
  6 99  1  0  0  0
  6100  1  0  0  0
  7  8  2  0  0  0
  7 26  1  0  0  0
  7 29  1  0  0  0
  8  9  1  0  0  0
  8 22  1  0  0  0
  9 10  1  0  0  0
  9 27  2  0  0  0
 10 11  2  0  0  0
 10 15  1  0  0  0
 11 12  1  0  0  0
 11101  1  0  0  0
 12 13  2  0  0  0
 12102  1  0  0  0
 13 14  1  0  0  0
 13 31  1  0  0  0
 14 15  2  0  0  0
 14103  1  0  0  0
 15104  1  0  0  0
 16 17  2  0  0  0
 16 21  1  0  0  0
 16 31  1  0  0  0
 17 18  1  0  0  0
 17105  1  0  0  0
 18 19  2  0  0  0
 18106  1  0  0  0
 19 20  1  0  0  0
 19 24  1  0  0  0
 20 21  2  0  0  0
 20107  1  0  0  0
 21 23  1  0  0  0
 22 28  1  0  0  0
 22 32  2  0  0  0
 26 27  1  0  0  0
 28108  1  0  0  0
 28109  1  0  0  0
 29110  1  0  0  0
 29111  1  0  0  0
 33 34  1  0  0  0
 33 66  1  0  0  0
 33 70  2  0  0  0
 34 36  1  0  0  0
 34 59  1  0  0  0
 34112  1  0  0  0
 35 44  2  0  0  0
 35 45  1  0  0  0
 35 68  1  0  0  0
 36 56  1  0  0  0
 36113  1  0  0  0
 37 39  1  0  0  0
 37 47  1  0  0  0
 37 66  1  0  0  0
 37114  1  0  0  0
 38 43  2  0  0  0
 38 46  1  0  0  0
 38 47  1  0  0  0
 39 64  1  0  0  0
 39 67  2  0  0  0
 40 52  1  0  0  0
 40 53  2  0  0  0
 40 58  1  0  0  0
 41115  1  0  0  0
 41116  1  0  0  0
 41117  1  0  0  0
 41 48  1  0  0  0
 42 43  1  0  0  0
 42 66  1  0  0  0
 42118  1  0  0  0
 42119  1  0  0  0
 43 44  1  0  0  0
 44120  1  0  0  0
 45 46  2  0  0  0
 45121  1  0  0  0
 46122  1  0  0  0
 47123  1  0  0  0
 47124  1  0  0  0
 48 56  1  0  0  0
 48 65  1  0  0  0
 48125  1  0  0  0
 49 50  1  0  0  0
 49 53  1  0  0  0
 49 64  1  0  0  0
 49126  1  0  0  0
 50 51  1  0  0  0
 50127  1  0  0  0
 50128  1  0  0  0
 51 52  1  0  0  0
 51129  1  0  0  0
 51130  1  0  0  0
 52131  1  0  0  0
 52132  1  0  0  0
 53 54  1  0  0  0
 54 55  2  0  0  0
 54133  1  0  0  0
 55 57  1  0  0  0
 55134  1  0  0  0
 56 69  2  0  0  0
 57 58  2  0  0  0
 57135  1  0  0  0
 58136  1  0  0  0
 59 60  1  0  0  0
 59 61  1  0  0  0
 59 62  1  0  0  0
 60137  1  0  0  0
 60138  1  0  0  0
 60139  1  0  0  0
 61140  1  0  0  0
 61141  1  0  0  0
 61142  1  0  0  0
 62143  1  0  0  0
 62144  1  0  0  0
 62145  1  0  0  0
 63 65  1  0  0  0
 63146  1  0  0  0
 63147  1  0  0  0
 63148  1  0  0  0
 64149  1  0  0  0
 65150  1  0  0  0
 68 89  1  0  0  0
 71 73  2  0  0  0
 71 74  1  0  0  0
 71151  1  0  0  0
 72 73  1  0  0  0
 72 76  2  0  0  0
 72152  1  0  0  0
 73 83  1  0  0  0
 74 75  2  0  0  0
 74 77  1  0  0  0
 75 76  1  0  0  0
 75 78  1  0  0  0
 76 85  1  0  0  0
 77 84  1  0  0  0
 77153  1  0  0  0
 77154  1  0  0  0
 78 90  1  0  0  0
 78155  1  0  0  0
 78156  1  0  0  0
 79 81  1  0  0  0
 79 83  1  0  0  0
 79157  1  0  0  0
 79158  1  0  0  0
 80 82  1  0  0  0
 80 83  1  0  0  0
 80159  1  0  0  0
 80160  1  0  0  0
 81 91  1  0  0  0
 81161  1  0  0  0
 81162  1  0  0  0
 82 91  1  0  0  0
 82163  1  0  0  0
 82164  1  0  0  0
 83165  1  0  0  0
 84 87  1  0  0  0
 84 90  1  0  0  0
 84166  1  0  0  0
 85167  1  0  0  0
 85168  1  0  0  0
 85169  1  0  0  0
 86 87  1  0  0  0
 86170  1  0  0  0
 86171  1  0  0  0
 86172  1  0  0  0
 87173  1  0  0  0
 87174  1  0  0  0
 88 89  1  0  0  0
 88175  1  0  0  0
 88176  1  0  0  0
 88 91  1  0  0  0
 89177  1  0  0  0
 89178  1  0  0  0
 91179  1  0  0  0
M  CHG  1  91   1
M  ISO  4   1 100  68 101  89 101  90 100
M  END
> <chiral flag>
0

> <version>
0

> <s_m_source_file>
/data/baiqing/PycharmProjects/Reinvent-master-3.2/result/LINK_invent/BTK/process_docking_weight1_custom_sum_contain_oxygen_bond_distance_aromatic_linkinvent_7_9_3/rearranged_h_0158.sdf

> <i_m_source_file_index>
82

> <r_mmod_Potential_Energy-OPLS-2005>
60.7365760803223

> <r_mmod_Stretch_Energy-OPLS-2005>
36.7181167602539

> <r_mmod_Bend_Energy-OPLS-2005>
105.776077270508

> <r_mmod_Torsional_Energy-OPLS-2005>
353.875457763672

> <r_mmod_Improper_Torsional_Energy-OPLS-2005>
12.9455509185791

> <r_mmod_Van_der_Waal_Energy-OPLS-2005>
164.281799316406

> <r_mmod_Electrostatic_Energy-OPLS-2005>
-225.927032470703

> <r_mmod_Solvation_Energy-OPLS-2005>
-397.439514160156

> <b_mmod_Minimization_Converged-OPLS-2005>
0

> <r_mmod_RMS_Derivative-OPLS-2005>
1.18383431434631

$$$$
82
                    3D
 Structure written by MMmdl.
185195  0  0  1  0            999 V2000
  -30.7007  -14.5819   20.4070 C   0  0  0  0  0  0
  -30.4111  -12.3579   19.3955 C   0  0  0  0  0  0
  -29.4626  -12.4758   18.1841 C   0  0  0  0  0  0
  -27.9950  -12.3045   18.6203 C   0  0  0  0  0  0
  -27.6338  -13.1713   19.8550 C   0  0  2  0  0  0
  -28.7062  -13.0910   20.9607 C   0  0  0  0  0  0
  -25.2567  -13.8037   20.5790 C   0  0  0  0  0  0
  -24.1779  -13.0433   20.9243 C   0  0  0  0  0  0
  -24.6260  -11.6853   20.8811 C   0  0  0  0  0  0
  -23.8913  -10.4292   21.0437 C   0  0  0  0  0  0
  -24.3518   -9.4211   21.9186 C   0  0  0  0  0  0
  -23.6239   -8.2233   22.0741 C   0  0  0  0  0  0
  -22.4220   -8.0240   21.3528 C   0  0  0  0  0  0
  -21.9818   -9.0182   20.4612 C   0  0  0  0  0  0
  -22.7105  -10.2087   20.3056 C   0  0  0  0  0  0
  -21.6858   -6.0687   22.5260 C   0  0  0  0  0  0
  -21.3988   -6.5589   23.8188 C   0  0  0  0  0  0
  -21.3683   -5.6734   24.9143 C   0  0  0  0  0  0
  -21.6091   -4.3005   24.7179 C   0  0  0  0  0  0
  -21.8848   -3.8099   23.4303 C   0  0  0  0  0  0
  -21.9205   -4.6921   22.3364 C   0  0  0  0  0  0
  -22.7811  -13.5295   21.1799 C   0  0  0  0  0  0
  -22.1685   -4.2135   21.0936 F   0  0  0  0  0  0
  -21.5663   -3.4474   25.7681 F   0  0  0  0  0  0
  -30.0087  -13.4040   20.3492 N   0  0  0  0  0  0
  -26.2895  -12.9101   20.3440 N   0  0  0  0  0  0
  -25.9163  -11.6333   20.5885 N   0  0  0  0  0  0
  -22.0372  -12.8376   22.0342 N   0  0  0  0  0  0
  -25.4556  -15.1744   20.4164 N   0  0  0  0  0  0
  -31.9045  -14.6264   20.1510 O   0  0  0  0  0  0
  -21.6650   -6.8804   21.4215 O   0  0  0  0  0  0
  -22.3578  -14.5585   20.6512 O   0  0  0  0  0  0
  -24.6229  -31.8581   23.2012 C   0  0  0  0  0  0
  -25.9066  -32.4786   23.8357 C   0  0  1  0  0  0
  -27.2322  -27.3621   20.0993 C   0  0  0  0  0  0
  -25.5857  -33.8573   24.2257 N   0  0  0  0  0  0
  -23.4200  -30.4735   21.5465 C   0  0  2  0  0  0
  -24.8632  -28.9358   20.1113 C   0  0  0  0  0  0
  -22.7492  -29.4585   22.5007 C   0  0  0  0  0  0
  -18.0268  -28.1373   22.8514 C   0  0  0  0  0  0
  -24.1452  -36.7296   23.2648 C   0  0  0  0  0  0
  -25.9565  -30.8004   21.3672 C   0  0  0  0  0  0
  -26.0276  -29.4317   20.7070 C   0  0  0  0  0  0
  -27.2170  -28.6553   20.6917 C   0  0  0  0  0  0
  -26.0481  -26.9152   19.4678 C   0  0  0  0  0  0
  -24.8706  -27.6802   19.4857 C   0  0  0  0  0  0
  -23.6265  -29.7984   20.1652 C   0  0  0  0  0  0
  -25.4082  -36.3089   24.0337 C   0  0  1  0  0  0
  -20.5880  -28.3657   23.1313 C   0  0  2  0  0  0
  -20.6756  -26.9364   22.5443 C   0  0  0  0  0  0
  -19.5739  -26.6369   21.5240 C   0  0  0  0  0  0
  -18.1915  -26.7928   22.1643 C   0  0  0  0  0  0
  -19.1536  -28.8848   23.2886 C   0  0  0  0  0  0
  -18.9471  -30.1456   23.8885 C   0  0  0  0  0  0
  -17.6475  -30.6571   24.0567 C   0  0  0  0  0  0
  -25.9021  -34.9456   23.5100 C   0  0  0  0  0  0
  -16.5359  -29.9064   23.6352 C   0  0  0  0  0  0
  -16.7278  -28.6488   23.0384 C   0  0  0  0  0  0
  -26.4445  -31.6612   25.0743 C   0  0  0  0  0  0
  -25.3730  -31.3770   26.1527 C   0  0  0  0  0  0
  -27.0260  -30.3045   24.6157 C   0  0  0  0  0  0
  -27.5973  -32.4398   25.7545 C   0  0  0  0  0  0
  -27.5554  -37.1790   24.8470 C   0  0  0  0  0  0
  -21.4224  -29.2989   22.3723 N   0  0  0  0  0  0
  -26.4274  -37.3783   23.9401 N   0  0  0  0  0  0
  -24.6860  -31.0624   22.0939 N   0  0  0  0  0  0
  -23.4234  -28.8154   23.3094 O   0  0  0  0  0  0
  -28.3744  -26.5654   20.1655 O   0  0  0  0  0  0
  -26.5629  -34.8942   22.4696 O   0  0  0  0  0  0
  -23.5398  -32.1369   23.7328 O   0  0  0  0  0  0
  -31.8527  -19.1488   17.5860 C   0  0  0  0  0  0
  -32.5839  -20.0816   16.8313 C   0  0  0  0  0  0
  -31.2904  -20.8918   19.2122 C   0  0  0  0  0  0
  -32.2801  -21.7095   18.5900 C   0  0  0  0  0  0
  -31.1799  -19.5158   18.7856 C   0  0  0  0  0  0
  -32.8288  -21.3600   17.3428 C   0  0  0  0  0  0
  -28.8502  -21.6012   20.0059 C   0  0  0  0  0  0
  -31.3691  -17.8826   20.5436 C   0  0  0  0  0  0
  -29.8319  -17.4616   18.7362 C   0  0  0  0  0  0
  -30.6226  -16.8251   21.4120 C   0  0  0  0  0  0
  -29.1378  -16.3595   19.5822 C   0  0  0  0  0  0
  -30.3526  -21.5912   20.2056 C   0  0  2  0  0  0
  -29.6060  -22.8846   19.7540 C   0  0  2  0  0  0
  -32.8247  -22.9558   19.2658 C   0  0  0  0  0  0
  -30.6201  -24.9600   20.8516 C   0  0  0  0  0  0
  -36.4272  -23.9537   14.2952 C   0  0  0  0  0  0
  -34.1778  -24.1549   15.3836 C   0  0  0  0  0  0
  -33.0397  -23.2768   15.9407 C   0  0  0  0  0  0
  -28.2622  -25.1345   19.8774 C   0  0  0  0  0  0
  -29.3228  -24.1901   20.5642 C   0  0  2  0  0  0
  -30.5009  -18.5031   19.5337 N   0  0  0  0  0  0
  -30.0127  -15.7452   20.6123 N   0  0  0  0  0  0
  -35.1360  -23.3187   14.6246 N   0  3  0  0  0  0
  -33.6692  -22.2075   16.6596 O   0  0  0  0  0  0
  -31.4476  -12.4628   19.0706 H   0  0  0  0  0  0
  -30.3371  -11.3697   19.8521 H   0  0  0  0  0  0
  -29.7014  -11.7232   17.4304 H   0  0  0  0  0  0
  -29.5841  -13.4494   17.6997 H   0  0  0  0  0  0
  -27.8389  -11.2495   18.8465 H   0  0  0  0  0  0
  -27.3208  -12.5380   17.7947 H   0  0  0  0  0  0
  -27.6102  -14.1845   19.4971 H   0  0  0  0  0  0
  -28.7366  -12.0861   21.3847 H   0  0  0  0  0  0
  -28.4738  -13.7711   21.7813 H   0  0  0  0  0  0
  -25.2676   -9.5748   22.4716 H   0  0  0  0  0  0
  -24.0016   -7.4638   22.7415 H   0  0  0  0  0  0
  -21.0803   -8.8626   19.8871 H   0  0  0  0  0  0
  -22.3562  -10.9594   19.6140 H   0  0  0  0  0  0
  -21.1947   -7.6088   23.9675 H   0  0  0  0  0  0
  -21.1495   -6.0449   25.9056 H   0  0  0  0  0  0
  -22.0612   -2.7566   23.2776 H   0  0  0  0  0  0
  -22.3897  -12.0103   22.4939 H   0  0  0  0  0  0
  -21.0930  -13.1355   22.2323 H   0  0  0  0  0  0
  -24.7117  -15.8550   20.5088 H   0  0  0  0  0  0
  -26.3336  -15.5750   20.1139 H   0  0  0  0  0  0
  -26.7144  -32.5440   23.1107 H   0  0  0  0  0  0
  -24.9945  -33.9731   25.0363 H   0  0  0  0  0  0
  -22.7160  -31.2908   21.3930 H   0  0  0  0  0  0
  -23.3732  -35.9616   23.3351 H   0  0  0  0  0  0
  -24.3538  -36.8879   22.2064 H   0  0  0  0  0  0
  -23.7194  -37.6502   23.6644 H   0  0  0  0  0  0
  -26.0865  -31.5627   20.6001 H   0  0  0  0  0  0
  -26.8382  -30.8410   21.9942 H   0  0  0  0  0  0
  -28.1206  -29.0307   21.1526 H   0  0  0  0  0  0
  -25.9997  -25.9641   18.9578 H   0  0  0  0  0  0
  -23.9785  -27.2978   19.0089 H   0  0  0  0  0  0
  -23.7288  -30.5609   19.3942 H   0  0  0  0  0  0
  -22.7587  -29.2020   19.8775 H   0  0  0  0  0  0
  -25.1248  -36.1966   25.0839 H   0  0  0  0  0  0
  -20.9934  -28.3176   24.1452 H   0  0  0  0  0  0
  -20.5683  -26.2229   23.3613 H   0  0  0  0  0  0
  -21.6611  -26.7394   22.1201 H   0  0  0  0  0  0
  -19.6882  -25.6293   21.1230 H   0  0  0  0  0  0
  -19.6671  -27.3216   20.6806 H   0  0  0  0  0  0
  -17.4175  -26.6708   21.4033 H   0  0  0  0  0  0
  -18.0275  -26.0042   22.9028 H   0  0  0  0  0  0
  -19.7958  -30.7275   24.2221 H   0  0  0  0  0  0
  -17.5040  -31.6268   24.5140 H   0  0  0  0  0  0
  -15.5366  -30.2969   23.7707 H   0  0  0  0  0  0
  -15.8678  -28.0812   22.7118 H   0  0  0  0  0  0
  -24.5897  -30.7066   25.7964 H   0  0  0  0  0  0
  -24.8944  -32.2951   26.4968 H   0  0  0  0  0  0
  -25.8154  -30.9034   27.0305 H   0  0  0  0  0  0
  -26.2802  -29.6881   24.1136 H   0  0  0  0  0  0
  -27.3915  -29.7205   25.4610 H   0  0  0  0  0  0
  -27.8691  -30.4354   23.9366 H   0  0  0  0  0  0
  -27.2488  -33.3692   26.2071 H   0  0  0  0  0  0
  -28.3815  -32.6996   25.0418 H   0  0  0  0  0  0
  -28.0582  -31.8590   26.5531 H   0  0  0  0  0  0
  -28.2585  -38.0080   24.7507 H   0  0  0  0  0  0
  -28.1020  -36.2607   24.6289 H   0  0  0  0  0  0
  -27.2269  -37.1447   25.8875 H   0  0  0  0  0  0
  -20.9429  -29.8716   21.6910 H   0  0  0  0  0  0
  -26.0163  -38.2849   24.1469 H   0  0  0  0  0  0
  -31.8372  -18.1482   17.1907 H   0  0  0  0  0  0
  -33.0275  -19.7822   15.8933 H   0  0  0  0  0  0
  -28.2371  -21.5701   20.9020 H   0  0  0  0  0  0
  -28.4356  -21.0865   19.1399 H   0  0  0  0  0  0
  -32.2184  -17.4069   20.0493 H   0  0  0  0  0  0
  -31.7967  -18.6510   21.1892 H   0  0  0  0  0  0
  -29.1074  -17.9382   18.0715 H   0  0  0  0  0  0
  -30.5410  -16.9358   18.0964 H   0  0  0  0  0  0
  -29.8498  -17.2969   22.0193 H   0  0  0  0  0  0
  -31.3298  -16.4036   22.1297 H   0  0  0  0  0  0
  -28.8161  -15.6314   18.8426 H   0  0  0  0  0  0
  -28.2378  -16.7518   20.0547 H   0  0  0  0  0  0
  -30.7047  -21.5103   21.2307 H   0  0  0  0  0  0
  -29.7625  -23.1199   18.7023 H   0  0  0  0  0  0
  -32.7970  -22.8647   20.3511 H   0  0  0  0  0  0
  -32.2664  -23.8290   18.9458 H   0  0  0  0  0  0
  -33.8768  -23.1073   19.0113 H   0  0  0  0  0  0
  -31.0512  -25.3794   19.9407 H   0  0  0  0  0  0
  -31.3610  -24.3183   21.3235 H   0  0  0  0  0  0
  -30.4470  -25.7885   21.5366 H   0  0  0  0  0  0
  -37.0514  -23.2463   13.7478 H   0  0  0  0  0  0
  -36.9661  -24.2414   15.1974 H   0  0  0  0  0  0
  -36.2930  -24.8409   13.6754 H   0  0  0  0  0  0
  -34.6838  -24.6599   16.2082 H   0  0  0  0  0  0
  -33.7862  -24.9399   14.7352 H   0  0  0  0  0  0
  -32.4185  -22.8798   15.1341 H   0  0  0  0  0  0
  -32.3790  -23.8733   16.5716 H   0  0  0  0  0  0
  -27.2896  -24.7478   20.1865 H   0  0  0  0  0  0
  -28.2976  -25.0244   18.7901 H   0  0  0  0  0  0
  -28.9112  -23.9018   21.5347 H   0  0  0  0  0  0
  -35.3137  -22.4952   15.1832 H   0  0  0  0  0  0
  -34.7142  -23.0110   13.7614 H   0  0  0  0  0  0
  1 25  1  0  0  0
  1 30  2  0  0  0
  1 92  1  0  0  0
  2  3  1  0  0  0
  2 25  1  0  0  0
  2 95  1  0  0  0
  2 96  1  0  0  0
  3  4  1  0  0  0
  3 97  1  0  0  0
  3 98  1  0  0  0
  4  5  1  0  0  0
  4 99  1  0  0  0
  4100  1  0  0  0
  5  6  1  0  0  0
  5 26  1  0  0  0
  5101  1  0  0  0
  6 25  1  0  0  0
  6102  1  0  0  0
  6103  1  0  0  0
  7  8  2  0  0  0
  7 26  1  0  0  0
  7 29  1  0  0  0
  8  9  1  0  0  0
  8 22  1  0  0  0
  9 10  1  0  0  0
  9 27  2  0  0  0
 10 11  2  0  0  0
 10 15  1  0  0  0
 11 12  1  0  0  0
 11104  1  0  0  0
 12 13  2  0  0  0
 12105  1  0  0  0
 13 14  1  0  0  0
 13 31  1  0  0  0
 14 15  2  0  0  0
 14106  1  0  0  0
 15107  1  0  0  0
 16 17  2  0  0  0
 16 21  1  0  0  0
 16 31  1  0  0  0
 17 18  1  0  0  0
 17108  1  0  0  0
 18 19  2  0  0  0
 18109  1  0  0  0
 19 20  1  0  0  0
 19 24  1  0  0  0
 20 21  2  0  0  0
 20110  1  0  0  0
 21 23  1  0  0  0
 22 28  1  0  0  0
 22 32  2  0  0  0
 26 27  1  0  0  0
 28111  1  0  0  0
 28112  1  0  0  0
 29113  1  0  0  0
 29114  1  0  0  0
 33 34  1  0  0  0
 33 66  1  0  0  0
 33 70  2  0  0  0
 34 36  1  0  0  0
 34 59  1  0  0  0
 34115  1  0  0  0
 35 44  2  0  0  0
 35 45  1  0  0  0
 35 68  1  0  0  0
 36 56  1  0  0  0
 36116  1  0  0  0
 37 39  1  0  0  0
 37 47  1  0  0  0
 37 66  1  0  0  0
 37117  1  0  0  0
 38 43  2  0  0  0
 38 46  1  0  0  0
 38 47  1  0  0  0
 39 64  1  0  0  0
 39 67  2  0  0  0
 40 52  1  0  0  0
 40 53  2  0  0  0
 40 58  1  0  0  0
 41118  1  0  0  0
 41119  1  0  0  0
 41120  1  0  0  0
 41 48  1  0  0  0
 42 43  1  0  0  0
 42 66  1  0  0  0
 42121  1  0  0  0
 42122  1  0  0  0
 43 44  1  0  0  0
 44123  1  0  0  0
 45 46  2  0  0  0
 45124  1  0  0  0
 46125  1  0  0  0
 47126  1  0  0  0
 47127  1  0  0  0
 48 56  1  0  0  0
 48 65  1  0  0  0
 48128  1  0  0  0
 49 50  1  0  0  0
 49 53  1  0  0  0
 49 64  1  0  0  0
 49129  1  0  0  0
 50 51  1  0  0  0
 50130  1  0  0  0
 50131  1  0  0  0
 51 52  1  0  0  0
 51132  1  0  0  0
 51133  1  0  0  0
 52134  1  0  0  0
 52135  1  0  0  0
 53 54  1  0  0  0
 54 55  2  0  0  0
 54136  1  0  0  0
 55 57  1  0  0  0
 55137  1  0  0  0
 56 69  2  0  0  0
 57 58  2  0  0  0
 57138  1  0  0  0
 58139  1  0  0  0
 59 60  1  0  0  0
 59 61  1  0  0  0
 59 62  1  0  0  0
 60140  1  0  0  0
 60141  1  0  0  0
 60142  1  0  0  0
 61143  1  0  0  0
 61144  1  0  0  0
 61145  1  0  0  0
 62146  1  0  0  0
 62147  1  0  0  0
 62148  1  0  0  0
 63 65  1  0  0  0
 63149  1  0  0  0
 63150  1  0  0  0
 63151  1  0  0  0
 64152  1  0  0  0
 65153  1  0  0  0
 68 89  1  0  0  0
 71 72  2  0  0  0
 71 75  1  0  0  0
 71154  1  0  0  0
 72 76  1  0  0  0
 72155  1  0  0  0
 73 74  1  0  0  0
 73 75  2  0  0  0
 73 82  1  0  0  0
 74 76  2  0  0  0
 74 84  1  0  0  0
 75 91  1  0  0  0
 76 94  1  0  0  0
 77 82  1  0  0  0
 77156  1  0  0  0
 77157  1  0  0  0
 77 83  1  0  0  0
 78 80  1  0  0  0
 78 91  1  0  0  0
 78158  1  0  0  0
 78159  1  0  0  0
 79 81  1  0  0  0
 79 91  1  0  0  0
 79160  1  0  0  0
 79161  1  0  0  0
 80 92  1  0  0  0
 80162  1  0  0  0
 80163  1  0  0  0
 81 92  1  0  0  0
 81164  1  0  0  0
 81165  1  0  0  0
 82 83  1  0  0  0
 82166  1  0  0  0
 83 90  1  0  0  0
 83167  1  0  0  0
 84168  1  0  0  0
 84169  1  0  0  0
 84170  1  0  0  0
 85171  1  0  0  0
 85172  1  0  0  0
 85173  1  0  0  0
 85 90  1  0  0  0
 86 93  1  0  0  0
 86174  1  0  0  0
 86175  1  0  0  0
 86176  1  0  0  0
 87 88  1  0  0  0
 87 93  1  0  0  0
 87177  1  0  0  0
 87178  1  0  0  0
 88 94  1  0  0  0
 88179  1  0  0  0
 88180  1  0  0  0
 89 90  1  0  0  0
 89181  1  0  0  0
 89182  1  0  0  0
 90183  1  0  0  0
 93184  1  0  0  0
 93185  1  0  0  0
M  CHG  1  93   1
M  ISO  4   1 100  68 101  89 101  92 100
M  END
> <chiral flag>
0

> <version>
0

> <s_m_source_file>
/data/baiqing/PycharmProjects/Reinvent-master-3.2/result/LINK_invent/BTK/process_docking_weight1_custom_sum_contain_oxygen_bond_distance_aromatic_linkinvent_7_9_3/rearranged_h_0158.sdf

> <i_m_source_file_index>
83

> <r_mmod_Potential_Energy-OPLS-2005>
172.827713012695

> <r_mmod_Stretch_Energy-OPLS-2005>
67.5070877075195

> <r_mmod_Bend_Energy-OPLS-2005>
141.432510375977

> <r_mmod_Torsional_Energy-OPLS-2005>
485.107543945312

> <r_mmod_Improper_Torsional_Energy-OPLS-2005>
11.9082279205322

> <r_mmod_Van_der_Waal_Energy-OPLS-2005>
159.617080688477

> <r_mmod_Electrostatic_Energy-OPLS-2005>
-290.314636230469

> <r_mmod_Solvation_Energy-OPLS-2005>
-445.036437988281

> <b_mmod_Minimization_Converged-OPLS-2005>
0

> <r_mmod_RMS_Derivative-OPLS-2005>
6.94565153121948

$$$$
83
                    3D
 Structure written by MMmdl.
177187  0  0  1  0            999 V2000
  -30.7971  -14.3930   20.7361 C   0  0  0  0  0  0
  -30.4143  -12.3214   19.4248 C   0  0  0  0  0  0
  -29.4927  -12.5352   18.2081 C   0  0  0  0  0  0
  -28.0165  -12.3730   18.6101 C   0  0  0  0  0  0
  -27.6604  -13.2079   19.8637 C   0  0  2  0  0  0
  -28.6873  -12.9782   20.9887 C   0  0  0  0  0  0
  -25.2585  -13.8166   20.5630 C   0  0  0  0  0  0
  -24.1847  -13.0446   20.9167 C   0  0  0  0  0  0
  -24.6397  -11.6912   20.8715 C   0  0  0  0  0  0
  -23.9059  -10.4299   21.0400 C   0  0  0  0  0  0
  -24.3614   -9.4216   21.9182 C   0  0  0  0  0  0
  -23.6294   -8.2251   22.0753 C   0  0  0  0  0  0
  -22.4278   -8.0284   21.3543 C   0  0  0  0  0  0
  -21.9908   -9.0255   20.4646 C   0  0  0  0  0  0
  -22.7231  -10.2137   20.3053 C   0  0  0  0  0  0
  -21.6852   -6.0738   22.5278 C   0  0  0  0  0  0
  -21.4017   -6.5641   23.8213 C   0  0  0  0  0  0
  -21.3661   -5.6792   24.9174 C   0  0  0  0  0  0
  -21.6044   -4.3054   24.7223 C   0  0  0  0  0  0
  -21.8819   -3.8148   23.4344 C   0  0  0  0  0  0
  -21.9194   -4.6966   22.3401 C   0  0  0  0  0  0
  -22.7873  -13.5247   21.1846 C   0  0  0  0  0  0
  -22.1661   -4.2152   21.0979 F   0  0  0  0  0  0
  -21.5629   -3.4541   25.7737 F   0  0  0  0  0  0
  -30.0430  -13.2762   20.4892 N   0  0  0  0  0  0
  -26.3005  -12.9336   20.3251 N   0  0  0  0  0  0
  -25.9312  -11.6496   20.5688 N   0  0  0  0  0  0
  -22.0515  -12.8237   22.0401 N   0  0  0  0  0  0
  -25.4312  -15.1879   20.4028 N   0  0  0  0  0  0
  -31.7381  -14.6913   19.9902 O   0  0  0  0  0  0
  -21.6641   -6.8883   21.4241 O   0  0  0  0  0  0
  -22.3555  -14.5554   20.6696 O   0  0  0  0  0  0
  -24.6148  -31.8683   23.2108 C   0  0  0  0  0  0
  -25.9040  -32.4824   23.8401 C   0  0  1  0  0  0
  -27.2269  -27.4179   20.1061 C   0  0  0  0  0  0
  -25.5896  -33.8624   24.2331 N   0  0  0  0  0  0
  -23.4031  -30.4926   21.5511 C   0  0  2  0  0  0
  -24.8488  -28.9559   20.1198 C   0  0  0  0  0  0
  -22.7406  -29.4664   22.4986 C   0  0  0  0  0  0
  -18.0275  -28.1372   22.8492 C   0  0  0  0  0  0
  -24.1488  -36.7318   23.2640 C   0  0  0  0  0  0
  -25.9342  -30.8260   21.3703 C   0  0  0  0  0  0
  -26.0089  -29.4571   20.7240 C   0  0  0  0  0  0
  -27.2011  -28.6943   20.7171 C   0  0  0  0  0  0
  -26.0582  -26.9522   19.4676 C   0  0  0  0  0  0
  -24.8683  -27.7012   19.4892 C   0  0  0  0  0  0
  -23.6133  -29.8260   20.1659 C   0  0  0  0  0  0
  -25.4109  -36.3115   24.0341 C   0  0  1  0  0  0
  -20.5864  -28.3661   23.1312 C   0  0  2  0  0  0
  -20.6766  -26.9395   22.5415 C   0  0  0  0  0  0
  -19.5746  -26.6380   21.5207 C   0  0  0  0  0  0
  -18.1922  -26.7921   22.1614 C   0  0  0  0  0  0
  -19.1524  -28.8832   23.2901 C   0  0  0  0  0  0
  -18.9454  -30.1436   23.8913 C   0  0  0  0  0  0
  -17.6457  -30.6579   24.0566 C   0  0  0  0  0  0
  -25.9033  -34.9479   23.5133 C   0  0  0  0  0  0
  -16.5348  -29.9084   23.6324 C   0  0  0  0  0  0
  -16.7266  -28.6497   23.0348 C   0  0  0  0  0  0
  -26.4468  -31.6604   25.0731 C   0  0  0  0  0  0
  -25.3733  -31.3706   26.1476 C   0  0  0  0  0  0
  -27.0309  -30.3049   24.6114 C   0  0  0  0  0  0
  -27.6043  -32.4328   25.7491 C   0  0  0  0  0  0
  -27.5585  -37.1815   24.8466 C   0  0  0  0  0  0
  -21.4135  -29.3035   22.3722 N   0  0  0  0  0  0
  -26.4298  -37.3797   23.9410 N   0  0  0  0  0  0
  -24.6688  -31.0776   22.1019 N   0  0  0  0  0  0
  -23.4176  -28.8203   23.3027 O   0  0  0  0  0  0
  -28.3970  -26.6875   20.0458 O   0  0  0  0  0  0
  -26.5598  -34.8928   22.4695 O   0  0  0  0  0  0
  -23.5336  -32.1440   23.7492 O   0  0  0  0  0  0
  -30.3531  -17.6819   21.2056 C   0  0  0  0  0  0
  -28.0851  -15.8672   23.2155 C   0  0  0  0  0  0
  -30.1067  -18.9313   21.6945 C   0  0  0  0  0  0
  -28.4474  -16.8800   24.0084 C   0  0  0  0  0  0
  -29.7044  -19.0558   24.0056 C   0  0  0  0  0  0
  -29.5538  -19.9700   20.8004 C   0  0  0  0  0  0
  -31.1002  -16.5444   21.9257 C   0  0  0  0  0  0
  -30.2269  -23.6081   21.3036 C   0  0  0  0  0  0
  -27.8701  -22.9072   20.8377 C   0  0  0  0  0  0
  -29.9550  -24.9882   20.6636 C   0  0  0  0  0  0
  -27.5811  -24.2856   20.1977 C   0  0  0  0  0  0
  -30.3342  -14.5596   23.1583 C   0  0  0  0  0  0
  -29.1046  -15.0398   23.9627 C   0  0  1  0  0  0
  -28.3152  -18.3898   23.9361 C   0  0  2  0  0  0
  -29.3475  -22.4975   20.6916 C   0  0  2  0  0  0
  -28.4763  -25.4275   20.7496 C   0  0  2  0  0  0
  -30.1850  -19.4336   25.3930 C   0  0  0  0  0  0
  -27.3137  -18.9115   24.9822 C   0  0  0  0  0  0
  -30.4720  -19.2762   23.0054 N   0  0  0  0  0  0
  -30.5014  -15.1786   21.8185 N   0  0  0  0  0  0
  -29.6288  -21.2052   21.3342 N   0  0  0  0  0  0
  -29.0990  -19.7749   19.6714 O   0  0  0  0  0  0
  -29.4639  -16.2230   24.7141 O   0  0  0  0  0  0
  -31.4596  -12.4126   19.1245 H   0  0  0  0  0  0
  -30.3127  -11.3020   19.8001 H   0  0  0  0  0  0
  -29.7437  -11.8271   17.4169 H   0  0  0  0  0  0
  -29.6554  -13.5307   17.7923 H   0  0  0  0  0  0
  -27.8358  -11.3148   18.8034 H   0  0  0  0  0  0
  -27.3664  -12.6457   17.7781 H   0  0  0  0  0  0
  -27.7120  -14.2584   19.5763 H   0  0  0  0  0  0
  -28.6502  -11.9439   21.3341 H   0  0  0  0  0  0
  -28.3864  -13.5793   21.8369 H   0  0  0  0  0  0
  -25.2762   -9.5697   22.4751 H   0  0  0  0  0  0
  -24.0006   -7.4645   22.7474 H   0  0  0  0  0  0
  -21.0839   -8.8770   19.8956 H   0  0  0  0  0  0
  -22.3688  -10.9673   19.6161 H   0  0  0  0  0  0
  -21.2010   -7.6149   23.9716 H   0  0  0  0  0  0
  -21.1483   -6.0523   25.9076 H   0  0  0  0  0  0
  -22.0598   -2.7611   23.2842 H   0  0  0  0  0  0
  -22.4126  -11.9896   22.4784 H   0  0  0  0  0  0
  -21.1136  -13.1269   22.2610 H   0  0  0  0  0  0
  -24.6611  -15.8404   20.5006 H   0  0  0  0  0  0
  -26.2700  -15.6194   20.0364 H   0  0  0  0  0  0
  -26.7111  -32.5537   23.1166 H   0  0  0  0  0  0
  -25.0061  -33.9791   25.0485 H   0  0  0  0  0  0
  -22.6924  -31.3098   21.4110 H   0  0  0  0  0  0
  -23.3749  -35.9653   23.3310 H   0  0  0  0  0  0
  -24.3582  -36.8924   22.2053 H   0  0  0  0  0  0
  -23.7240  -37.6526   23.6648 H   0  0  0  0  0  0
  -26.0501  -31.5880   20.5981 H   0  0  0  0  0  0
  -26.8214  -30.8802   21.9894 H   0  0  0  0  0  0
  -28.0993  -29.0812   21.1779 H   0  0  0  0  0  0
  -26.0629  -26.0228   18.9195 H   0  0  0  0  0  0
  -23.9842  -27.3186   18.9977 H   0  0  0  0  0  0
  -23.7253  -30.6007   19.4064 H   0  0  0  0  0  0
  -22.7369  -29.2477   19.8677 H   0  0  0  0  0  0
  -25.1285  -36.1989   25.0836 H   0  0  0  0  0  0
  -20.9958  -28.3225   24.1431 H   0  0  0  0  0  0
  -20.5659  -26.2269   23.3602 H   0  0  0  0  0  0
  -21.6638  -26.7429   22.1217 H   0  0  0  0  0  0
  -19.6911  -25.6293   21.1231 H   0  0  0  0  0  0
  -19.6692  -27.3197   20.6743 H   0  0  0  0  0  0
  -17.4196  -26.6678   21.4009 H   0  0  0  0  0  0
  -18.0315  -26.0050   22.8996 H   0  0  0  0  0  0
  -19.7930  -30.7248   24.2287 H   0  0  0  0  0  0
  -17.5015  -31.6262   24.5162 H   0  0  0  0  0  0
  -15.5351  -30.2995   23.7636 H   0  0  0  0  0  0
  -15.8664  -28.0827   22.7051 H   0  0  0  0  0  0
  -24.5921  -30.7033   25.7817 H   0  0  0  0  0  0
  -24.8903  -32.2856   26.4916 H   0  0  0  0  0  0
  -25.8088  -30.8891   27.0239 H   0  0  0  0  0  0
  -26.2860  -29.6805   24.1166 H   0  0  0  0  0  0
  -27.4078  -29.7291   25.4579 H   0  0  0  0  0  0
  -27.8693  -30.4374   23.9271 H   0  0  0  0  0  0
  -27.2663  -33.3622   26.2089 H   0  0  0  0  0  0
  -28.3838  -32.6898   25.0307 H   0  0  0  0  0  0
  -28.0725  -31.8439   26.5389 H   0  0  0  0  0  0
  -28.2607  -38.0109   24.7513 H   0  0  0  0  0  0
  -28.1076  -36.2641   24.6289 H   0  0  0  0  0  0
  -27.2305  -37.1469   25.8870 H   0  0  0  0  0  0
  -20.9287  -29.8775   21.6964 H   0  0  0  0  0  0
  -26.0191  -38.2879   24.1401 H   0  0  0  0  0  0
  -30.1021  -17.4701   20.1746 H   0  0  0  0  0  0
  -27.4496  -15.7316   22.3458 H   0  0  0  0  0  0
  -31.2384  -16.8167   22.9705 H   0  0  0  0  0  0
  -32.1197  -16.5413   21.5371 H   0  0  0  0  0  0
  -30.0496  -23.6727   22.3782 H   0  0  0  0  0  0
  -31.2812  -23.3566   21.1812 H   0  0  0  0  0  0
  -27.2275  -22.1540   20.3798 H   0  0  0  0  0  0
  -27.5994  -22.9388   21.8943 H   0  0  0  0  0  0
  -30.2589  -24.9565   19.6163 H   0  0  0  0  0  0
  -30.5870  -25.7397   21.1383 H   0  0  0  0  0  0
  -26.5321  -24.5068   20.3854 H   0  0  0  0  0  0
  -27.7070  -24.2135   19.1170 H   0  0  0  0  0  0
  -30.2930  -13.4724   23.0806 H   0  0  0  0  0  0
  -31.2421  -14.7130   23.7438 H   0  0  0  0  0  0
  -28.7134  -14.2805   24.6430 H   0  0  0  0  0  0
  -27.8700  -18.6157   22.9673 H   0  0  0  0  0  0
  -29.5874  -22.4141   19.6291 H   0  0  0  0  0  0
  -28.2234  -25.6010   21.7970 H   0  0  0  0  0  0
  -29.9995  -18.6219   26.0965 H   0  0  0  0  0  0
  -29.6720  -20.3291   25.7433 H   0  0  0  0  0  0
  -31.2569  -19.6338   25.3915 H   0  0  0  0  0  0
  -27.6060  -18.6490   25.9994 H   0  0  0  0  0  0
  -26.3243  -18.4855   24.8130 H   0  0  0  0  0  0
  -27.2133  -19.9962   24.9280 H   0  0  0  0  0  0
  -30.0341  -21.2126   22.2627 H   0  0  0  0  0  0
  1 25  1  0  0  0
  1 30  2  0  0  0
  1 90  1  0  0  0
  2  3  1  0  0  0
  2 25  1  0  0  0
  2 94  1  0  0  0
  2 95  1  0  0  0
  3  4  1  0  0  0
  3 96  1  0  0  0
  3 97  1  0  0  0
  4  5  1  0  0  0
  4 98  1  0  0  0
  4 99  1  0  0  0
  5  6  1  0  0  0
  5 26  1  0  0  0
  5100  1  0  0  0
  6 25  1  0  0  0
  6101  1  0  0  0
  6102  1  0  0  0
  7  8  2  0  0  0
  7 26  1  0  0  0
  7 29  1  0  0  0
  8  9  1  0  0  0
  8 22  1  0  0  0
  9 10  1  0  0  0
  9 27  2  0  0  0
 10 11  2  0  0  0
 10 15  1  0  0  0
 11 12  1  0  0  0
 11103  1  0  0  0
 12 13  2  0  0  0
 12104  1  0  0  0
 13 14  1  0  0  0
 13 31  1  0  0  0
 14 15  2  0  0  0
 14105  1  0  0  0
 15106  1  0  0  0
 16 17  2  0  0  0
 16 21  1  0  0  0
 16 31  1  0  0  0
 17 18  1  0  0  0
 17107  1  0  0  0
 18 19  2  0  0  0
 18108  1  0  0  0
 19 20  1  0  0  0
 19 24  1  0  0  0
 20 21  2  0  0  0
 20109  1  0  0  0
 21 23  1  0  0  0
 22 28  1  0  0  0
 22 32  2  0  0  0
 26 27  1  0  0  0
 28110  1  0  0  0
 28111  1  0  0  0
 29112  1  0  0  0
 29113  1  0  0  0
 33 34  1  0  0  0
 33 66  1  0  0  0
 33 70  2  0  0  0
 34 36  1  0  0  0
 34 59  1  0  0  0
 34114  1  0  0  0
 35 44  2  0  0  0
 35 45  1  0  0  0
 35 68  1  0  0  0
 36 56  1  0  0  0
 36115  1  0  0  0
 37 39  1  0  0  0
 37 47  1  0  0  0
 37 66  1  0  0  0
 37116  1  0  0  0
 38 43  2  0  0  0
 38 46  1  0  0  0
 38 47  1  0  0  0
 39 64  1  0  0  0
 39 67  2  0  0  0
 40 52  1  0  0  0
 40 53  2  0  0  0
 40 58  1  0  0  0
 41117  1  0  0  0
 41118  1  0  0  0
 41119  1  0  0  0
 41 48  1  0  0  0
 42 43  1  0  0  0
 42 66  1  0  0  0
 42120  1  0  0  0
 42121  1  0  0  0
 43 44  1  0  0  0
 44122  1  0  0  0
 45 46  2  0  0  0
 45123  1  0  0  0
 46124  1  0  0  0
 47125  1  0  0  0
 47126  1  0  0  0
 48 56  1  0  0  0
 48 65  1  0  0  0
 48127  1  0  0  0
 49 50  1  0  0  0
 49 53  1  0  0  0
 49 64  1  0  0  0
 49128  1  0  0  0
 50 51  1  0  0  0
 50129  1  0  0  0
 50130  1  0  0  0
 51 52  1  0  0  0
 51131  1  0  0  0
 51132  1  0  0  0
 52133  1  0  0  0
 52134  1  0  0  0
 53 54  1  0  0  0
 54 55  2  0  0  0
 54135  1  0  0  0
 55 57  1  0  0  0
 55136  1  0  0  0
 56 69  2  0  0  0
 57 58  2  0  0  0
 57137  1  0  0  0
 58138  1  0  0  0
 59 60  1  0  0  0
 59 61  1  0  0  0
 59 62  1  0  0  0
 60139  1  0  0  0
 60140  1  0  0  0
 60141  1  0  0  0
 61142  1  0  0  0
 61143  1  0  0  0
 61144  1  0  0  0
 62145  1  0  0  0
 62146  1  0  0  0
 62147  1  0  0  0
 63 65  1  0  0  0
 63148  1  0  0  0
 63149  1  0  0  0
 63150  1  0  0  0
 64151  1  0  0  0
 65152  1  0  0  0
 68 86  1  0  0  0
 71 73  2  0  0  0
 71 77  1  0  0  0
 71153  1  0  0  0
 72 74  2  0  0  0
 72 83  1  0  0  0
 72154  1  0  0  0
 73 76  1  0  0  0
 73 89  1  0  0  0
 74 84  1  0  0  0
 74 93  1  0  0  0
 75 84  1  0  0  0
 75 87  1  0  0  0
 75 89  2  0  0  0
 76 91  1  0  0  0
 76 92  2  0  0  0
 77 90  1  0  0  0
 77155  1  0  0  0
 77156  1  0  0  0
 78 80  1  0  0  0
 78 85  1  0  0  0
 78157  1  0  0  0
 78158  1  0  0  0
 79 81  1  0  0  0
 79 85  1  0  0  0
 79159  1  0  0  0
 79160  1  0  0  0
 80 86  1  0  0  0
 80161  1  0  0  0
 80162  1  0  0  0
 81 86  1  0  0  0
 81163  1  0  0  0
 81164  1  0  0  0
 82 90  1  0  0  0
 82165  1  0  0  0
 82166  1  0  0  0
 82 83  1  0  0  0
 83 93  1  0  0  0
 83167  1  0  0  0
 84 88  1  0  0  0
 84168  1  0  0  0
 85 91  1  0  0  0
 85169  1  0  0  0
 86170  1  0  0  0
 87171  1  0  0  0
 87172  1  0  0  0
 87173  1  0  0  0
 88174  1  0  0  0
 88175  1  0  0  0
 88176  1  0  0  0
 91177  1  0  0  0
M  ISO  4   1 100  68 101  86 101  90 100
M  END
> <chiral flag>
0

> <version>
0

> <s_m_source_file>
/data/baiqing/PycharmProjects/Reinvent-master-3.2/result/LINK_invent/BTK/process_docking_weight1_custom_sum_contain_oxygen_bond_distance_aromatic_linkinvent_7_9_3/rearranged_h_0158.sdf

> <i_m_source_file_index>
84

> <r_mmod_Potential_Energy-OPLS-2005>
73.3296356201172

> <r_mmod_Stretch_Energy-OPLS-2005>
52.3508338928223

> <r_mmod_Bend_Energy-OPLS-2005>
165.166809082031

> <r_mmod_Torsional_Energy-OPLS-2005>
318.353790283203

> <r_mmod_Improper_Torsional_Energy-OPLS-2005>
6.74259281158447

> <r_mmod_Van_der_Waal_Energy-OPLS-2005>
157.536010742188

> <r_mmod_Electrostatic_Energy-OPLS-2005>
-428.969024658203

> <r_mmod_Solvation_Energy-OPLS-2005>
-208.925994873047

> <b_mmod_Minimization_Converged-OPLS-2005>
0

> <r_mmod_RMS_Derivative-OPLS-2005>
0.629708766937256

$$$$
84
                    3D
 Structure written by MMmdl.
177186  0  0  1  0            999 V2000
  -30.6501  -14.6030   20.4726 C   0  0  0  0  0  0
  -30.4203  -12.3566   19.4669 C   0  0  0  0  0  0
  -29.5096  -12.4938   18.2279 C   0  0  0  0  0  0
  -28.0298  -12.3416   18.6331 C   0  0  0  0  0  0
  -27.6479  -13.2222   19.8545 C   0  0  2  0  0  0
  -28.6877  -13.0987   20.9909 C   0  0  0  0  0  0
  -25.2541  -13.8176   20.5680 C   0  0  0  0  0  0
  -24.1822  -13.0432   20.9194 C   0  0  0  0  0  0
  -24.6396  -11.6899   20.8729 C   0  0  0  0  0  0
  -23.9070  -10.4279   21.0389 C   0  0  0  0  0  0
  -24.3603   -9.4197   21.9177 C   0  0  0  0  0  0
  -23.6275   -8.2237   22.0767 C   0  0  0  0  0  0
  -22.4265   -8.0278   21.3549 C   0  0  0  0  0  0
  -21.9897   -9.0242   20.4647 C   0  0  0  0  0  0
  -22.7237  -10.2119   20.3042 C   0  0  0  0  0  0
  -21.6852   -6.0727   22.5269 C   0  0  0  0  0  0
  -21.4014   -6.5629   23.8205 C   0  0  0  0  0  0
  -21.3659   -5.6790   24.9170 C   0  0  0  0  0  0
  -21.6042   -4.3049   24.7220 C   0  0  0  0  0  0
  -21.8819   -3.8141   23.4340 C   0  0  0  0  0  0
  -21.9190   -4.6953   22.3400 C   0  0  0  0  0  0
  -22.7843  -13.5230   21.1838 C   0  0  0  0  0  0
  -22.1663   -4.2139   21.0980 F   0  0  0  0  0  0
  -21.5623   -3.4535   25.7730 F   0  0  0  0  0  0
  -30.0077  -13.3997   20.4249 N   0  0  0  0  0  0
  -26.2959  -12.9365   20.3261 N   0  0  0  0  0  0
  -25.9317  -11.6506   20.5710 N   0  0  0  0  0  0
  -22.0477  -12.8231   22.0390 N   0  0  0  0  0  0
  -25.4249  -15.1904   20.4101 N   0  0  0  0  0  0
  -31.8305  -14.7122   20.1320 O   0  0  0  0  0  0
  -21.6636   -6.8867   21.4241 O   0  0  0  0  0  0
  -22.3535  -14.5531   20.6687 O   0  0  0  0  0  0
  -24.6204  -31.8621   23.2054 C   0  0  0  0  0  0
  -25.9058  -32.4801   23.8361 C   0  0  1  0  0  0
  -27.2159  -27.3361   20.1344 C   0  0  0  0  0  0
  -25.5898  -33.8596   24.2296 N   0  0  0  0  0  0
  -23.4125  -30.4892   21.5435 C   0  0  2  0  0  0
  -24.8568  -28.9416   20.1141 C   0  0  0  0  0  0
  -22.7455  -29.4641   22.4911 C   0  0  0  0  0  0
  -18.0282  -28.1386   22.8494 C   0  0  0  0  0  0
  -24.1467  -36.7264   23.2654 C   0  0  0  0  0  0
  -25.9513  -30.8020   21.3680 C   0  0  0  0  0  0
  -26.0234  -29.4255   20.7221 C   0  0  0  0  0  0
  -27.2061  -28.6344   20.7227 C   0  0  0  0  0  0
  -26.0360  -26.9031   19.4942 C   0  0  0  0  0  0
  -24.8618  -27.6813   19.4937 C   0  0  0  0  0  0
  -23.6260  -29.8233   20.1578 C   0  0  0  0  0  0
  -25.4094  -36.3083   24.0348 C   0  0  1  0  0  0
  -20.5888  -28.3656   23.1269 C   0  0  2  0  0  0
  -20.6774  -26.9373   22.5400 C   0  0  0  0  0  0
  -19.5757  -26.6370   21.5213 C   0  0  0  0  0  0
  -18.1922  -26.7943   22.1602 C   0  0  0  0  0  0
  -19.1536  -28.8842   23.2893 C   0  0  0  0  0  0
  -18.9483  -30.1459   23.8892 C   0  0  0  0  0  0
  -17.6487  -30.6599   24.0573 C   0  0  0  0  0  0
  -25.9031  -34.9468   23.5115 C   0  0  0  0  0  0
  -16.5376  -29.9102   23.6342 C   0  0  0  0  0  0
  -16.7270  -28.6518   23.0362 C   0  0  0  0  0  0
  -26.4445  -31.6624   25.0733 C   0  0  0  0  0  0
  -25.3716  -31.3747   26.1496 C   0  0  0  0  0  0
  -27.0271  -30.3067   24.6120 C   0  0  0  0  0  0
  -27.6023  -32.4328   25.7488 C   0  0  0  0  0  0
  -27.5553  -37.1793   24.8487 C   0  0  0  0  0  0
  -21.4172  -29.3030   22.3667 N   0  0  0  0  0  0
  -26.4258  -37.3786   23.9441 N   0  0  0  0  0  0
  -24.6814  -31.0671   22.0968 N   0  0  0  0  0  0
  -23.4211  -28.8155   23.2951 O   0  0  0  0  0  0
  -28.3575  -26.5313   20.1096 O   0  0  0  0  0  0
  -26.5606  -34.8924   22.4681 O   0  0  0  0  0  0
  -23.5367  -32.1346   23.7405 O   0  0  0  0  0  0
  -29.7255  -18.2367   22.4912 C   0  0  0  0  0  0
  -29.2431  -19.2706   23.3329 C   0  0  0  0  0  0
  -29.7168  -18.3730   21.0684 C   0  0  0  0  0  0
  -29.0102  -20.5729   22.8281 C   0  0  0  0  0  0
  -29.3582  -19.6995   20.5570 C   0  0  0  0  0  0
  -29.0971  -20.8282   21.4274 C   0  0  0  0  0  0
  -27.3591  -24.1430   20.3794 C   0  0  0  0  0  0
  -29.7633  -24.5377   20.4621 C   0  0  0  0  0  0
  -27.5454  -22.7240   21.0147 C   0  0  0  0  0  0
  -30.0100  -23.1212   21.0941 C   0  0  0  0  0  0
  -28.4046  -25.2227   20.8056 C   0  0  0  0  0  0
  -30.3234  -17.0037   23.1723 C   0  0  0  0  0  0
  -28.9849  -18.9867   24.8184 C   0  0  0  0  0  0
  -28.6770  -21.6628   23.8513 C   0  0  0  0  0  0
  -29.2304  -19.9775   19.0583 C   0  0  0  0  0  0
  -28.3091  -25.5652   22.3069 C   0  0  0  0  0  0
  -29.9444  -17.1196   18.6807 C   0  0  0  0  0  0
  -30.2167  -17.1162   20.2006 C   0  0  2  0  0  0
  -28.9038  -22.1599   20.9055 N   0  0  0  0  0  0
  -29.8714  -15.7159   20.6400 N   0  0  0  0  0  0
  -31.4712  -12.4425   19.1834 H   0  0  0  0  0  0
  -30.3114  -11.3680   19.9146 H   0  0  0  0  0  0
  -29.7730  -11.7451   17.4782 H   0  0  0  0  0  0
  -29.6686  -13.4665   17.7582 H   0  0  0  0  0  0
  -27.8676  -11.2910   18.8775 H   0  0  0  0  0  0
  -27.3794  -12.5597   17.7850 H   0  0  0  0  0  0
  -27.6575  -14.2536   19.4995 H   0  0  0  0  0  0
  -28.6791  -12.0915   21.4098 H   0  0  0  0  0  0
  -28.4484  -13.7740   21.8143 H   0  0  0  0  0  0
  -25.2737   -9.5679   22.4758 H   0  0  0  0  0  0
  -23.9967   -7.4643   22.7496 H   0  0  0  0  0  0
  -21.0833   -8.8764   19.8946 H   0  0  0  0  0  0
  -22.3699  -10.9654   19.6141 H   0  0  0  0  0  0
  -21.2014   -7.6139   23.9707 H   0  0  0  0  0  0
  -21.1479   -6.0520   25.9076 H   0  0  0  0  0  0
  -22.0596   -2.7601   23.2849 H   0  0  0  0  0  0
  -22.4067  -11.9889   22.4805 H   0  0  0  0  0  0
  -21.1084  -13.1266   22.2516 H   0  0  0  0  0  0
  -24.6576  -15.8440   20.5178 H   0  0  0  0  0  0
  -26.2692  -15.6303   20.0693 H   0  0  0  0  0  0
  -26.7142  -32.5451   23.1128 H   0  0  0  0  0  0
  -25.0142  -33.9765   25.0501 H   0  0  0  0  0  0
  -22.7050  -31.3092   21.4029 H   0  0  0  0  0  0
  -23.3747  -35.9583   23.3344 H   0  0  0  0  0  0
  -24.3570  -36.8824   22.2064 H   0  0  0  0  0  0
  -23.7180  -37.6461   23.6636 H   0  0  0  0  0  0
  -26.0718  -31.5597   20.5913 H   0  0  0  0  0  0
  -26.8401  -30.8585   21.9853 H   0  0  0  0  0  0
  -28.1050  -29.0062   21.1918 H   0  0  0  0  0  0
  -26.0141  -25.9532   18.9798 H   0  0  0  0  0  0
  -23.9704  -27.3069   19.0104 H   0  0  0  0  0  0
  -23.7413  -30.6022   19.4035 H   0  0  0  0  0  0
  -22.7455  -29.2541   19.8543 H   0  0  0  0  0  0
  -25.1257  -36.1936   25.0830 H   0  0  0  0  0  0
  -21.0003  -28.3238   24.1382 H   0  0  0  0  0  0
  -20.5655  -26.2270   23.3601 H   0  0  0  0  0  0
  -21.6638  -26.7396   22.1195 H   0  0  0  0  0  0
  -19.6908  -25.6287   21.1224 H   0  0  0  0  0  0
  -19.6718  -27.3215   20.6782 H   0  0  0  0  0  0
  -17.4199  -26.6734   21.3989 H   0  0  0  0  0  0
  -18.0276  -26.0084   22.8978 H   0  0  0  0  0  0
  -19.7972  -30.7277   24.2229 H   0  0  0  0  0  0
  -17.5057  -31.6277   24.5176 H   0  0  0  0  0  0
  -15.5374  -30.3015   23.7694 H   0  0  0  0  0  0
  -15.8670  -28.0860   22.7065 H   0  0  0  0  0  0
  -24.6027  -30.6873   25.7950 H   0  0  0  0  0  0
  -24.8726  -32.2874   26.4750 H   0  0  0  0  0  0
  -25.8100  -30.9184   27.0387 H   0  0  0  0  0  0
  -26.2823  -29.6876   24.1104 H   0  0  0  0  0  0
  -27.3998  -29.7233   25.4560 H   0  0  0  0  0  0
  -27.8671  -30.4412   23.9298 H   0  0  0  0  0  0
  -27.2694  -33.3696   26.1951 H   0  0  0  0  0  0
  -28.3887  -32.6757   25.0337 H   0  0  0  0  0  0
  -28.0625  -31.8515   26.5484 H   0  0  0  0  0  0
  -28.2598  -38.0071   24.7498 H   0  0  0  0  0  0
  -28.0999  -36.2592   24.6322 H   0  0  0  0  0  0
  -27.2279  -37.1457   25.8898 H   0  0  0  0  0  0
  -20.9305  -29.8760   21.6907 H   0  0  0  0  0  0
  -26.0136  -38.2838   24.1489 H   0  0  0  0  0  0
  -26.3518  -24.4736   20.6297 H   0  0  0  0  0  0
  -27.3841  -24.0409   19.2947 H   0  0  0  0  0  0
  -29.8336  -24.4344   19.3790 H   0  0  0  0  0  0
  -30.5862  -25.1982   20.7398 H   0  0  0  0  0  0
  -26.8678  -22.0323   20.5133 H   0  0  0  0  0  0
  -27.2153  -22.7546   22.0492 H   0  0  0  0  0  0
  -30.2657  -23.2367   22.1453 H   0  0  0  0  0  0
  -30.9044  -22.6899   20.6377 H   0  0  0  0  0  0
  -30.7195  -17.2244   24.1626 H   0  0  0  0  0  0
  -31.1872  -16.6295   22.6262 H   0  0  0  0  0  0
  -29.5849  -16.2078   23.2728 H   0  0  0  0  0  0
  -28.7772  -17.9350   25.0099 H   0  0  0  0  0  0
  -28.1014  -19.5078   25.1857 H   0  0  0  0  0  0
  -29.8375  -19.2853   25.4270 H   0  0  0  0  0  0
  -27.6313  -21.5951   24.1533 H   0  0  0  0  0  0
  -28.8547  -22.6690   23.5065 H   0  0  0  0  0  0
  -29.2959  -21.5644   24.7426 H   0  0  0  0  0  0
  -28.5413  -19.2760   18.5966 H   0  0  0  0  0  0
  -30.2018  -19.9591   18.5674 H   0  0  0  0  0  0
  -28.7933  -20.9429   18.8146 H   0  0  0  0  0  0
  -28.4794  -24.7016   22.9435 H   0  0  0  0  0  0
  -27.3253  -25.9571   22.5670 H   0  0  0  0  0  0
  -29.0467  -26.3190   22.5855 H   0  0  0  0  0  0
  -30.4627  -17.9184   18.1593 H   0  0  0  0  0  0
  -28.8770  -17.1573   18.4639 H   0  0  0  0  0  0
  -30.3166  -16.2141   18.2007 H   0  0  0  0  0  0
  -31.3021  -17.1981   20.2925 H   0  0  0  0  0  0
  -28.9111  -15.5553   20.8999 H   0  0  0  0  0  0
  1 25  1  0  0  0
  1 30  2  0  0  0
  1 90  1  0  0  0
  2  3  1  0  0  0
  2 25  1  0  0  0
  2 91  1  0  0  0
  2 92  1  0  0  0
  3  4  1  0  0  0
  3 93  1  0  0  0
  3 94  1  0  0  0
  4  5  1  0  0  0
  4 95  1  0  0  0
  4 96  1  0  0  0
  5  6  1  0  0  0
  5 26  1  0  0  0
  5 97  1  0  0  0
  6 25  1  0  0  0
  6 98  1  0  0  0
  6 99  1  0  0  0
  7  8  2  0  0  0
  7 26  1  0  0  0
  7 29  1  0  0  0
  8  9  1  0  0  0
  8 22  1  0  0  0
  9 10  1  0  0  0
  9 27  2  0  0  0
 10 11  2  0  0  0
 10 15  1  0  0  0
 11 12  1  0  0  0
 11100  1  0  0  0
 12 13  2  0  0  0
 12101  1  0  0  0
 13 14  1  0  0  0
 13 31  1  0  0  0
 14 15  2  0  0  0
 14102  1  0  0  0
 15103  1  0  0  0
 16 17  2  0  0  0
 16 21  1  0  0  0
 16 31  1  0  0  0
 17 18  1  0  0  0
 17104  1  0  0  0
 18 19  2  0  0  0
 18105  1  0  0  0
 19 20  1  0  0  0
 19 24  1  0  0  0
 20 21  2  0  0  0
 20106  1  0  0  0
 21 23  1  0  0  0
 22 28  1  0  0  0
 22 32  2  0  0  0
 26 27  1  0  0  0
 28107  1  0  0  0
 28108  1  0  0  0
 29109  1  0  0  0
 29110  1  0  0  0
 33 34  1  0  0  0
 33 66  1  0  0  0
 33 70  2  0  0  0
 34 36  1  0  0  0
 34 59  1  0  0  0
 34111  1  0  0  0
 35 44  2  0  0  0
 35 45  1  0  0  0
 35 68  1  0  0  0
 36 56  1  0  0  0
 36112  1  0  0  0
 37 39  1  0  0  0
 37 47  1  0  0  0
 37 66  1  0  0  0
 37113  1  0  0  0
 38 43  2  0  0  0
 38 46  1  0  0  0
 38 47  1  0  0  0
 39 64  1  0  0  0
 39 67  2  0  0  0
 40 52  1  0  0  0
 40 53  2  0  0  0
 40 58  1  0  0  0
 41114  1  0  0  0
 41115  1  0  0  0
 41116  1  0  0  0
 41 48  1  0  0  0
 42 43  1  0  0  0
 42 66  1  0  0  0
 42117  1  0  0  0
 42118  1  0  0  0
 43 44  1  0  0  0
 44119  1  0  0  0
 45 46  2  0  0  0
 45120  1  0  0  0
 46121  1  0  0  0
 47122  1  0  0  0
 47123  1  0  0  0
 48 56  1  0  0  0
 48 65  1  0  0  0
 48124  1  0  0  0
 49 50  1  0  0  0
 49 53  1  0  0  0
 49 64  1  0  0  0
 49125  1  0  0  0
 50 51  1  0  0  0
 50126  1  0  0  0
 50127  1  0  0  0
 51 52  1  0  0  0
 51128  1  0  0  0
 51129  1  0  0  0
 52130  1  0  0  0
 52131  1  0  0  0
 53 54  1  0  0  0
 54 55  2  0  0  0
 54132  1  0  0  0
 55 57  1  0  0  0
 55133  1  0  0  0
 56 69  2  0  0  0
 57 58  2  0  0  0
 57134  1  0  0  0
 58135  1  0  0  0
 59 60  1  0  0  0
 59 61  1  0  0  0
 59 62  1  0  0  0
 60136  1  0  0  0
 60137  1  0  0  0
 60138  1  0  0  0
 61139  1  0  0  0
 61140  1  0  0  0
 61141  1  0  0  0
 62142  1  0  0  0
 62143  1  0  0  0
 62144  1  0  0  0
 63 65  1  0  0  0
 63145  1  0  0  0
 63146  1  0  0  0
 63147  1  0  0  0
 64148  1  0  0  0
 65149  1  0  0  0
 68 81  1  0  0  0
 71 72  2  0  0  0
 71 73  1  0  0  0
 71 82  1  0  0  0
 72 74  1  0  0  0
 72 83  1  0  0  0
 73 75  2  0  0  0
 73 88  1  0  0  0
 74 76  2  0  0  0
 74 84  1  0  0  0
 75 76  1  0  0  0
 75 85  1  0  0  0
 76 89  1  0  0  0
 77 79  1  0  0  0
 77 81  1  0  0  0
 77150  1  0  0  0
 77151  1  0  0  0
 78 80  1  0  0  0
 78 81  1  0  0  0
 78152  1  0  0  0
 78153  1  0  0  0
 79 89  1  0  0  0
 79154  1  0  0  0
 79155  1  0  0  0
 80 89  1  0  0  0
 80156  1  0  0  0
 80157  1  0  0  0
 81 86  1  0  0  0
 82158  1  0  0  0
 82159  1  0  0  0
 82160  1  0  0  0
 83161  1  0  0  0
 83162  1  0  0  0
 83163  1  0  0  0
 84164  1  0  0  0
 84165  1  0  0  0
 84166  1  0  0  0
 85167  1  0  0  0
 85168  1  0  0  0
 85169  1  0  0  0
 86170  1  0  0  0
 86171  1  0  0  0
 86172  1  0  0  0
 87173  1  0  0  0
 87174  1  0  0  0
 87175  1  0  0  0
 87 88  1  0  0  0
 88 90  1  0  0  0
 88176  1  0  0  0
 90177  1  0  0  0
M  ISO  4   1 100  68 101  81 101  90 100
M  END
> <chiral flag>
0

> <version>
0

> <s_m_source_file>
/data/baiqing/PycharmProjects/Reinvent-master-3.2/result/LINK_invent/BTK/process_docking_weight1_custom_sum_contain_oxygen_bond_distance_aromatic_linkinvent_7_9_3/rearranged_h_0158.sdf

> <i_m_source_file_index>
85

> <r_mmod_Potential_Energy-OPLS-2005>
102.181518554688

> <r_mmod_Stretch_Energy-OPLS-2005>
95.2382965087891

> <r_mmod_Bend_Energy-OPLS-2005>
159.572860717773

> <r_mmod_Torsional_Energy-OPLS-2005>
295.315246582031

> <r_mmod_Improper_Torsional_Energy-OPLS-2005>
10.6677598953247

> <r_mmod_Van_der_Waal_Energy-OPLS-2005>
193.120727539062

> <r_mmod_Electrostatic_Energy-OPLS-2005>
-493.095184326172

> <r_mmod_Solvation_Energy-OPLS-2005>
-197.789978027344

> <b_mmod_Minimization_Converged-OPLS-2005>
0

> <r_mmod_RMS_Derivative-OPLS-2005>
3.63000774383545

$$$$
85
                    3D
 Structure written by MMmdl.
168178  0  0  1  0            999 V2000
  -30.7212  -14.4789   20.5728 C   0  0  0  0  0  0
  -30.4188  -12.3162   19.4174 C   0  0  0  0  0  0
  -29.4864  -12.5018   18.2010 C   0  0  0  0  0  0
  -28.0075  -12.3638   18.6152 C   0  0  0  0  0  0
  -27.6584  -13.2022   19.8742 C   0  0  2  0  0  0
  -28.7040  -12.9536   20.9813 C   0  0  0  0  0  0
  -25.2589  -13.8159   20.5661 C   0  0  0  0  0  0
  -24.1833  -13.0447   20.9164 C   0  0  0  0  0  0
  -24.6375  -11.6910   20.8733 C   0  0  0  0  0  0
  -23.9042  -10.4297   21.0406 C   0  0  0  0  0  0
  -24.3609   -9.4216   21.9185 C   0  0  0  0  0  0
  -23.6291   -8.2252   22.0760 C   0  0  0  0  0  0
  -22.4272   -8.0280   21.3546 C   0  0  0  0  0  0
  -21.9895   -9.0257   20.4655 C   0  0  0  0  0  0
  -22.7217  -10.2138   20.3058 C   0  0  0  0  0  0
  -21.6863   -6.0731   22.5281 C   0  0  0  0  0  0
  -21.4016   -6.5644   23.8211 C   0  0  0  0  0  0
  -21.3655   -5.6798   24.9173 C   0  0  0  0  0  0
  -21.6051   -4.3062   24.7228 C   0  0  0  0  0  0
  -21.8821   -3.8147   23.4350 C   0  0  0  0  0  0
  -21.9196   -4.6962   22.3402 C   0  0  0  0  0  0
  -22.7868  -13.5252   21.1850 C   0  0  0  0  0  0
  -22.1665   -4.2152   21.0978 F   0  0  0  0  0  0
  -21.5633   -3.4542   25.7735 F   0  0  0  0  0  0
  -30.0198  -13.3120   20.4312 N   0  0  0  0  0  0
  -26.3011  -12.9316   20.3378 N   0  0  0  0  0  0
  -25.9298  -11.6483   20.5778 N   0  0  0  0  0  0
  -22.0509  -12.8249   22.0414 N   0  0  0  0  0  0
  -25.4340  -15.1863   20.4039 N   0  0  0  0  0  0
  -31.8765  -14.5684   20.1426 O   0  0  0  0  0  0
  -21.6644   -6.8878   21.4241 O   0  0  0  0  0  0
  -22.3560  -14.5563   20.6699 O   0  0  0  0  0  0
  -24.6166  -31.8678   23.2094 C   0  0  0  0  0  0
  -25.9057  -32.4812   23.8386 C   0  0  1  0  0  0
  -27.2240  -27.4255   20.0907 C   0  0  0  0  0  0
  -25.5913  -33.8614   24.2316 N   0  0  0  0  0  0
  -23.4038  -30.4943   21.5506 C   0  0  2  0  0  0
  -24.8439  -28.9595   20.1146 C   0  0  0  0  0  0
  -22.7415  -29.4678   22.4971 C   0  0  0  0  0  0
  -18.0297  -28.1380   22.8516 C   0  0  0  0  0  0
  -24.1487  -36.7321   23.2638 C   0  0  0  0  0  0
  -25.9341  -30.8301   21.3651 C   0  0  0  0  0  0
  -26.0061  -29.4659   20.7080 C   0  0  0  0  0  0
  -27.1984  -28.7066   20.6907 C   0  0  0  0  0  0
  -26.0423  -26.9416   19.4832 C   0  0  0  0  0  0
  -24.8578  -27.6972   19.4996 C   0  0  0  0  0  0
  -23.6077  -29.8283   20.1647 C   0  0  0  0  0  0
  -25.4110  -36.3116   24.0335 C   0  0  1  0  0  0
  -20.5880  -28.3683   23.1327 C   0  0  2  0  0  0
  -20.6753  -26.9394   22.5469 C   0  0  0  0  0  0
  -19.5755  -26.6389   21.5248 C   0  0  0  0  0  0
  -18.1960  -26.7901   22.1707 C   0  0  0  0  0  0
  -19.1544  -28.8857   23.2895 C   0  0  0  0  0  0
  -18.9456  -30.1488   23.8859 C   0  0  0  0  0  0
  -17.6462  -30.6612   24.0520 C   0  0  0  0  0  0
  -25.9033  -34.9477   23.5130 C   0  0  0  0  0  0
  -16.5359  -29.9083   23.6329 C   0  0  0  0  0  0
  -16.7286  -28.6492   23.0366 C   0  0  0  0  0  0
  -26.4472  -31.6595   25.0721 C   0  0  0  0  0  0
  -25.3737  -31.3713   26.1478 C   0  0  0  0  0  0
  -27.0299  -30.3035   24.6110 C   0  0  0  0  0  0
  -27.6058  -32.4309   25.7477 C   0  0  0  0  0  0
  -27.5588  -37.1815   24.8464 C   0  0  0  0  0  0
  -21.4148  -29.3037   22.3707 N   0  0  0  0  0  0
  -26.4305  -37.3800   23.9397 N   0  0  0  0  0  0
  -24.6706  -31.0783   22.0992 N   0  0  0  0  0  0
  -23.4179  -28.8221   23.3012 O   0  0  0  0  0  0
  -28.3992  -26.6999   20.1002 O   0  0  0  0  0  0
  -26.5599  -34.8933   22.4686 O   0  0  0  0  0  0
  -23.5353  -32.1435   23.7476 O   0  0  0  0  0  0
  -28.5864  -21.9271   21.5097 C   0  0  0  0  0  0
  -25.8521  -21.6868   21.9522 C   0  0  0  0  0  0
  -27.7829  -23.0934   21.4380 C   0  0  0  0  0  0
  -26.3900  -22.9532   21.6555 C   0  0  0  0  0  0
  -26.6659  -20.5407   22.0701 C   0  0  0  0  0  0
  -28.0628  -20.6452   21.8105 C   0  0  0  0  0  0
  -29.5127  -18.0367   20.1469 C   0  0  0  0  0  0
  -29.2042  -17.3079   22.5513 C   0  0  0  0  0  0
  -29.6278  -24.6266   20.3211 C   0  0  0  0  0  0
  -30.5495  -16.8913   20.2278 C   0  0  0  0  0  0
  -29.2099  -15.8497   22.0417 C   0  0  0  0  0  0
  -28.4330  -24.4495   21.2313 C   0  0  1  0  0  0
  -28.7514  -18.2961   21.4610 C   0  0  0  0  0  0
  -28.3157  -25.2710   19.9520 C   0  0  2  0  0  0
  -25.4376  -24.1374   21.6471 C   0  0  0  0  0  0
  -25.9840  -19.2740   22.5624 C   0  0  0  0  0  0
  -30.0321  -15.6355   20.8317 N   0  0  0  0  0  0
  -28.9961  -19.6270   21.9438 O   0  0  0  0  0  0
  -31.4618  -12.4087   19.1104 H   0  0  0  0  0  0
  -30.3290  -11.3054   19.8168 H   0  0  0  0  0  0
  -29.7240  -11.7696   17.4274 H   0  0  0  0  0  0
  -29.6510  -13.4836   17.7552 H   0  0  0  0  0  0
  -27.8162  -11.3081   18.8130 H   0  0  0  0  0  0
  -27.3538  -12.6348   17.7848 H   0  0  0  0  0  0
  -27.7074  -14.2523   19.5875 H   0  0  0  0  0  0
  -28.6992  -11.8964   21.2494 H   0  0  0  0  0  0
  -28.4579  -13.4559   21.9112 H   0  0  0  0  0  0
  -25.2754   -9.5706   22.4763 H   0  0  0  0  0  0
  -24.0014   -7.4646   22.7477 H   0  0  0  0  0  0
  -21.0828   -8.8772   19.8965 H   0  0  0  0  0  0
  -22.3667  -10.9683   19.6180 H   0  0  0  0  0  0
  -21.2010   -7.6153   23.9707 H   0  0  0  0  0  0
  -21.1471   -6.0533   25.9075 H   0  0  0  0  0  0
  -22.0598   -2.7606   23.2851 H   0  0  0  0  0  0
  -22.4101  -11.9894   22.4790 H   0  0  0  0  0  0
  -21.1136  -13.1292   22.2628 H   0  0  0  0  0  0
  -24.6698  -15.8458   20.4996 H   0  0  0  0  0  0
  -26.2932  -15.6152   20.0849 H   0  0  0  0  0  0
  -26.7134  -32.5500   23.1148 H   0  0  0  0  0  0
  -25.0057  -33.9758   25.0464 H   0  0  0  0  0  0
  -22.6954  -31.3129   21.4116 H   0  0  0  0  0  0
  -23.3742  -35.9663   23.3311 H   0  0  0  0  0  0
  -24.3592  -36.8917   22.2053 H   0  0  0  0  0  0
  -23.7242  -37.6532   23.6640 H   0  0  0  0  0  0
  -26.0525  -31.5996   20.6016 H   0  0  0  0  0  0
  -26.8220  -30.8757   21.9841 H   0  0  0  0  0  0
  -28.0965  -29.0950   21.1491 H   0  0  0  0  0  0
  -26.0050  -25.9822   18.9913 H   0  0  0  0  0  0
  -23.9665  -27.3044   19.0323 H   0  0  0  0  0  0
  -23.7171  -30.6038   19.4057 H   0  0  0  0  0  0
  -22.7299  -29.2519   19.8672 H   0  0  0  0  0  0
  -25.1280  -36.1996   25.0833 H   0  0  0  0  0  0
  -20.9954  -28.3287   24.1464 H   0  0  0  0  0  0
  -20.5572  -26.2306   23.3680 H   0  0  0  0  0  0
  -21.6639  -26.7356   22.1337 H   0  0  0  0  0  0
  -19.6936  -25.6315   21.1246 H   0  0  0  0  0  0
  -19.6683  -27.3221   20.6793 H   0  0  0  0  0  0
  -17.4202  -26.6556   21.4163 H   0  0  0  0  0  0
  -18.0472  -26.0080   22.9170 H   0  0  0  0  0  0
  -19.7928  -30.7336   24.2175 H   0  0  0  0  0  0
  -17.5018  -31.6310   24.5082 H   0  0  0  0  0  0
  -15.5361  -30.2979   23.7683 H   0  0  0  0  0  0
  -15.8686  -28.0803   22.7113 H   0  0  0  0  0  0
  -24.5903  -30.7054   25.7843 H   0  0  0  0  0  0
  -24.8927  -32.2865   26.4946 H   0  0  0  0  0  0
  -25.8108  -30.8887   27.0229 H   0  0  0  0  0  0
  -26.2854  -29.6791   24.1166 H   0  0  0  0  0  0
  -27.4060  -29.7283   25.4578 H   0  0  0  0  0  0
  -27.8686  -30.4341   23.9269 H   0  0  0  0  0  0
  -27.2687  -33.3594   26.2108 H   0  0  0  0  0  0
  -28.3851  -32.6901   25.0293 H   0  0  0  0  0  0
  -28.0752  -31.8395   26.5350 H   0  0  0  0  0  0
  -28.2623  -38.0098   24.7508 H   0  0  0  0  0  0
  -28.1065  -36.2632   24.6296 H   0  0  0  0  0  0
  -27.2300  -37.1473   25.8867 H   0  0  0  0  0  0
  -20.9307  -29.8745   21.6913 H   0  0  0  0  0  0
  -26.0195  -38.2882   24.1392 H   0  0  0  0  0  0
  -29.6536  -22.0180   21.3638 H   0  0  0  0  0  0
  -24.7901  -21.6034   22.1451 H   0  0  0  0  0  0
  -28.7907  -17.7970   19.3644 H   0  0  0  0  0  0
  -30.0074  -18.9498   19.8135 H   0  0  0  0  0  0
  -30.2040  -17.5752   22.8971 H   0  0  0  0  0  0
  -28.5606  -17.3886   23.4269 H   0  0  0  0  0  0
  -29.9405  -23.7828   19.7079 H   0  0  0  0  0  0
  -30.4288  -25.2829   20.6560 H   0  0  0  0  0  0
  -31.4117  -17.2258   20.8086 H   0  0  0  0  0  0
  -30.9208  -16.7111   19.2168 H   0  0  0  0  0  0
  -28.1785  -15.5818   21.8136 H   0  0  0  0  0  0
  -29.5510  -15.1992   22.8496 H   0  0  0  0  0  0
  -28.4499  -24.9948   22.1729 H   0  0  0  0  0  0
  -27.7091  -18.1101   21.2296 H   0  0  0  0  0  0
  -27.8402  -24.8874   19.0523 H   0  0  0  0  0  0
  -24.9777  -24.2544   22.6294 H   0  0  0  0  0  0
  -24.6414  -23.9772   20.9188 H   0  0  0  0  0  0
  -25.9238  -25.0793   21.4098 H   0  0  0  0  0  0
  -25.1045  -19.5103   23.1637 H   0  0  0  0  0  0
  -26.6431  -18.6855   23.1970 H   0  0  0  0  0  0
  -25.6467  -18.6651   21.7227 H   0  0  0  0  0  0
  1 25  1  0  0  0
  1 30  2  0  0  0
  1 87  1  0  0  0
  2  3  1  0  0  0
  2 25  1  0  0  0
  2 89  1  0  0  0
  2 90  1  0  0  0
  3  4  1  0  0  0
  3 91  1  0  0  0
  3 92  1  0  0  0
  4  5  1  0  0  0
  4 93  1  0  0  0
  4 94  1  0  0  0
  5  6  1  0  0  0
  5 26  1  0  0  0
  5 95  1  0  0  0
  6 25  1  0  0  0
  6 96  1  0  0  0
  6 97  1  0  0  0
  7  8  2  0  0  0
  7 26  1  0  0  0
  7 29  1  0  0  0
  8  9  1  0  0  0
  8 22  1  0  0  0
  9 10  1  0  0  0
  9 27  2  0  0  0
 10 11  2  0  0  0
 10 15  1  0  0  0
 11 12  1  0  0  0
 11 98  1  0  0  0
 12 13  2  0  0  0
 12 99  1  0  0  0
 13 14  1  0  0  0
 13 31  1  0  0  0
 14 15  2  0  0  0
 14100  1  0  0  0
 15101  1  0  0  0
 16 17  2  0  0  0
 16 21  1  0  0  0
 16 31  1  0  0  0
 17 18  1  0  0  0
 17102  1  0  0  0
 18 19  2  0  0  0
 18103  1  0  0  0
 19 20  1  0  0  0
 19 24  1  0  0  0
 20 21  2  0  0  0
 20104  1  0  0  0
 21 23  1  0  0  0
 22 28  1  0  0  0
 22 32  2  0  0  0
 26 27  1  0  0  0
 28105  1  0  0  0
 28106  1  0  0  0
 29107  1  0  0  0
 29108  1  0  0  0
 33 34  1  0  0  0
 33 66  1  0  0  0
 33 70  2  0  0  0
 34 36  1  0  0  0
 34 59  1  0  0  0
 34109  1  0  0  0
 35 44  2  0  0  0
 35 45  1  0  0  0
 35 68  1  0  0  0
 36 56  1  0  0  0
 36110  1  0  0  0
 37 39  1  0  0  0
 37 47  1  0  0  0
 37 66  1  0  0  0
 37111  1  0  0  0
 38 43  2  0  0  0
 38 46  1  0  0  0
 38 47  1  0  0  0
 39 64  1  0  0  0
 39 67  2  0  0  0
 40 52  1  0  0  0
 40 53  2  0  0  0
 40 58  1  0  0  0
 41112  1  0  0  0
 41113  1  0  0  0
 41114  1  0  0  0
 41 48  1  0  0  0
 42 43  1  0  0  0
 42 66  1  0  0  0
 42115  1  0  0  0
 42116  1  0  0  0
 43 44  1  0  0  0
 44117  1  0  0  0
 45 46  2  0  0  0
 45118  1  0  0  0
 46119  1  0  0  0
 47120  1  0  0  0
 47121  1  0  0  0
 48 56  1  0  0  0
 48 65  1  0  0  0
 48122  1  0  0  0
 49 50  1  0  0  0
 49 53  1  0  0  0
 49 64  1  0  0  0
 49123  1  0  0  0
 50 51  1  0  0  0
 50124  1  0  0  0
 50125  1  0  0  0
 51 52  1  0  0  0
 51126  1  0  0  0
 51127  1  0  0  0
 52128  1  0  0  0
 52129  1  0  0  0
 53 54  1  0  0  0
 54 55  2  0  0  0
 54130  1  0  0  0
 55 57  1  0  0  0
 55131  1  0  0  0
 56 69  2  0  0  0
 57 58  2  0  0  0
 57132  1  0  0  0
 58133  1  0  0  0
 59 60  1  0  0  0
 59 61  1  0  0  0
 59 62  1  0  0  0
 60134  1  0  0  0
 60135  1  0  0  0
 60136  1  0  0  0
 61137  1  0  0  0
 61138  1  0  0  0
 61139  1  0  0  0
 62140  1  0  0  0
 62141  1  0  0  0
 62142  1  0  0  0
 63 65  1  0  0  0
 63143  1  0  0  0
 63144  1  0  0  0
 63145  1  0  0  0
 64146  1  0  0  0
 65147  1  0  0  0
 68 84  1  0  0  0
 71 73  2  0  0  0
 71 76  1  0  0  0
 71148  1  0  0  0
 72 74  2  0  0  0
 72 75  1  0  0  0
 72149  1  0  0  0
 73 74  1  0  0  0
 73 82  1  0  0  0
 74 85  1  0  0  0
 75 76  2  0  0  0
 75 86  1  0  0  0
 76 88  1  0  0  0
 77 80  1  0  0  0
 77 83  1  0  0  0
 77150  1  0  0  0
 77151  1  0  0  0
 78 81  1  0  0  0
 78 83  1  0  0  0
 78152  1  0  0  0
 78153  1  0  0  0
 79 82  1  0  0  0
 79 84  1  0  0  0
 79154  1  0  0  0
 79155  1  0  0  0
 80 87  1  0  0  0
 80156  1  0  0  0
 80157  1  0  0  0
 81 87  1  0  0  0
 81158  1  0  0  0
 81159  1  0  0  0
 82 84  1  0  0  0
 82160  1  0  0  0
 83 88  1  0  0  0
 83161  1  0  0  0
 84162  1  0  0  0
 85163  1  0  0  0
 85164  1  0  0  0
 85165  1  0  0  0
 86166  1  0  0  0
 86167  1  0  0  0
 86168  1  0  0  0
M  ISO  4   1 100  68 101  84 101  87 100
M  END
> <chiral flag>
0

> <version>
0

> <s_m_source_file>
/data/baiqing/PycharmProjects/Reinvent-master-3.2/result/LINK_invent/BTK/process_docking_weight1_custom_sum_contain_oxygen_bond_distance_aromatic_linkinvent_7_9_3/rearranged_h_0158.sdf

> <i_m_source_file_index>
86

> <r_mmod_Potential_Energy-OPLS-2005>
221.736831665039

> <r_mmod_Stretch_Energy-OPLS-2005>
45.3019714355469

> <r_mmod_Bend_Energy-OPLS-2005>
138.873458862305

> <r_mmod_Torsional_Energy-OPLS-2005>
351.705749511719

> <r_mmod_Improper_Torsional_Energy-OPLS-2005>
12.7835168838501

> <r_mmod_Van_der_Waal_Energy-OPLS-2005>
168.167175292969

> <r_mmod_Electrostatic_Energy-OPLS-2005>
-313.82763671875

> <r_mmod_Solvation_Energy-OPLS-2005>
-197.190643310547

> <b_mmod_Minimization_Converged-OPLS-2005>
0

> <r_mmod_RMS_Derivative-OPLS-2005>
2.25594854354858

$$$$
86
                    3D
 Structure written by MMmdl.
174184  0  0  1  0            999 V2000
  -30.6822  -14.4847   20.5217 C   0  0  0  0  0  0
  -30.4228  -12.2959   19.4375 C   0  0  0  0  0  0
  -29.5005  -12.4976   18.2154 C   0  0  0  0  0  0
  -28.0200  -12.3595   18.6223 C   0  0  0  0  0  0
  -27.6616  -13.2041   19.8744 C   0  0  2  0  0  0
  -28.7028  -13.0013   21.0023 C   0  0  0  0  0  0
  -25.2589  -13.8150   20.5676 C   0  0  0  0  0  0
  -24.1837  -13.0435   20.9176 C   0  0  0  0  0  0
  -24.6390  -11.6901   20.8733 C   0  0  0  0  0  0
  -23.9055  -10.4292   21.0400 C   0  0  0  0  0  0
  -24.3611   -9.4210   21.9179 C   0  0  0  0  0  0
  -23.6290   -8.2243   22.0750 C   0  0  0  0  0  0
  -22.4275   -8.0277   21.3538 C   0  0  0  0  0  0
  -21.9905   -9.0252   20.4643 C   0  0  0  0  0  0
  -22.7229  -10.2133   20.3050 C   0  0  0  0  0  0
  -21.6852   -6.0733   22.5278 C   0  0  0  0  0  0
  -21.4011   -6.5637   23.8214 C   0  0  0  0  0  0
  -21.3658   -5.6787   24.9174 C   0  0  0  0  0  0
  -21.6044   -4.3051   24.7222 C   0  0  0  0  0  0
  -21.8820   -3.8142   23.4345 C   0  0  0  0  0  0
  -21.9192   -4.6960   22.3401 C   0  0  0  0  0  0
  -22.7859  -13.5240   21.1835 C   0  0  0  0  0  0
  -22.1662   -4.2145   21.0979 F   0  0  0  0  0  0
  -21.5632   -3.4537   25.7738 F   0  0  0  0  0  0
  -30.0364  -13.2903   20.4508 N   0  0  0  0  0  0
  -26.3022  -12.9318   20.3357 N   0  0  0  0  0  0
  -25.9316  -11.6481   20.5759 N   0  0  0  0  0  0
  -22.0489  -12.8243   22.0395 N   0  0  0  0  0  0
  -25.4307  -15.1870   20.4084 N   0  0  0  0  0  0
  -31.8279  -14.6572   20.0979 O   0  0  0  0  0  0
  -21.6633   -6.8878   21.4242 O   0  0  0  0  0  0
  -22.3555  -14.5547   20.6682 O   0  0  0  0  0  0
  -24.6146  -31.8682   23.2104 C   0  0  0  0  0  0
  -25.9036  -32.4825   23.8401 C   0  0  1  0  0  0
  -27.2301  -27.4302   20.1004 C   0  0  0  0  0  0
  -25.5892  -33.8622   24.2331 N   0  0  0  0  0  0
  -23.4026  -30.4922   21.5514 C   0  0  2  0  0  0
  -24.8486  -28.9580   20.1166 C   0  0  0  0  0  0
  -22.7408  -29.4659   22.4991 C   0  0  0  0  0  0
  -18.0270  -28.1376   22.8493 C   0  0  0  0  0  0
  -24.1483  -36.7315   23.2640 C   0  0  0  0  0  0
  -25.9323  -30.8332   21.3642 C   0  0  0  0  0  0
  -26.0100  -29.4670   20.7123 C   0  0  0  0  0  0
  -27.2066  -28.7123   20.6973 C   0  0  0  0  0  0
  -26.0541  -26.9416   19.4905 C   0  0  0  0  0  0
  -24.8658  -27.6947   19.5018 C   0  0  0  0  0  0
  -23.6113  -29.8256   20.1659 C   0  0  0  0  0  0
  -25.4104  -36.3113   24.0339 C   0  0  1  0  0  0
  -20.5861  -28.3660   23.1323 C   0  0  2  0  0  0
  -20.6759  -26.9399   22.5419 C   0  0  0  0  0  0
  -19.5742  -26.6386   21.5212 C   0  0  0  0  0  0
  -18.1919  -26.7923   22.1622 C   0  0  0  0  0  0
  -19.1519  -28.8833   23.2907 C   0  0  0  0  0  0
  -18.9449  -30.1440   23.8917 C   0  0  0  0  0  0
  -17.6454  -30.6585   24.0565 C   0  0  0  0  0  0
  -25.9031  -34.9477   23.5133 C   0  0  0  0  0  0
  -16.5344  -29.9089   23.6325 C   0  0  0  0  0  0
  -16.7261  -28.6504   23.0348 C   0  0  0  0  0  0
  -26.4465  -31.6600   25.0726 C   0  0  0  0  0  0
  -25.3737  -31.3703   26.1480 C   0  0  0  0  0  0
  -27.0292  -30.3043   24.6092 C   0  0  0  0  0  0
  -27.6045  -32.4315   25.7487 C   0  0  0  0  0  0
  -27.5579  -37.1811   24.8467 C   0  0  0  0  0  0
  -21.4136  -29.3029   22.3730 N   0  0  0  0  0  0
  -26.4291  -37.3797   23.9411 N   0  0  0  0  0  0
  -24.6682  -31.0784   22.1005 N   0  0  0  0  0  0
  -23.4181  -28.8204   23.3034 O   0  0  0  0  0  0
  -28.3904  -26.6849   20.0776 O   0  0  0  0  0  0
  -26.5596  -34.8927   22.4696 O   0  0  0  0  0  0
  -23.5337  -32.1430   23.7497 O   0  0  0  0  0  0
  -31.8054  -23.9509   19.8477 C   0  0  0  0  0  0
  -29.1289  -23.1235   19.7142 C   0  0  0  0  0  0
  -31.4841  -22.7032   19.2784 C   0  0  0  0  0  0
  -30.1448  -22.2522   19.2421 C   0  0  0  0  0  0
  -30.7922  -24.8100   20.3192 C   0  0  0  0  0  0
  -29.4335  -24.4193   20.2109 C   0  0  0  0  0  0
  -32.5562  -21.9051   18.5664 C   0  0  0  0  0  0
  -32.0022  -21.4459   17.2135 C   0  0  0  0  0  0
  -28.6401  -17.3803   19.7044 C   0  0  0  0  0  0
  -30.5920  -17.9792   21.0713 C   0  0  0  0  0  0
  -28.8052  -18.6523   18.8459 C   0  0  0  0  0  0
  -30.7948  -19.2859   20.2507 C   0  0  0  0  0  0
  -29.7971  -20.9070   18.5628 C   0  0  1  0  0  0
  -30.0064  -16.8686   20.1822 C   0  0  1  0  0  0
  -30.7694  -20.5344   17.3763 C   0  0  1  0  0  0
  -31.1933  -26.1558   20.9002 C   0  0  0  0  0  0
  -28.2947  -25.3579   20.6316 C   0  0  0  0  0  0
  -29.8914  -15.5382   20.8159 N   0  0  0  0  0  0
  -29.5741  -19.7553   19.5101 N   0  3  1  0  0  0
  -30.0802  -20.5081   16.1330 O   0  0  0  0  0  0
  -31.4701  -12.3841   19.1432 H   0  0  0  0  0  0
  -30.3118  -11.2876   19.8397 H   0  0  0  0  0  0
  -29.7442  -11.7741   17.4365 H   0  0  0  0  0  0
  -29.6729  -13.4838   17.7807 H   0  0  0  0  0  0
  -27.8302  -11.3042   18.8225 H   0  0  0  0  0  0
  -27.3727  -12.6303   17.7871 H   0  0  0  0  0  0
  -27.6996  -14.2474   19.5632 H   0  0  0  0  0  0
  -28.6731  -11.9740   21.3688 H   0  0  0  0  0  0
  -28.4733  -13.6295   21.8645 H   0  0  0  0  0  0
  -25.2755   -9.5691   22.4755 H   0  0  0  0  0  0
  -24.0002   -7.4634   22.7470 H   0  0  0  0  0  0
  -21.0834   -8.8767   19.8953 H   0  0  0  0  0  0
  -22.3681  -10.9671   19.6159 H   0  0  0  0  0  0
  -21.2000   -7.6144   23.9718 H   0  0  0  0  0  0
  -21.1481   -6.0513   25.9079 H   0  0  0  0  0  0
  -22.0601   -2.7604   23.2839 H   0  0  0  0  0  0
  -22.4085  -11.9906   22.4797 H   0  0  0  0  0  0
  -21.1107  -13.1282   22.2588 H   0  0  0  0  0  0
  -24.6597  -15.8385   20.5095 H   0  0  0  0  0  0
  -26.2800  -15.6250   20.0799 H   0  0  0  0  0  0
  -26.7110  -32.5540   23.1171 H   0  0  0  0  0  0
  -25.0038  -33.9785   25.0473 H   0  0  0  0  0  0
  -22.6912  -31.3090   21.4128 H   0  0  0  0  0  0
  -23.3741  -35.9653   23.3316 H   0  0  0  0  0  0
  -24.3577  -36.8914   22.2053 H   0  0  0  0  0  0
  -23.7235  -37.6524   23.6645 H   0  0  0  0  0  0
  -26.0443  -31.5996   20.5958 H   0  0  0  0  0  0
  -26.8202  -30.8862   21.9826 H   0  0  0  0  0  0
  -28.1059  -29.1032   21.1526 H   0  0  0  0  0  0
  -26.0521  -25.9835   18.9905 H   0  0  0  0  0  0
  -23.9755  -27.3010   19.0308 H   0  0  0  0  0  0
  -23.7203  -30.6009   19.4065 H   0  0  0  0  0  0
  -22.7353  -29.2456   19.8699 H   0  0  0  0  0  0
  -25.1279  -36.1982   25.0831 H   0  0  0  0  0  0
  -20.9953  -28.3220   24.1444 H   0  0  0  0  0  0
  -20.5664  -26.2266   23.3602 H   0  0  0  0  0  0
  -21.6631  -26.7442   22.1214 H   0  0  0  0  0  0
  -19.6904  -25.6300   21.1234 H   0  0  0  0  0  0
  -19.6689  -27.3203   20.6748 H   0  0  0  0  0  0
  -17.4193  -26.6675   21.4021 H   0  0  0  0  0  0
  -18.0322  -26.0061   22.9016 H   0  0  0  0  0  0
  -19.7927  -30.7244   24.2302 H   0  0  0  0  0  0
  -17.5013  -31.6267   24.5166 H   0  0  0  0  0  0
  -15.5347  -30.3000   23.7637 H   0  0  0  0  0  0
  -15.8660  -28.0832   22.7052 H   0  0  0  0  0  0
  -24.5902  -30.7057   25.7820 H   0  0  0  0  0  0
  -24.8939  -32.2858   26.4948 H   0  0  0  0  0  0
  -25.8097  -30.8858   27.0227 H   0  0  0  0  0  0
  -26.2828  -29.6812   24.1151 H   0  0  0  0  0  0
  -27.4070  -29.7269   25.4540 H   0  0  0  0  0  0
  -27.8662  -30.4364   23.9232 H   0  0  0  0  0  0
  -27.2665  -33.3606   26.2091 H   0  0  0  0  0  0
  -28.3841  -32.6888   25.0305 H   0  0  0  0  0  0
  -28.0728  -31.8422   26.5382 H   0  0  0  0  0  0
  -28.2607  -38.0099   24.7502 H   0  0  0  0  0  0
  -28.1060  -36.2628   24.6301 H   0  0  0  0  0  0
  -27.2299  -37.1476   25.8872 H   0  0  0  0  0  0
  -20.9293  -29.8753   21.6957 H   0  0  0  0  0  0
  -26.0182  -38.2878   24.1404 H   0  0  0  0  0  0
  -32.8366  -24.2774   19.8732 H   0  0  0  0  0  0
  -28.0936  -22.8179   19.6461 H   0  0  0  0  0  0
  -32.8721  -21.0610   19.1785 H   0  0  0  0  0  0
  -33.4414  -22.5226   18.4079 H   0  0  0  0  0  0
  -32.7769  -20.9299   16.6445 H   0  0  0  0  0  0
  -31.7441  -22.3358   16.6366 H   0  0  0  0  0  0
  -28.1418  -16.6187   19.1038 H   0  0  0  0  0  0
  -27.9838  -17.5811   20.5525 H   0  0  0  0  0  0
  -29.9431  -18.1678   21.9277 H   0  0  0  0  0  0
  -31.5516  -17.6616   21.4816 H   0  0  0  0  0  0
  -27.8173  -19.0219   18.5666 H   0  0  0  0  0  0
  -29.2847  -18.3588   17.9128 H   0  0  0  0  0  0
  -31.6160  -19.1020   19.5610 H   0  0  0  0  0  0
  -31.1361  -20.0816   20.9140 H   0  0  0  0  0  0
  -28.8172  -21.0983   18.1212 H   0  0  0  0  0  0
  -30.6455  -16.7652   19.3015 H   0  0  0  0  0  0
  -31.1529  -19.5233   17.5027 H   0  0  0  0  0  0
  -32.2488  -26.1705   21.1737 H   0  0  0  0  0  0
  -30.6195  -26.3857   21.7981 H   0  0  0  0  0  0
  -31.0266  -26.9499   20.1720 H   0  0  0  0  0  0
  -28.3079  -25.4410   21.7192 H   0  0  0  0  0  0
  -27.3491  -24.8763   20.3849 H   0  0  0  0  0  0
  -28.9931  -15.2999   21.2083 H   0  0  0  0  0  0
  -28.9552  -20.1222   20.2175 H   0  0  0  0  0  0
  -29.7885  -21.3931   15.9317 H   0  0  0  0  0  0
  1 25  1  0  0  0
  1 30  2  0  0  0
  1 88  1  0  0  0
  2  3  1  0  0  0
  2 25  1  0  0  0
  2 91  1  0  0  0
  2 92  1  0  0  0
  3  4  1  0  0  0
  3 93  1  0  0  0
  3 94  1  0  0  0
  4  5  1  0  0  0
  4 95  1  0  0  0
  4 96  1  0  0  0
  5  6  1  0  0  0
  5 26  1  0  0  0
  5 97  1  0  0  0
  6 25  1  0  0  0
  6 98  1  0  0  0
  6 99  1  0  0  0
  7  8  2  0  0  0
  7 26  1  0  0  0
  7 29  1  0  0  0
  8  9  1  0  0  0
  8 22  1  0  0  0
  9 10  1  0  0  0
  9 27  2  0  0  0
 10 11  2  0  0  0
 10 15  1  0  0  0
 11 12  1  0  0  0
 11100  1  0  0  0
 12 13  2  0  0  0
 12101  1  0  0  0
 13 14  1  0  0  0
 13 31  1  0  0  0
 14 15  2  0  0  0
 14102  1  0  0  0
 15103  1  0  0  0
 16 17  2  0  0  0
 16 21  1  0  0  0
 16 31  1  0  0  0
 17 18  1  0  0  0
 17104  1  0  0  0
 18 19  2  0  0  0
 18105  1  0  0  0
 19 20  1  0  0  0
 19 24  1  0  0  0
 20 21  2  0  0  0
 20106  1  0  0  0
 21 23  1  0  0  0
 22 28  1  0  0  0
 22 32  2  0  0  0
 26 27  1  0  0  0
 28107  1  0  0  0
 28108  1  0  0  0
 29109  1  0  0  0
 29110  1  0  0  0
 33 34  1  0  0  0
 33 66  1  0  0  0
 33 70  2  0  0  0
 34 36  1  0  0  0
 34 59  1  0  0  0
 34111  1  0  0  0
 35 44  2  0  0  0
 35 45  1  0  0  0
 35 68  1  0  0  0
 36 56  1  0  0  0
 36112  1  0  0  0
 37 39  1  0  0  0
 37 47  1  0  0  0
 37 66  1  0  0  0
 37113  1  0  0  0
 38 43  2  0  0  0
 38 46  1  0  0  0
 38 47  1  0  0  0
 39 64  1  0  0  0
 39 67  2  0  0  0
 40 52  1  0  0  0
 40 53  2  0  0  0
 40 58  1  0  0  0
 41114  1  0  0  0
 41115  1  0  0  0
 41116  1  0  0  0
 41 48  1  0  0  0
 42 43  1  0  0  0
 42 66  1  0  0  0
 42117  1  0  0  0
 42118  1  0  0  0
 43 44  1  0  0  0
 44119  1  0  0  0
 45 46  2  0  0  0
 45120  1  0  0  0
 46121  1  0  0  0
 47122  1  0  0  0
 47123  1  0  0  0
 48 56  1  0  0  0
 48 65  1  0  0  0
 48124  1  0  0  0
 49 50  1  0  0  0
 49 53  1  0  0  0
 49 64  1  0  0  0
 49125  1  0  0  0
 50 51  1  0  0  0
 50126  1  0  0  0
 50127  1  0  0  0
 51 52  1  0  0  0
 51128  1  0  0  0
 51129  1  0  0  0
 52130  1  0  0  0
 52131  1  0  0  0
 53 54  1  0  0  0
 54 55  2  0  0  0
 54132  1  0  0  0
 55 57  1  0  0  0
 55133  1  0  0  0
 56 69  2  0  0  0
 57 58  2  0  0  0
 57134  1  0  0  0
 58135  1  0  0  0
 59 60  1  0  0  0
 59 61  1  0  0  0
 59 62  1  0  0  0
 60136  1  0  0  0
 60137  1  0  0  0
 60138  1  0  0  0
 61139  1  0  0  0
 61140  1  0  0  0
 61141  1  0  0  0
 62142  1  0  0  0
 62143  1  0  0  0
 62144  1  0  0  0
 63 65  1  0  0  0
 63145  1  0  0  0
 63146  1  0  0  0
 63147  1  0  0  0
 64148  1  0  0  0
 65149  1  0  0  0
 68 87  1  0  0  0
 71 73  2  0  0  0
 71 75  1  0  0  0
 71150  1  0  0  0
 72 74  2  0  0  0
 72 76  1  0  0  0
 72151  1  0  0  0
 73 74  1  0  0  0
 73 77  1  0  0  0
 74 83  1  0  0  0
 75 76  2  0  0  0
 75 86  1  0  0  0
 76 87  1  0  0  0
 77 78  1  0  0  0
 77152  1  0  0  0
 77153  1  0  0  0
 78 85  1  0  0  0
 78154  1  0  0  0
 78155  1  0  0  0
 79 81  1  0  0  0
 79 84  1  0  0  0
 79156  1  0  0  0
 79157  1  0  0  0
 80 82  1  0  0  0
 80 84  1  0  0  0
 80158  1  0  0  0
 80159  1  0  0  0
 81160  1  0  0  0
 81161  1  0  0  0
 81 89  1  0  0  0
 82 89  1  0  0  0
 82162  1  0  0  0
 82163  1  0  0  0
 83 85  1  0  0  0
 83 89  1  0  0  0
 83164  1  0  0  0
 84 88  1  0  0  0
 84165  1  0  0  0
 85 90  1  0  0  0
 85166  1  0  0  0
 86167  1  0  0  0
 86168  1  0  0  0
 86169  1  0  0  0
 87170  1  0  0  0
 87171  1  0  0  0
 88172  1  0  0  0
 89173  1  0  0  0
 90174  1  0  0  0
M  CHG  1  89   1
M  ISO  4   1 100  68 101  87 101  88 100
M  END
> <chiral flag>
0

> <version>
0

> <s_m_source_file>
/data/baiqing/PycharmProjects/Reinvent-master-3.2/result/LINK_invent/BTK/process_docking_weight1_custom_sum_contain_oxygen_bond_distance_aromatic_linkinvent_7_9_3/rearranged_h_0158.sdf

> <i_m_source_file_index>
87

> <r_mmod_Potential_Energy-OPLS-2005>
-76.1685104370117

> <r_mmod_Stretch_Energy-OPLS-2005>
47.5774879455566

> <r_mmod_Bend_Energy-OPLS-2005>
108.008995056152

> <r_mmod_Torsional_Energy-OPLS-2005>
281.31298828125

> <r_mmod_Improper_Torsional_Energy-OPLS-2005>
9.39824199676514

> <r_mmod_Van_der_Waal_Energy-OPLS-2005>
160.873031616211

> <r_mmod_Electrostatic_Energy-OPLS-2005>
-240.100524902344

> <r_mmod_Solvation_Energy-OPLS-2005>
-457.525634765625

> <b_mmod_Minimization_Converged-OPLS-2005>
0

> <r_mmod_RMS_Derivative-OPLS-2005>
0.836936175823212

$$$$
87
                    3D
 Structure written by MMmdl.
178187  0  0  1  0            999 V2000
  -30.7032  -14.4482   20.6057 C   0  0  0  0  0  0
  -30.4247  -12.3035   19.4161 C   0  0  0  0  0  0
  -29.4937  -12.5083   18.2037 C   0  0  0  0  0  0
  -28.0171  -12.3633   18.6199 C   0  0  0  0  0  0
  -27.6649  -13.1993   19.8794 C   0  0  2  0  0  0
  -28.7036  -12.9626   20.9980 C   0  0  0  0  0  0
  -25.2612  -13.8140   20.5679 C   0  0  0  0  0  0
  -24.1848  -13.0432   20.9165 C   0  0  0  0  0  0
  -24.6392  -11.6891   20.8729 C   0  0  0  0  0  0
  -23.9053  -10.4292   21.0402 C   0  0  0  0  0  0
  -24.3602   -9.4209   21.9185 C   0  0  0  0  0  0
  -23.6277   -8.2240   22.0758 C   0  0  0  0  0  0
  -22.4271   -8.0281   21.3543 C   0  0  0  0  0  0
  -21.9903   -9.0250   20.4643 C   0  0  0  0  0  0
  -22.7221  -10.2131   20.3049 C   0  0  0  0  0  0
  -21.6852   -6.0727   22.5278 C   0  0  0  0  0  0
  -21.4016   -6.5637   23.8218 C   0  0  0  0  0  0
  -21.3659   -5.6788   24.9174 C   0  0  0  0  0  0
  -21.6042   -4.3048   24.7224 C   0  0  0  0  0  0
  -21.8816   -3.8147   23.4351 C   0  0  0  0  0  0
  -21.9192   -4.6961   22.3401 C   0  0  0  0  0  0
  -22.7879  -13.5248   21.1831 C   0  0  0  0  0  0
  -22.1659   -4.2150   21.0977 F   0  0  0  0  0  0
  -21.5628   -3.4533   25.7736 F   0  0  0  0  0  0
  -30.0342  -13.2759   20.4507 N   0  0  0  0  0  0
  -26.3042  -12.9293   20.3373 N   0  0  0  0  0  0
  -25.9316  -11.6459   20.5753 N   0  0  0  0  0  0
  -22.0503  -12.8240   22.0382 N   0  0  0  0  0  0
  -25.4360  -15.1848   20.4084 N   0  0  0  0  0  0
  -31.8085  -14.6601   20.0987 O   0  0  0  0  0  0
  -21.6634   -6.8876   21.4242 O   0  0  0  0  0  0
  -22.3578  -14.5556   20.6688 O   0  0  0  0  0  0
  -24.6137  -31.8691   23.2120 C   0  0  0  0  0  0
  -25.9049  -32.4838   23.8394 C   0  0  1  0  0  0
  -27.2396  -27.4572   20.0741 C   0  0  0  0  0  0
  -25.5922  -33.8635   24.2320 N   0  0  0  0  0  0
  -23.4010  -30.4917   21.5512 C   0  0  2  0  0  0
  -24.8504  -28.9585   20.1148 C   0  0  0  0  0  0
  -22.7415  -29.4637   22.4993 C   0  0  0  0  0  0
  -18.0268  -28.1346   22.8490 C   0  0  0  0  0  0
  -24.1492  -36.7321   23.2645 C   0  0  0  0  0  0
  -25.9271  -30.8377   21.3647 C   0  0  0  0  0  0
  -26.0084  -29.4727   20.7134 C   0  0  0  0  0  0
  -27.2088  -28.7256   20.6997 C   0  0  0  0  0  0
  -26.0711  -26.9595   19.4674 C   0  0  0  0  0  0
  -24.8721  -27.6967   19.4959 C   0  0  0  0  0  0
  -23.6091  -29.8228   20.1650 C   0  0  0  0  0  0
  -25.4108  -36.3133   24.0328 C   0  0  1  0  0  0
  -20.5866  -28.3645   23.1307 C   0  0  2  0  0  0
  -20.6776  -26.9385   22.5407 C   0  0  0  0  0  0
  -19.5759  -26.6363   21.5197 C   0  0  0  0  0  0
  -18.1924  -26.7890   22.1597 C   0  0  0  0  0  0
  -19.1519  -28.8814   23.2888 C   0  0  0  0  0  0
  -18.9459  -30.1424   23.8897 C   0  0  0  0  0  0
  -17.6471  -30.6585   24.0544 C   0  0  0  0  0  0
  -25.9028  -34.9489   23.5117 C   0  0  0  0  0  0
  -16.5366  -29.9071   23.6328 C   0  0  0  0  0  0
  -16.7259  -28.6480   23.0358 C   0  0  0  0  0  0
  -26.4478  -31.6623   25.0740 C   0  0  0  0  0  0
  -25.3761  -31.3715   26.1500 C   0  0  0  0  0  0
  -27.0337  -30.3102   24.6052 C   0  0  0  0  0  0
  -27.6034  -32.4377   25.7529 C   0  0  0  0  0  0
  -27.5576  -37.1818   24.8469 C   0  0  0  0  0  0
  -21.4152  -29.3017   22.3735 N   0  0  0  0  0  0
  -26.4308  -37.3803   23.9389 N   0  0  0  0  0  0
  -24.6644  -31.0803   22.1012 N   0  0  0  0  0  0
  -23.4207  -28.8153   23.3004 O   0  0  0  0  0  0
  -28.3685  -26.6750   20.0175 O   0  0  0  0  0  0
  -26.5593  -34.8956   22.4679 O   0  0  0  0  0  0
  -23.5350  -32.1431   23.7547 O   0  0  0  0  0  0
  -28.4022  -23.8901   21.9656 C   0  0  0  0  0  0
  -30.5531  -24.3383   20.9027 C   0  0  0  0  0  0
  -28.8493  -22.5937   22.3497 C   0  0  0  0  0  0
  -30.9833  -23.0198   21.2285 C   0  0  0  0  0  0
  -29.2980  -24.8135   21.3648 C   0  0  0  0  0  0
  -30.1901  -22.1850   22.0743 C   0  0  0  0  0  0
  -29.5666  -17.8583   20.8718 C   0  0  0  0  0  0
  -30.5918  -17.1094   22.9938 C   0  0  0  0  0  0
  -30.1105  -19.2949   21.1068 C   0  0  0  0  0  0
  -31.1453  -18.5318   23.2151 C   0  0  0  0  0  0
  -30.4929  -16.7971   21.4987 C   0  0  1  0  0  0
  -26.9604  -24.3265   22.2351 C   0  0  0  0  0  0
  -31.4700  -25.2402   20.0714 C   0  0  0  0  0  0
  -27.8667  -21.6926   23.0976 C   0  0  0  0  0  0
  -32.3401  -22.5347   20.7051 C   0  0  0  0  0  0
  -30.9339  -21.3418   24.3285 C   0  0  0  0  0  0
  -28.9192  -26.3069   21.2787 C   0  0  0  0  0  0
  -30.8575  -20.9876   22.8233 C   0  0  1  0  0  0
  -30.0360  -15.4138   21.2712 N   0  0  0  0  0  0
  -30.3265  -19.6016   22.5528 N   0  3  1  0  0  0
  -31.4700  -12.4082   19.1173 H   0  0  0  0  0  0
  -30.3291  -11.2891   19.8053 H   0  0  0  0  0  0
  -29.7333  -11.7860   17.4221 H   0  0  0  0  0  0
  -29.6606  -13.4960   17.7704 H   0  0  0  0  0  0
  -27.8350  -11.3064   18.8167 H   0  0  0  0  0  0
  -27.3640  -12.6339   17.7903 H   0  0  0  0  0  0
  -27.7161  -14.2495   19.5917 H   0  0  0  0  0  0
  -28.6815  -11.9200   21.3201 H   0  0  0  0  0  0
  -28.4621  -13.5429   21.8896 H   0  0  0  0  0  0
  -25.2747   -9.5697   22.4759 H   0  0  0  0  0  0
  -23.9996   -7.4643   22.7489 H   0  0  0  0  0  0
  -21.0832   -8.8757   19.8946 H   0  0  0  0  0  0
  -22.3677  -10.9665   19.6160 H   0  0  0  0  0  0
  -21.2008   -7.6146   23.9722 H   0  0  0  0  0  0
  -21.1482   -6.0515   25.9082 H   0  0  0  0  0  0
  -22.0593   -2.7606   23.2841 H   0  0  0  0  0  0
  -22.4111  -11.9902   22.4767 H   0  0  0  0  0  0
  -21.1125  -13.1275   22.2564 H   0  0  0  0  0  0
  -24.6702  -15.8423   20.5114 H   0  0  0  0  0  0
  -26.2912  -15.6206   20.0844 H   0  0  0  0  0  0
  -26.7119  -32.5563   23.1164 H   0  0  0  0  0  0
  -25.0177  -33.9760   25.0544 H   0  0  0  0  0  0
  -22.6903  -31.3085   21.4122 H   0  0  0  0  0  0
  -23.3775  -35.9643   23.3340 H   0  0  0  0  0  0
  -24.3603  -36.8909   22.2068 H   0  0  0  0  0  0
  -23.7220  -37.6507   23.6650 H   0  0  0  0  0  0
  -26.0390  -31.6070   20.5981 H   0  0  0  0  0  0
  -26.8138  -30.8927   21.9813 H   0  0  0  0  0  0
  -28.1049  -29.1248   21.1531 H   0  0  0  0  0  0
  -26.0947  -25.9956   18.9810 H   0  0  0  0  0  0
  -23.9797  -27.2988   19.0332 H   0  0  0  0  0  0
  -23.7106  -30.5994   19.4059 H   0  0  0  0  0  0
  -22.7344  -29.2367   19.8727 H   0  0  0  0  0  0
  -25.1282  -36.2015   25.0817 H   0  0  0  0  0  0
  -20.9912  -28.3224   24.1442 H   0  0  0  0  0  0
  -20.5709  -26.2237   23.3581 H   0  0  0  0  0  0
  -21.6636  -26.7443   22.1168 H   0  0  0  0  0  0
  -19.6950  -25.6264   21.1245 H   0  0  0  0  0  0
  -19.6725  -27.3160   20.6724 H   0  0  0  0  0  0
  -17.4183  -26.6648   21.4008 H   0  0  0  0  0  0
  -18.0331  -26.0007   22.8969 H   0  0  0  0  0  0
  -19.7957  -30.7209   24.2280 H   0  0  0  0  0  0
  -17.5052  -31.6275   24.5135 H   0  0  0  0  0  0
  -15.5368  -30.2990   23.7669 H   0  0  0  0  0  0
  -15.8644  -28.0820   22.7081 H   0  0  0  0  0  0
  -24.5927  -30.7045   25.7866 H   0  0  0  0  0  0
  -24.8967  -32.2870   26.4986 H   0  0  0  0  0  0
  -25.8156  -30.8892   27.0245 H   0  0  0  0  0  0
  -26.2851  -29.6853   24.1156 H   0  0  0  0  0  0
  -27.4216  -29.7336   25.4459 H   0  0  0  0  0  0
  -27.8638  -30.4475   23.9119 H   0  0  0  0  0  0
  -27.2588  -33.3668   26.2094 H   0  0  0  0  0  0
  -28.3867  -32.6954   25.0387 H   0  0  0  0  0  0
  -28.0654  -31.8507   26.5480 H   0  0  0  0  0  0
  -28.2602  -38.0116   24.7534 H   0  0  0  0  0  0
  -28.1064  -36.2646   24.6294 H   0  0  0  0  0  0
  -27.2296  -37.1452   25.8875 H   0  0  0  0  0  0
  -20.9322  -29.8746   21.6957 H   0  0  0  0  0  0
  -26.0233  -38.2885   24.1396 H   0  0  0  0  0  0
  -29.4672  -17.6803   19.8008 H   0  0  0  0  0  0
  -28.5617  -17.7754   21.2875 H   0  0  0  0  0  0
  -29.6173  -17.0113   23.4747 H   0  0  0  0  0  0
  -31.2461  -16.3860   23.4832 H   0  0  0  0  0  0
  -29.4089  -20.0111   20.6761 H   0  0  0  0  0  0
  -31.0523  -19.4151   20.5692 H   0  0  0  0  0  0
  -32.1708  -18.5789   22.8442 H   0  0  0  0  0  0
  -31.1976  -18.6809   24.2931 H   0  0  0  0  0  0
  -31.4870  -16.9211   21.0638 H   0  0  0  0  0  0
  -26.2474  -23.5049   22.2010 H   0  0  0  0  0  0
  -26.6185  -25.0235   21.4696 H   0  0  0  0  0  0
  -26.8775  -24.8182   23.2057 H   0  0  0  0  0  0
  -32.4887  -25.2214   20.4624 H   0  0  0  0  0  0
  -31.1776  -26.2867   20.0220 H   0  0  0  0  0  0
  -31.4939  -24.8848   19.0407 H   0  0  0  0  0  0
  -27.0151  -21.4522   22.4605 H   0  0  0  0  0  0
  -27.4898  -22.1961   23.9866 H   0  0  0  0  0  0
  -28.2644  -20.7400   23.4255 H   0  0  0  0  0  0
  -32.6278  -23.0097   19.7687 H   0  0  0  0  0  0
  -32.3231  -21.4709   20.4732 H   0  0  0  0  0  0
  -33.1311  -22.7261   21.4320 H   0  0  0  0  0  0
  -31.3533  -22.3406   24.4525 H   0  0  0  0  0  0
  -31.5882  -20.6836   24.8949 H   0  0  0  0  0  0
  -29.9633  -21.3419   24.8203 H   0  0  0  0  0  0
  -29.7868  -26.9330   21.4825 H   0  0  0  0  0  0
  -28.2431  -26.5586   22.0975 H   0  0  0  0  0  0
  -31.9021  -20.9300   22.5305 H   0  0  0  0  0  0
  -29.1280  -15.1540   21.6287 H   0  0  0  0  0  0
  -29.4147  -19.5732   22.9794 H   0  0  0  0  0  0
  1 25  1  0  0  0
  1 30  2  0  0  0
  1 89  1  0  0  0
  2  3  1  0  0  0
  2 25  1  0  0  0
  2 91  1  0  0  0
  2 92  1  0  0  0
  3  4  1  0  0  0
  3 93  1  0  0  0
  3 94  1  0  0  0
  4  5  1  0  0  0
  4 95  1  0  0  0
  4 96  1  0  0  0
  5  6  1  0  0  0
  5 26  1  0  0  0
  5 97  1  0  0  0
  6 25  1  0  0  0
  6 98  1  0  0  0
  6 99  1  0  0  0
  7  8  2  0  0  0
  7 26  1  0  0  0
  7 29  1  0  0  0
  8  9  1  0  0  0
  8 22  1  0  0  0
  9 10  1  0  0  0
  9 27  2  0  0  0
 10 11  2  0  0  0
 10 15  1  0  0  0
 11 12  1  0  0  0
 11100  1  0  0  0
 12 13  2  0  0  0
 12101  1  0  0  0
 13 14  1  0  0  0
 13 31  1  0  0  0
 14 15  2  0  0  0
 14102  1  0  0  0
 15103  1  0  0  0
 16 17  2  0  0  0
 16 21  1  0  0  0
 16 31  1  0  0  0
 17 18  1  0  0  0
 17104  1  0  0  0
 18 19  2  0  0  0
 18105  1  0  0  0
 19 20  1  0  0  0
 19 24  1  0  0  0
 20 21  2  0  0  0
 20106  1  0  0  0
 21 23  1  0  0  0
 22 28  1  0  0  0
 22 32  2  0  0  0
 26 27  1  0  0  0
 28107  1  0  0  0
 28108  1  0  0  0
 29109  1  0  0  0
 29110  1  0  0  0
 33 34  1  0  0  0
 33 66  1  0  0  0
 33 70  2  0  0  0
 34 36  1  0  0  0
 34 59  1  0  0  0
 34111  1  0  0  0
 35 44  2  0  0  0
 35 45  1  0  0  0
 35 68  1  0  0  0
 36 56  1  0  0  0
 36112  1  0  0  0
 37 39  1  0  0  0
 37 47  1  0  0  0
 37 66  1  0  0  0
 37113  1  0  0  0
 38 43  2  0  0  0
 38 46  1  0  0  0
 38 47  1  0  0  0
 39 64  1  0  0  0
 39 67  2  0  0  0
 40 52  1  0  0  0
 40 53  2  0  0  0
 40 58  1  0  0  0
 41114  1  0  0  0
 41115  1  0  0  0
 41116  1  0  0  0
 41 48  1  0  0  0
 42 43  1  0  0  0
 42 66  1  0  0  0
 42117  1  0  0  0
 42118  1  0  0  0
 43 44  1  0  0  0
 44119  1  0  0  0
 45 46  2  0  0  0
 45120  1  0  0  0
 46121  1  0  0  0
 47122  1  0  0  0
 47123  1  0  0  0
 48 56  1  0  0  0
 48 65  1  0  0  0
 48124  1  0  0  0
 49 50  1  0  0  0
 49 53  1  0  0  0
 49 64  1  0  0  0
 49125  1  0  0  0
 50 51  1  0  0  0
 50126  1  0  0  0
 50127  1  0  0  0
 51 52  1  0  0  0
 51128  1  0  0  0
 51129  1  0  0  0
 52130  1  0  0  0
 52131  1  0  0  0
 53 54  1  0  0  0
 54 55  2  0  0  0
 54132  1  0  0  0
 55 57  1  0  0  0
 55133  1  0  0  0
 56 69  2  0  0  0
 57 58  2  0  0  0
 57134  1  0  0  0
 58135  1  0  0  0
 59 60  1  0  0  0
 59 61  1  0  0  0
 59 62  1  0  0  0
 60136  1  0  0  0
 60137  1  0  0  0
 60138  1  0  0  0
 61139  1  0  0  0
 61140  1  0  0  0
 61141  1  0  0  0
 62142  1  0  0  0
 62143  1  0  0  0
 62144  1  0  0  0
 63 65  1  0  0  0
 63145  1  0  0  0
 63146  1  0  0  0
 63147  1  0  0  0
 64148  1  0  0  0
 65149  1  0  0  0
 68 87  1  0  0  0
 71 73  2  0  0  0
 71 75  1  0  0  0
 71 82  1  0  0  0
 72 74  1  0  0  0
 72 75  2  0  0  0
 72 83  1  0  0  0
 73 76  1  0  0  0
 73 84  1  0  0  0
 74 76  2  0  0  0
 74 85  1  0  0  0
 75 87  1  0  0  0
 76 88  1  0  0  0
 77 79  1  0  0  0
 77 81  1  0  0  0
 77150  1  0  0  0
 77151  1  0  0  0
 78 80  1  0  0  0
 78 81  1  0  0  0
 78152  1  0  0  0
 78153  1  0  0  0
 79154  1  0  0  0
 79155  1  0  0  0
 79 90  1  0  0  0
 80 90  1  0  0  0
 80156  1  0  0  0
 80157  1  0  0  0
 81 89  1  0  0  0
 81158  1  0  0  0
 82159  1  0  0  0
 82160  1  0  0  0
 82161  1  0  0  0
 83162  1  0  0  0
 83163  1  0  0  0
 83164  1  0  0  0
 84165  1  0  0  0
 84166  1  0  0  0
 84167  1  0  0  0
 85168  1  0  0  0
 85169  1  0  0  0
 85170  1  0  0  0
 86171  1  0  0  0
 86172  1  0  0  0
 86173  1  0  0  0
 86 88  1  0  0  0
 87174  1  0  0  0
 87175  1  0  0  0
 88 90  1  0  0  0
 88176  1  0  0  0
 89177  1  0  0  0
 90178  1  0  0  0
M  CHG  1  90   1
M  ISO  4   1 100  68 101  87 101  89 100
M  END
> <chiral flag>
0

> <version>
0

> <s_m_source_file>
/data/baiqing/PycharmProjects/Reinvent-master-3.2/result/LINK_invent/BTK/process_docking_weight1_custom_sum_contain_oxygen_bond_distance_aromatic_linkinvent_7_9_3/rearranged_h_0158.sdf

> <i_m_source_file_index>
88

> <r_mmod_Potential_Energy-OPLS-2005>
-55.4340744018555

> <r_mmod_Stretch_Energy-OPLS-2005>
51.1626892089844

> <r_mmod_Bend_Energy-OPLS-2005>
112.440483093262

> <r_mmod_Torsional_Energy-OPLS-2005>
275.917572021484

> <r_mmod_Improper_Torsional_Energy-OPLS-2005>
3.47227215766907

> <r_mmod_Van_der_Waal_Energy-OPLS-2005>
181.829315185547

> <r_mmod_Electrostatic_Energy-OPLS-2005>
-264.895385742188

> <r_mmod_Solvation_Energy-OPLS-2005>
-425.109771728516

> <b_mmod_Minimization_Converged-OPLS-2005>
0

> <r_mmod_RMS_Derivative-OPLS-2005>
3.0009343624115

$$$$
88
                    3D
 Structure written by MMmdl.
176185  0  0  1  0            999 V2000
  -30.7331  -14.6031   20.5488 C   0  0  0  0  0  0
  -30.4077  -12.3864   19.4689 C   0  0  0  0  0  0
  -29.4953  -12.4963   18.2319 C   0  0  0  0  0  0
  -28.0253  -12.3133   18.6466 C   0  0  0  0  0  0
  -27.6426  -13.2083   19.8509 C   0  0  2  0  0  0
  -28.6863  -13.1251   20.9944 C   0  0  0  0  0  0
  -25.2524  -13.8155   20.5668 C   0  0  0  0  0  0
  -24.1802  -13.0429   20.9197 C   0  0  0  0  0  0
  -24.6363  -11.6898   20.8753 C   0  0  0  0  0  0
  -23.9034  -10.4285   21.0418 C   0  0  0  0  0  0
  -24.3593   -9.4200   21.9188 C   0  0  0  0  0  0
  -23.6271   -8.2239   22.0756 C   0  0  0  0  0  0
  -22.4254   -8.0280   21.3550 C   0  0  0  0  0  0
  -21.9888   -9.0250   20.4647 C   0  0  0  0  0  0
  -22.7215  -10.2128   20.3053 C   0  0  0  0  0  0
  -21.6846   -6.0732   22.5280 C   0  0  0  0  0  0
  -21.4019   -6.5639   23.8213 C   0  0  0  0  0  0
  -21.3655   -5.6794   24.9177 C   0  0  0  0  0  0
  -21.6039   -4.3058   24.7227 C   0  0  0  0  0  0
  -21.8816   -3.8149   23.4348 C   0  0  0  0  0  0
  -21.9189   -4.6959   22.3399 C   0  0  0  0  0  0
  -22.7829  -13.5224   21.1873 C   0  0  0  0  0  0
  -22.1661   -4.2145   21.0977 F   0  0  0  0  0  0
  -21.5618   -3.4537   25.7740 F   0  0  0  0  0  0
  -30.0055  -13.4415   20.4304 N   0  0  0  0  0  0
  -26.2924  -12.9313   20.3269 N   0  0  0  0  0  0
  -25.9284  -11.6483   20.5768 N   0  0  0  0  0  0
  -22.0476  -12.8215   22.0427 N   0  0  0  0  0  0
  -25.4222  -15.1873   20.4048 N   0  0  0  0  0  0
  -31.8741  -14.6503   20.0803 O   0  0  0  0  0  0
  -21.6629   -6.8873   21.4243 O   0  0  0  0  0  0
  -22.3517  -14.5530   20.6719 O   0  0  0  0  0  0
  -24.6250  -31.8641   23.2116 C   0  0  0  0  0  0
  -25.9119  -32.4794   23.8412 C   0  0  1  0  0  0
  -27.2102  -27.3331   20.0984 C   0  0  0  0  0  0
  -25.5955  -33.8595   24.2325 N   0  0  0  0  0  0
  -23.4156  -30.4945   21.5545 C   0  0  2  0  0  0
  -24.8591  -28.9690   20.1087 C   0  0  0  0  0  0
  -22.7471  -29.4647   22.4961 C   0  0  0  0  0  0
  -18.0285  -28.1382   22.8493 C   0  0  0  0  0  0
  -24.1488  -36.7293   23.2627 C   0  0  0  0  0  0
  -25.9602  -30.7935   21.3899 C   0  0  0  0  0  0
  -26.0283  -29.4256   20.7290 C   0  0  0  0  0  0
  -27.2012  -28.6125   20.7334 C   0  0  0  0  0  0
  -26.0229  -26.9658   19.4086 C   0  0  0  0  0  0
  -24.8580  -27.7411   19.4435 C   0  0  0  0  0  0
  -23.6280  -29.8449   20.1648 C   0  0  0  0  0  0
  -25.4106  -36.3085   24.0332 C   0  0  1  0  0  0
  -20.5884  -28.3683   23.1290 C   0  0  2  0  0  0
  -20.6771  -26.9412   22.5408 C   0  0  0  0  0  0
  -19.5744  -26.6384   21.5214 C   0  0  0  0  0  0
  -18.1922  -26.7931   22.1621 C   0  0  0  0  0  0
  -19.1538  -28.8850   23.2882 C   0  0  0  0  0  0
  -18.9460  -30.1457   23.8891 C   0  0  0  0  0  0
  -17.6458  -30.6585   24.0565 C   0  0  0  0  0  0
  -25.9056  -34.9455   23.5121 C   0  0  0  0  0  0
  -16.5352  -29.9083   23.6337 C   0  0  0  0  0  0
  -16.7273  -28.6502   23.0359 C   0  0  0  0  0  0
  -26.4511  -31.6588   25.0767 C   0  0  0  0  0  0
  -25.3749  -31.3713   26.1492 C   0  0  0  0  0  0
  -27.0361  -30.3009   24.6225 C   0  0  0  0  0  0
  -27.6074  -32.4322   25.7528 C   0  0  0  0  0  0
  -27.5601  -37.1771   24.8439 C   0  0  0  0  0  0
  -21.4187  -29.3042   22.3693 N   0  0  0  0  0  0
  -26.4268  -37.3798   23.9449 N   0  0  0  0  0  0
  -24.6850  -31.0668   22.1075 N   0  0  0  0  0  0
  -23.4206  -28.8168   23.3014 O   0  0  0  0  0  0
  -28.3085  -26.4542   20.1874 O   0  0  0  0  0  0
  -26.5608  -34.8914   22.4676 O   0  0  0  0  0  0
  -23.5420  -32.1453   23.7444 O   0  0  0  0  0  0
  -28.8867  -21.2957   19.7004 C   0  0  0  0  0  0
  -29.9152  -22.2416   21.6458 C   0  0  0  0  0  0
  -28.4765  -22.5897   19.2792 C   0  0  0  0  0  0
  -29.5667  -23.5686   21.2325 C   0  0  0  0  0  0
  -28.7969  -23.7680   20.0435 C   0  0  0  0  0  0
  -29.5924  -21.0814   20.8987 C   0  0  0  0  0  0
  -31.4622  -17.9089   20.9021 C   0  0  0  0  0  0
  -29.0299  -17.7115   20.2034 C   0  0  0  0  0  0
  -31.1906  -16.6906   21.8312 C   0  0  0  0  0  0
  -28.9625  -16.4180   21.0871 C   0  0  0  0  0  0
  -30.2038  -18.7053   20.4687 C   0  0  0  0  0  0
  -26.3001  -21.8830   18.1673 C   0  0  0  0  0  0
  -28.4213  -22.1143   16.7810 C   0  0  0  0  0  0
  -31.3796  -24.5752   22.7552 C   0  0  0  0  0  0
  -28.9308  -25.1077   23.1388 C   0  0  0  0  0  0
  -28.1481  -25.1225   19.5762 C   0  0  0  0  0  0
  -27.6314  -22.6324   17.9936 C   0  0  0  0  0  0
  -30.0006  -24.7576   22.0946 C   0  0  0  0  0  0
  -30.2583  -15.7133   21.2231 N   0  0  0  0  0  0
  -29.9349  -19.8083   21.3826 O   0  0  0  0  0  0
  -31.4539  -12.4548   19.1668 H   0  0  0  0  0  0
  -30.3055  -11.4024   19.9300 H   0  0  0  0  0  0
  -29.7694  -11.7434   17.4918 H   0  0  0  0  0  0
  -29.6305  -13.4670   17.7524 H   0  0  0  0  0  0
  -27.8835  -11.2632   18.9056 H   0  0  0  0  0  0
  -27.3644  -12.5112   17.8020 H   0  0  0  0  0  0
  -27.6370  -14.2138   19.4395 H   0  0  0  0  0  0
  -28.6983  -12.1242   21.4279 H   0  0  0  0  0  0
  -28.4291  -13.7956   21.8146 H   0  0  0  0  0  0
  -25.2741   -9.5667   22.4756 H   0  0  0  0  0  0
  -23.9974   -7.4627   22.7474 H   0  0  0  0  0  0
  -21.0820   -8.8769   19.8955 H   0  0  0  0  0  0
  -22.3687  -10.9661   19.6152 H   0  0  0  0  0  0
  -21.2029   -7.6151   23.9714 H   0  0  0  0  0  0
  -21.1480   -6.0532   25.9075 H   0  0  0  0  0  0
  -22.0598   -2.7609   23.2857 H   0  0  0  0  0  0
  -22.4093  -11.9853   22.4779 H   0  0  0  0  0  0
  -21.1102  -13.1249   22.2668 H   0  0  0  0  0  0
  -24.6546  -15.8411   20.5118 H   0  0  0  0  0  0
  -26.2672  -15.6247   20.0621 H   0  0  0  0  0  0
  -26.7188  -32.5468   23.1161 H   0  0  0  0  0  0
  -25.0128  -33.9752   25.0487 H   0  0  0  0  0  0
  -22.7077  -31.3151   21.4201 H   0  0  0  0  0  0
  -23.3781  -35.9586   23.3199 H   0  0  0  0  0  0
  -24.3608  -36.9011   22.2065 H   0  0  0  0  0  0
  -23.7190  -37.6444   23.6709 H   0  0  0  0  0  0
  -26.0980  -31.5586   20.6246 H   0  0  0  0  0  0
  -26.8392  -30.8349   22.0209 H   0  0  0  0  0  0
  -28.0876  -28.9481   21.2533 H   0  0  0  0  0  0
  -25.9250  -26.0721   18.8149 H   0  0  0  0  0  0
  -23.9711  -27.3978   18.9287 H   0  0  0  0  0  0
  -23.7445  -30.6276   19.4142 H   0  0  0  0  0  0
  -22.7485  -29.2751   19.8600 H   0  0  0  0  0  0
  -25.1266  -36.1926   25.0819 H   0  0  0  0  0  0
  -20.9966  -28.3253   24.1412 H   0  0  0  0  0  0
  -20.5683  -26.2292   23.3603 H   0  0  0  0  0  0
  -21.6640  -26.7445   22.1202 H   0  0  0  0  0  0
  -19.6901  -25.6295   21.1242 H   0  0  0  0  0  0
  -19.6675  -27.3194   20.6745 H   0  0  0  0  0  0
  -17.4194  -26.6699   21.4015 H   0  0  0  0  0  0
  -18.0304  -26.0064   22.9005 H   0  0  0  0  0  0
  -19.7933  -30.7287   24.2251 H   0  0  0  0  0  0
  -17.5010  -31.6259   24.5171 H   0  0  0  0  0  0
  -15.5353  -30.2984   23.7656 H   0  0  0  0  0  0
  -15.8672  -28.0818   22.7078 H   0  0  0  0  0  0
  -24.5947  -30.7026   25.7834 H   0  0  0  0  0  0
  -24.8905  -32.2866   26.4905 H   0  0  0  0  0  0
  -25.8087  -30.8921   27.0278 H   0  0  0  0  0  0
  -26.2944  -29.6754   24.1243 H   0  0  0  0  0  0
  -27.4050  -29.7268   25.4737 H   0  0  0  0  0  0
  -27.8821  -30.4290   23.9467 H   0  0  0  0  0  0
  -27.2699  -33.3639   26.2081 H   0  0  0  0  0  0
  -28.3895  -32.6855   25.0358 H   0  0  0  0  0  0
  -28.0730  -31.8463   26.5465 H   0  0  0  0  0  0
  -28.2502  -38.0184   24.7669 H   0  0  0  0  0  0
  -28.1216  -36.2731   24.6022 H   0  0  0  0  0  0
  -27.2352  -37.1125   25.8839 H   0  0  0  0  0  0
  -20.9360  -29.8798   21.6936 H   0  0  0  0  0  0
  -26.0140  -38.2840   24.1566 H   0  0  0  0  0  0
  -28.6011  -20.4410   19.1064 H   0  0  0  0  0  0
  -30.4496  -22.0909   22.5714 H   0  0  0  0  0  0
  -31.9586  -17.5382   20.0039 H   0  0  0  0  0  0
  -32.1790  -18.5853   21.3685 H   0  0  0  0  0  0
  -28.0796  -18.2447   20.2504 H   0  0  0  0  0  0
  -29.1172  -17.3811   19.1671 H   0  0  0  0  0  0
  -30.7800  -17.0415   22.7795 H   0  0  0  0  0  0
  -32.1354  -16.2111   22.0944 H   0  0  0  0  0  0
  -28.1927  -15.7732   20.6914 H   0  0  0  0  0  0
  -28.6115  -16.6858   22.0847 H   0  0  0  0  0  0
  -30.4656  -19.1606   19.5121 H   0  0  0  0  0  0
  -25.7295  -22.2916   19.0025 H   0  0  0  0  0  0
  -26.4440  -20.8189   18.3527 H   0  0  0  0  0  0
  -25.6802  -21.9770   17.2750 H   0  0  0  0  0  0
  -29.3280  -22.7011   16.6293 H   0  0  0  0  0  0
  -27.8283  -22.1912   15.8693 H   0  0  0  0  0  0
  -28.7162  -21.0707   16.8904 H   0  0  0  0  0  0
  -32.1371  -24.3095   22.0169 H   0  0  0  0  0  0
  -31.3762  -23.8084   23.5297 H   0  0  0  0  0  0
  -31.7022  -25.5015   23.2310 H   0  0  0  0  0  0
  -27.9797  -25.3494   22.6639 H   0  0  0  0  0  0
  -29.2282  -25.9729   23.7323 H   0  0  0  0  0  0
  -28.7589  -24.2763   23.8235 H   0  0  0  0  0  0
  -27.1214  -24.7957   19.7057 H   0  0  0  0  0  0
  -28.3594  -25.2725   18.5176 H   0  0  0  0  0  0
  -27.3432  -23.6439   17.7287 H   0  0  0  0  0  0
  -30.1319  -25.6121   21.4339 H   0  0  0  0  0  0
  1 25  1  0  0  0
  1 30  2  0  0  0
  1 89  1  0  0  0
  2  3  1  0  0  0
  2 25  1  0  0  0
  2 91  1  0  0  0
  2 92  1  0  0  0
  3  4  1  0  0  0
  3 93  1  0  0  0
  3 94  1  0  0  0
  4  5  1  0  0  0
  4 95  1  0  0  0
  4 96  1  0  0  0
  5  6  1  0  0  0
  5 26  1  0  0  0
  5 97  1  0  0  0
  6 25  1  0  0  0
  6 98  1  0  0  0
  6 99  1  0  0  0
  7  8  2  0  0  0
  7 26  1  0  0  0
  7 29  1  0  0  0
  8  9  1  0  0  0
  8 22  1  0  0  0
  9 10  1  0  0  0
  9 27  2  0  0  0
 10 11  2  0  0  0
 10 15  1  0  0  0
 11 12  1  0  0  0
 11100  1  0  0  0
 12 13  2  0  0  0
 12101  1  0  0  0
 13 14  1  0  0  0
 13 31  1  0  0  0
 14 15  2  0  0  0
 14102  1  0  0  0
 15103  1  0  0  0
 16 17  2  0  0  0
 16 21  1  0  0  0
 16 31  1  0  0  0
 17 18  1  0  0  0
 17104  1  0  0  0
 18 19  2  0  0  0
 18105  1  0  0  0
 19 20  1  0  0  0
 19 24  1  0  0  0
 20 21  2  0  0  0
 20106  1  0  0  0
 21 23  1  0  0  0
 22 28  1  0  0  0
 22 32  2  0  0  0
 26 27  1  0  0  0
 28107  1  0  0  0
 28108  1  0  0  0
 29109  1  0  0  0
 29110  1  0  0  0
 33 34  1  0  0  0
 33 66  1  0  0  0
 33 70  2  0  0  0
 34 36  1  0  0  0
 34 59  1  0  0  0
 34111  1  0  0  0
 35 44  2  0  0  0
 35 45  1  0  0  0
 35 68  1  0  0  0
 36 56  1  0  0  0
 36112  1  0  0  0
 37 39  1  0  0  0
 37 47  1  0  0  0
 37 66  1  0  0  0
 37113  1  0  0  0
 38 43  2  0  0  0
 38 46  1  0  0  0
 38 47  1  0  0  0
 39 64  1  0  0  0
 39 67  2  0  0  0
 40 52  1  0  0  0
 40 53  2  0  0  0
 40 58  1  0  0  0
 41114  1  0  0  0
 41115  1  0  0  0
 41116  1  0  0  0
 41 48  1  0  0  0
 42 43  1  0  0  0
 42 66  1  0  0  0
 42117  1  0  0  0
 42118  1  0  0  0
 43 44  1  0  0  0
 44119  1  0  0  0
 45 46  2  0  0  0
 45120  1  0  0  0
 46121  1  0  0  0
 47122  1  0  0  0
 47123  1  0  0  0
 48 56  1  0  0  0
 48 65  1  0  0  0
 48124  1  0  0  0
 49 50  1  0  0  0
 49 53  1  0  0  0
 49 64  1  0  0  0
 49125  1  0  0  0
 50 51  1  0  0  0
 50126  1  0  0  0
 50127  1  0  0  0
 51 52  1  0  0  0
 51128  1  0  0  0
 51129  1  0  0  0
 52130  1  0  0  0
 52131  1  0  0  0
 53 54  1  0  0  0
 54 55  2  0  0  0
 54132  1  0  0  0
 55 57  1  0  0  0
 55133  1  0  0  0
 56 69  2  0  0  0
 57 58  2  0  0  0
 57134  1  0  0  0
 58135  1  0  0  0
 59 60  1  0  0  0
 59 61  1  0  0  0
 59 62  1  0  0  0
 60136  1  0  0  0
 60137  1  0  0  0
 60138  1  0  0  0
 61139  1  0  0  0
 61140  1  0  0  0
 61141  1  0  0  0
 62142  1  0  0  0
 62143  1  0  0  0
 62144  1  0  0  0
 63 65  1  0  0  0
 63145  1  0  0  0
 63146  1  0  0  0
 63147  1  0  0  0
 64148  1  0  0  0
 65149  1  0  0  0
 68 86  1  0  0  0
 71 73  2  0  0  0
 71 76  1  0  0  0
 71150  1  0  0  0
 72 74  1  0  0  0
 72 76  2  0  0  0
 72151  1  0  0  0
 73 75  1  0  0  0
 73 87  1  0  0  0
 74 75  2  0  0  0
 74 88  1  0  0  0
 75 86  1  0  0  0
 76 90  1  0  0  0
 77 79  1  0  0  0
 77 81  1  0  0  0
 77152  1  0  0  0
 77153  1  0  0  0
 78 80  1  0  0  0
 78 81  1  0  0  0
 78154  1  0  0  0
 78155  1  0  0  0
 79 89  1  0  0  0
 79156  1  0  0  0
 79157  1  0  0  0
 80 89  1  0  0  0
 80158  1  0  0  0
 80159  1  0  0  0
 81 90  1  0  0  0
 81160  1  0  0  0
 82161  1  0  0  0
 82162  1  0  0  0
 82163  1  0  0  0
 82 87  1  0  0  0
 83 87  1  0  0  0
 83164  1  0  0  0
 83165  1  0  0  0
 83166  1  0  0  0
 84167  1  0  0  0
 84168  1  0  0  0
 84169  1  0  0  0
 84 88  1  0  0  0
 85 88  1  0  0  0
 85170  1  0  0  0
 85171  1  0  0  0
 85172  1  0  0  0
 86173  1  0  0  0
 86174  1  0  0  0
 87175  1  0  0  0
 88176  1  0  0  0
M  ISO  4   1 100  68 101  86 101  89 100
M  END
> <chiral flag>
0

> <version>
0

> <s_m_source_file>
/data/baiqing/PycharmProjects/Reinvent-master-3.2/result/LINK_invent/BTK/process_docking_weight1_custom_sum_contain_oxygen_bond_distance_aromatic_linkinvent_7_9_3/rearranged_h_0158.sdf

> <i_m_source_file_index>
89

> <r_mmod_Potential_Energy-OPLS-2005>
329.8212890625

> <r_mmod_Stretch_Energy-OPLS-2005>
78.3852462768555

> <r_mmod_Bend_Energy-OPLS-2005>
196.829925537109

> <r_mmod_Torsional_Energy-OPLS-2005>
321.309265136719

> <r_mmod_Improper_Torsional_Energy-OPLS-2005>
3.84249663352966

> <r_mmod_Van_der_Waal_Energy-OPLS-2005>
176.881225585938

> <r_mmod_Electrostatic_Energy-OPLS-2005>
-304.395324707031

> <r_mmod_Solvation_Energy-OPLS-2005>
-191.940139770508

> <b_mmod_Minimization_Converged-OPLS-2005>
0

> <r_mmod_RMS_Derivative-OPLS-2005>
1.05503833293915

$$$$
89
                    3D
 Structure written by MMmdl.
171181  0  0  1  0            999 V2000
  -29.8644  -15.8277   20.3159 C   0  0  0  0  0  0
  -30.3246  -13.2493   19.5642 C   0  0  0  0  0  0
  -29.5206  -12.6946   18.3506 C   0  0  0  0  0  0
  -28.1077  -12.2741   18.7816 C   0  0  0  0  0  0
  -27.5258  -13.2865   19.7917 C   0  0  2  0  0  0
  -28.4759  -13.6488   20.9369 C   0  0  0  0  0  0
  -25.1969  -13.8137   20.5703 C   0  0  0  0  0  0
  -24.1442  -13.0313   20.9326 C   0  0  0  0  0  0
  -24.6172  -11.6840   20.8802 C   0  0  0  0  0  0
  -23.8956  -10.4214   21.0446 C   0  0  0  0  0  0
  -24.3559   -9.4149   21.9203 C   0  0  0  0  0  0
  -23.6259   -8.2176   22.0753 C   0  0  0  0  0  0
  -22.4241   -8.0219   21.3542 C   0  0  0  0  0  0
  -21.9858   -9.0176   20.4641 C   0  0  0  0  0  0
  -22.7160  -10.2060   20.3066 C   0  0  0  0  0  0
  -21.6829   -6.0707   22.5286 C   0  0  0  0  0  0
  -21.3994   -6.5621   23.8216 C   0  0  0  0  0  0
  -21.3656   -5.6779   24.9182 C   0  0  0  0  0  0
  -21.6045   -4.3042   24.7234 C   0  0  0  0  0  0
  -21.8821   -3.8130   23.4357 C   0  0  0  0  0  0
  -21.9186   -4.6941   22.3411 C   0  0  0  0  0  0
  -22.7511  -13.5096   21.1996 C   0  0  0  0  0  0
  -22.1659   -4.2133   21.0988 F   0  0  0  0  0  0
  -21.5634   -3.4529   25.7748 F   0  0  0  0  0  0
  -29.5463  -14.3893   20.2723 N   0  0  0  0  0  0
  -26.2267  -12.9397   20.2988 N   0  0  0  0  0  0
  -25.9050  -11.6515   20.5615 N   0  0  0  0  0  0
  -22.0199  -12.8094   22.0575 N   0  0  0  0  0  0
  -25.3558  -15.1852   20.4111 N   0  0  0  0  0  0
  -31.1197  -15.8248   20.1704 O   0  0  0  0  0  0
  -21.6605   -6.8828   21.4241 O   0  0  0  0  0  0
  -22.3224  -14.5411   20.6834 O   0  0  0  0  0  0
  -24.5658  -31.7137   23.0316 C   0  0  0  0  0  0
  -25.8531  -32.3944   23.6836 C   0  0  1  0  0  0
  -28.0345  -27.5476   20.0122 C   0  0  0  0  0  0
  -25.5201  -33.7844   24.0880 N   0  0  0  0  0  0
  -23.3089  -29.6863   21.8964 C   0  0  2  0  0  0
  -25.6574  -27.9439   19.8950 C   0  0  0  0  0  0
  -22.5092  -29.3781   23.0121 C   0  0  0  0  0  0
  -17.9298  -28.1320   22.8550 C   0  0  0  0  0  0
  -24.1456  -36.7042   23.2712 C   0  0  0  0  0  0
  -25.7912  -30.7500   20.8434 C   0  0  0  0  0  0
  -26.4119  -29.3286   20.0125 C   0  0  0  0  0  0
  -27.7195  -28.9025   20.3253 C   0  0  0  0  0  0
  -27.3265  -26.8651   19.0368 C   0  0  0  0  0  0
  -26.1116  -27.3307   18.7454 C   0  0  0  0  0  0
  -23.5954  -27.8087   21.2901 C   0  0  0  0  0  0
  -25.4146  -36.2643   24.0198 C   0  0  1  0  0  0
  -20.4186  -28.2633   23.3236 C   0  0  2  0  0  0
  -20.5133  -26.8492   22.7073 C   0  0  0  0  0  0
  -19.5160  -26.6339   21.5719 C   0  0  0  0  0  0
  -18.1035  -26.8008   22.1366 C   0  0  0  0  0  0
  -19.0357  -28.8444   23.3666 C   0  0  0  0  0  0
  -18.8622  -30.1190   23.9454 C   0  0  0  0  0  0
  -17.5775  -30.6685   24.0603 C   0  0  0  0  0  0
  -25.9039  -34.9064   23.4607 C   0  0  0  0  0  0
  -16.4664  -29.9355   23.6079 C   0  0  0  0  0  0
  -16.6422  -28.6753   23.0054 C   0  0  0  0  0  0
  -26.4254  -31.6574   24.9842 C   0  0  0  0  0  0
  -25.3596  -31.3899   26.0765 C   0  0  0  0  0  0
  -27.0588  -30.3043   24.6180 C   0  0  0  0  0  0
  -27.5614  -32.4813   25.6498 C   0  0  0  0  0  0
  -27.5524  -37.1587   24.8459 C   0  0  0  0  0  0
  -21.2569  -29.1988   22.6530 N   0  0  0  0  0  0
  -26.4238  -37.3466   23.9391 N   0  0  0  0  0  0
  -24.5455  -30.8197   21.9370 N   0  0  0  0  0  0
  -23.0576  -28.9185   23.9976 O   0  0  0  0  0  0
  -28.4541  -26.6680   20.9205 O   0  0  0  0  0  0
  -26.6111  -34.8844   22.4520 O   0  0  0  0  0  0
  -23.5146  -32.0232   23.6112 O   0  0  0  0  0  0
  -25.0163  -23.1633   19.1938 C   0  0  0  0  0  0
  -24.2597  -24.4733   18.9964 C   0  0  0  0  0  0
  -26.0576  -24.0303   20.9497 C   0  0  0  0  0  0
  -26.0533  -22.6863   20.1530 C   0  0  0  0  0  0
  -24.2685  -25.7913   19.6919 C   0  0  0  0  0  0
  -25.3314  -25.4588   20.8501 C   0  0  0  0  0  0
  -28.5743  -20.3493   20.2674 C   0  0  0  0  0  0
  -26.6811  -19.3523   20.7141 C   0  0  0  0  0  0
  -29.3448  -18.7456   19.9625 C   0  0  0  0  0  0
  -27.4438  -17.7311   20.4400 C   0  0  0  0  0  0
  -25.5007  -28.5475   22.0450 C   0  0  0  0  0  0
  -26.9651  -20.9363   20.0730 C   0  0  0  0  0  0
  -25.9511  -26.6988   21.9860 C   0  0  2  0  0  0
  -23.5047  -27.5536   18.9738 C   0  0  0  0  0  0
  -21.9471  -27.3597   18.8366 C   0  0  0  0  0  0
  -23.7102  -27.9085   17.4462 C   0  0  0  0  0  0
  -27.5589  -26.6064   22.0934 C   0  0  0  0  0  0
  -28.9746  -17.2019   20.3225 N   0  0  0  0  0  0
  -24.0716  -29.2395   19.8968 O   0  0  0  0  0  0
  -31.2863  -13.6101   19.1974 H   0  0  0  0  0  0
  -30.5777  -12.4491   20.2615 H   0  0  0  0  0  0
  -30.0459  -11.8592   17.8863 H   0  0  0  0  0  0
  -29.4454  -13.4722   17.5893 H   0  0  0  0  0  0
  -28.1748  -11.2929   19.2529 H   0  0  0  0  0  0
  -27.4538  -12.1600   17.9159 H   0  0  0  0  0  0
  -27.3688  -14.1877   19.1956 H   0  0  0  0  0  0
  -28.8104  -12.7743   21.4965 H   0  0  0  0  0  0
  -27.9861  -14.3105   21.6539 H   0  0  0  0  0  0
  -25.2698   -9.5645   22.4782 H   0  0  0  0  0  0
  -23.9974   -7.4561   22.7462 H   0  0  0  0  0  0
  -21.0794   -8.8678   19.8946 H   0  0  0  0  0  0
  -22.3611  -10.9601   19.6182 H   0  0  0  0  0  0
  -21.1974   -7.6128   23.9716 H   0  0  0  0  0  0
  -21.1483   -6.0510   25.9085 H   0  0  0  0  0  0
  -22.0607   -2.7594   23.2860 H   0  0  0  0  0  0
  -22.3831  -11.9763   22.4957 H   0  0  0  0  0  0
  -21.0819  -13.1117   22.2801 H   0  0  0  0  0  0
  -24.5834  -15.8314   20.5295 H   0  0  0  0  0  0
  -26.1915  -15.6234   20.0507 H   0  0  0  0  0  0
  -26.6529  -32.4393   22.9496 H   0  0  0  0  0  0
  -24.8841  -33.8750   24.8665 H   0  0  0  0  0  0
  -22.6311  -30.2225   21.2182 H   0  0  0  0  0  0
  -23.3721  -35.9364   23.3261 H   0  0  0  0  0  0
  -24.3460  -36.8898   22.2149 H   0  0  0  0  0  0
  -23.7244  -37.6148   23.6977 H   0  0  0  0  0  0
  -25.4981  -31.4358   20.0477 H   0  0  0  0  0  0
  -26.6713  -31.2216   21.2707 H   0  0  0  0  0  0
  -28.3212  -29.4715   21.0200 H   0  0  0  0  0  0
  -27.6326  -25.8916   18.6785 H   0  0  0  0  0  0
  -25.6439  -26.6461   18.0572 H   0  0  0  0  0  0
  -22.6163  -27.4782   21.0344 H   0  0  0  0  0  0
  -23.6356  -27.1191   22.1396 H   0  0  0  0  0  0
  -25.1442  -36.1234   25.0687 H   0  0  0  0  0  0
  -20.7202  -28.1780   24.3708 H   0  0  0  0  0  0
  -20.2284  -26.1488   23.4942 H   0  0  0  0  0  0
  -21.5181  -26.5279   22.4703 H   0  0  0  0  0  0
  -19.6338  -25.6431   21.1321 H   0  0  0  0  0  0
  -19.6805  -27.3645   20.7802 H   0  0  0  0  0  0
  -17.3740  -26.7221   21.3292 H   0  0  0  0  0  0
  -17.8768  -25.9957   22.8373 H   0  0  0  0  0  0
  -19.7132  -30.6696   24.3234 H   0  0  0  0  0  0
  -17.4407  -31.6415   24.5116 H   0  0  0  0  0  0
  -15.4724  -30.3495   23.7085 H   0  0  0  0  0  0
  -15.7787  -28.1366   22.6392 H   0  0  0  0  0  0
  -24.5719  -30.7212   25.7283 H   0  0  0  0  0  0
  -24.8812  -32.3124   26.4062 H   0  0  0  0  0  0
  -25.8008  -30.9230   26.9582 H   0  0  0  0  0  0
  -26.2985  -29.5431   24.4833 H   0  0  0  0  0  0
  -27.6953  -29.9281   25.4203 H   0  0  0  0  0  0
  -27.6815  -30.3704   23.7252 H   0  0  0  0  0  0
  -27.2036  -33.4299   26.0517 H   0  0  0  0  0  0
  -28.3532  -32.7097   24.9351 H   0  0  0  0  0  0
  -28.0199  -31.9479   26.4839 H   0  0  0  0  0  0
  -28.2506  -37.9912   24.7487 H   0  0  0  0  0  0
  -28.1044  -36.2424   24.6312 H   0  0  0  0  0  0
  -27.2230  -37.1249   25.8857 H   0  0  0  0  0  0
  -20.9413  -29.5513   21.7610 H   0  0  0  0  0  0
  -26.0018  -38.2487   24.1414 H   0  0  0  0  0  0
  -24.7647  -22.4210   18.4489 H   0  0  0  0  0  0
  -23.6166  -24.4673   18.1283 H   0  0  0  0  0  0
  -26.7657  -23.9787   21.7626 H   0  0  0  0  0  0
  -29.1817  -21.0456   19.6876 H   0  0  0  0  0  0
  -28.8397  -20.5930   21.2979 H   0  0  0  0  0  0
  -26.7238  -19.4882   21.7962 H   0  0  0  0  0  0
  -25.6197  -19.1780   20.5347 H   0  0  0  0  0  0
  -30.3674  -18.8519   20.3255 H   0  0  0  0  0  0
  -29.4629  -18.7077   18.8789 H   0  0  0  0  0  0
  -26.9899  -17.3668   19.5185 H   0  0  0  0  0  0
  -27.0243  -17.0990   21.2218 H   0  0  0  0  0  0
  -26.3960  -29.0780   22.3671 H   0  0  0  0  0  0
  -25.0664  -28.5824   23.0337 H   0  0  0  0  0  0
  -26.7959  -20.7820   19.0068 H   0  0  0  0  0  0
  -25.6077  -26.3255   22.9518 H   0  0  0  0  0  0
  -21.6771  -26.7962   17.9409 H   0  0  0  0  0  0
  -21.4224  -28.3150   18.7908 H   0  0  0  0  0  0
  -21.4873  -26.7493   19.6076 H   0  0  0  0  0  0
  -23.6410  -27.0232   16.8122 H   0  0  0  0  0  0
  -24.6395  -28.4176   17.2003 H   0  0  0  0  0  0
  -22.9678  -28.6238   17.0868 H   0  0  0  0  0  0
  -27.8137  -25.6754   22.5967 H   0  0  0  0  0  0
  -27.8975  -27.3704   22.7940 H   0  0  0  0  0  0
  1 25  1  0  0  0
  1 30  2  0  0  0
  1 88  1  0  0  0
  2  3  1  0  0  0
  2 25  1  0  0  0
  2 90  1  0  0  0
  2 91  1  0  0  0
  3  4  1  0  0  0
  3 92  1  0  0  0
  3 93  1  0  0  0
  4  5  1  0  0  0
  4 94  1  0  0  0
  4 95  1  0  0  0
  5  6  1  0  0  0
  5 26  1  0  0  0
  5 96  1  0  0  0
  6 25  1  0  0  0
  6 97  1  0  0  0
  6 98  1  0  0  0
  7  8  2  0  0  0
  7 26  1  0  0  0
  7 29  1  0  0  0
  8  9  1  0  0  0
  8 22  1  0  0  0
  9 10  1  0  0  0
  9 27  2  0  0  0
 10 11  2  0  0  0
 10 15  1  0  0  0
 11 12  1  0  0  0
 11 99  1  0  0  0
 12 13  2  0  0  0
 12100  1  0  0  0
 13 14  1  0  0  0
 13 31  1  0  0  0
 14 15  2  0  0  0
 14101  1  0  0  0
 15102  1  0  0  0
 16 17  2  0  0  0
 16 21  1  0  0  0
 16 31  1  0  0  0
 17 18  1  0  0  0
 17103  1  0  0  0
 18 19  2  0  0  0
 18104  1  0  0  0
 19 20  1  0  0  0
 19 24  1  0  0  0
 20 21  2  0  0  0
 20105  1  0  0  0
 21 23  1  0  0  0
 22 28  1  0  0  0
 22 32  2  0  0  0
 26 27  1  0  0  0
 28106  1  0  0  0
 28107  1  0  0  0
 29108  1  0  0  0
 29109  1  0  0  0
 33 34  1  0  0  0
 33 66  1  0  0  0
 33 70  2  0  0  0
 34 36  1  0  0  0
 34 59  1  0  0  0
 34110  1  0  0  0
 35 44  2  0  0  0
 35 45  1  0  0  0
 35 68  1  0  0  0
 36 56  1  0  0  0
 36111  1  0  0  0
 37 39  1  0  0  0
 37 47  1  0  0  0
 37 66  1  0  0  0
 37112  1  0  0  0
 38 43  2  0  0  0
 38 46  1  0  0  0
 38 47  1  0  0  0
 39 64  1  0  0  0
 39 67  2  0  0  0
 40 52  1  0  0  0
 40 53  2  0  0  0
 40 58  1  0  0  0
 41113  1  0  0  0
 41114  1  0  0  0
 41115  1  0  0  0
 41 48  1  0  0  0
 42 43  1  0  0  0
 42 66  1  0  0  0
 42116  1  0  0  0
 42117  1  0  0  0
 43 44  1  0  0  0
 44118  1  0  0  0
 45 46  2  0  0  0
 45119  1  0  0  0
 46120  1  0  0  0
 47121  1  0  0  0
 47122  1  0  0  0
 48 56  1  0  0  0
 48 65  1  0  0  0
 48123  1  0  0  0
 49 50  1  0  0  0
 49 53  1  0  0  0
 49 64  1  0  0  0
 49124  1  0  0  0
 50 51  1  0  0  0
 50125  1  0  0  0
 50126  1  0  0  0
 51 52  1  0  0  0
 51127  1  0  0  0
 51128  1  0  0  0
 52129  1  0  0  0
 52130  1  0  0  0
 53 54  1  0  0  0
 54 55  2  0  0  0
 54131  1  0  0  0
 55 57  1  0  0  0
 55132  1  0  0  0
 56 69  2  0  0  0
 57 58  2  0  0  0
 57133  1  0  0  0
 58134  1  0  0  0
 59 60  1  0  0  0
 59 61  1  0  0  0
 59 62  1  0  0  0
 60135  1  0  0  0
 60136  1  0  0  0
 60137  1  0  0  0
 61138  1  0  0  0
 61139  1  0  0  0
 61140  1  0  0  0
 62141  1  0  0  0
 62142  1  0  0  0
 62143  1  0  0  0
 63 65  1  0  0  0
 63144  1  0  0  0
 63145  1  0  0  0
 63146  1  0  0  0
 64147  1  0  0  0
 65148  1  0  0  0
 68 87  1  0  0  0
 71 72  2  0  0  0
 71 74  1  0  0  0
 71149  1  0  0  0
 72 75  1  0  0  0
 72150  1  0  0  0
 73 74  2  0  0  0
 73 76  1  0  0  0
 73151  1  0  0  0
 74 82  1  0  0  0
 75 76  2  0  0  0
 75 84  1  0  0  0
 76 83  1  0  0  0
 77 79  1  0  0  0
 77 82  1  0  0  0
 77152  1  0  0  0
 77153  1  0  0  0
 78 80  1  0  0  0
 78 82  1  0  0  0
 78154  1  0  0  0
 78155  1  0  0  0
 79 88  1  0  0  0
 79156  1  0  0  0
 79157  1  0  0  0
 80 88  1  0  0  0
 80158  1  0  0  0
 80159  1  0  0  0
 81 83  1  0  0  0
 81 89  1  0  0  0
 81160  1  0  0  0
 81161  1  0  0  0
 82162  1  0  0  0
 83 87  1  0  0  0
 83163  1  0  0  0
 84 85  1  0  0  0
 84 86  1  0  0  0
 84 89  1  0  0  0
 85164  1  0  0  0
 85165  1  0  0  0
 85166  1  0  0  0
 86167  1  0  0  0
 86168  1  0  0  0
 86169  1  0  0  0
 87170  1  0  0  0
 87171  1  0  0  0
M  ISO  4   1 100  68 101  87 101  88 100
M  END
> <chiral flag>
0

> <version>
0

> <s_m_source_file>
/data/baiqing/PycharmProjects/Reinvent-master-3.2/result/LINK_invent/BTK/process_docking_weight1_custom_sum_contain_oxygen_bond_distance_aromatic_linkinvent_7_9_3/rearranged_h_0158.sdf

> <i_m_source_file_index>
90

> <r_mmod_Potential_Energy-OPLS-2005>
12905.1142578125

> <r_mmod_Stretch_Energy-OPLS-2005>
6317.02490234375

> <r_mmod_Bend_Energy-OPLS-2005>
1325.44213867188

> <r_mmod_Torsional_Energy-OPLS-2005>
638.838195800781

> <r_mmod_Improper_Torsional_Energy-OPLS-2005>
59.7675552368164

> <r_mmod_Van_der_Waal_Energy-OPLS-2005>
2625.2255859375

> <r_mmod_Electrostatic_Energy-OPLS-2005>
-308.79248046875

> <r_mmod_Solvation_Energy-OPLS-2005>
-207.882217407227

> <b_mmod_Minimization_Converged-OPLS-2005>
0

> <r_mmod_RMS_Derivative-OPLS-2005>
2.14315509796143

$$$$
90
                    3D
 Structure written by MMmdl.
169178  0  0  1  0            999 V2000
  -30.6940  -14.5131   20.5035 C   0  0  0  0  0  0
  -30.4153  -12.3115   19.4346 C   0  0  0  0  0  0
  -29.4925  -12.4851   18.2102 C   0  0  0  0  0  0
  -28.0139  -12.3537   18.6248 C   0  0  0  0  0  0
  -27.6539  -13.2135   19.8668 C   0  0  2  0  0  0
  -28.6997  -13.0399   20.9914 C   0  0  0  0  0  0
  -25.2559  -13.8181   20.5705 C   0  0  0  0  0  0
  -24.1821  -13.0442   20.9192 C   0  0  0  0  0  0
  -24.6393  -11.6914   20.8749 C   0  0  0  0  0  0
  -23.9069  -10.4292   21.0416 C   0  0  0  0  0  0
  -24.3622   -9.4204   21.9191 C   0  0  0  0  0  0
  -23.6294   -8.2244   22.0762 C   0  0  0  0  0  0
  -22.4276   -8.0286   21.3552 C   0  0  0  0  0  0
  -21.9912   -9.0257   20.4653 C   0  0  0  0  0  0
  -22.7245  -10.2132   20.3064 C   0  0  0  0  0  0
  -21.6849   -6.0743   22.5282 C   0  0  0  0  0  0
  -21.4013   -6.5646   23.8217 C   0  0  0  0  0  0
  -21.3655   -5.6799   24.9177 C   0  0  0  0  0  0
  -21.6039   -4.3063   24.7229 C   0  0  0  0  0  0
  -21.8816   -3.8154   23.4351 C   0  0  0  0  0  0
  -21.9189   -4.6971   22.3407 C   0  0  0  0  0  0
  -22.7836  -13.5226   21.1850 C   0  0  0  0  0  0
  -22.1658   -4.2155   21.0986 F   0  0  0  0  0  0
  -21.5629   -3.4546   25.7742 F   0  0  0  0  0  0
  -30.0208  -13.3318   20.4195 N   0  0  0  0  0  0
  -26.2996  -12.9360   20.3365 N   0  0  0  0  0  0
  -25.9321  -11.6516   20.5781 N   0  0  0  0  0  0
  -22.0491  -12.8209   22.0410 N   0  0  0  0  0  0
  -25.4268  -15.1903   20.4138 N   0  0  0  0  0  0
  -31.8795  -14.6066   20.1686 O   0  0  0  0  0  0
  -21.6635   -6.8888   21.4247 O   0  0  0  0  0  0
  -22.3502  -14.5522   20.6697 O   0  0  0  0  0  0
  -24.6178  -31.8675   23.2093 C   0  0  0  0  0  0
  -25.9067  -32.4817   23.8389 C   0  0  1  0  0  0
  -27.2244  -27.4058   20.0934 C   0  0  0  0  0  0
  -25.5914  -33.8615   24.2318 N   0  0  0  0  0  0
  -23.4053  -30.4936   21.5515 C   0  0  2  0  0  0
  -24.8479  -28.9599   20.1129 C   0  0  0  0  0  0
  -22.7422  -29.4668   22.4981 C   0  0  0  0  0  0
  -18.0278  -28.1381   22.8491 C   0  0  0  0  0  0
  -24.1489  -36.7311   23.2636 C   0  0  0  0  0  0
  -25.9386  -30.8240   21.3669 C   0  0  0  0  0  0
  -26.0126  -29.4583   20.7095 C   0  0  0  0  0  0
  -27.2037  -28.6906   20.6934 C   0  0  0  0  0  0
  -26.0350  -26.9338   19.4873 C   0  0  0  0  0  0
  -24.8560  -27.6987   19.4979 C   0  0  0  0  0  0
  -23.6131  -29.8314   20.1647 C   0  0  0  0  0  0
  -25.4112  -36.3108   24.0333 C   0  0  1  0  0  0
  -20.5869  -28.3678   23.1307 C   0  0  2  0  0  0
  -20.6771  -26.9412   22.5413 C   0  0  0  0  0  0
  -19.5748  -26.6388   21.5212 C   0  0  0  0  0  0
  -18.1926  -26.7927   22.1621 C   0  0  0  0  0  0
  -19.1527  -28.8845   23.2897 C   0  0  0  0  0  0
  -18.9454  -30.1449   23.8910 C   0  0  0  0  0  0
  -17.6456  -30.6588   24.0567 C   0  0  0  0  0  0
  -25.9047  -34.9473   23.5124 C   0  0  0  0  0  0
  -16.5348  -29.9090   23.6323 C   0  0  0  0  0  0
  -16.7267  -28.6506   23.0348 C   0  0  0  0  0  0
  -26.4483  -31.6598   25.0723 C   0  0  0  0  0  0
  -25.3741  -31.3709   26.1463 C   0  0  0  0  0  0
  -27.0314  -30.3035   24.6116 C   0  0  0  0  0  0
  -27.6052  -32.4322   25.7491 C   0  0  0  0  0  0
  -27.5586  -37.1811   24.8465 C   0  0  0  0  0  0
  -21.4149  -29.3043   22.3712 N   0  0  0  0  0  0
  -26.4299  -37.3793   23.9409 N   0  0  0  0  0  0
  -24.6724  -31.0759   22.1004 N   0  0  0  0  0  0
  -23.4187  -28.8206   23.3027 O   0  0  0  0  0  0
  -28.3838  -26.6438   20.1210 O   0  0  0  0  0  0
  -26.5605  -34.8927   22.4685 O   0  0  0  0  0  0
  -23.5367  -32.1441   23.7476 O   0  0  0  0  0  0
  -29.7969  -20.7341   21.5615 C   0  0  0  0  0  0
  -28.7785  -20.6880   19.3824 C   0  0  0  0  0  0
  -29.8511  -22.1493   21.5151 C   0  0  0  0  0  0
  -29.3762  -22.8666   20.3779 C   0  0  0  0  0  0
  -29.2780  -19.9650   20.4947 C   0  0  0  0  0  0
  -28.8387  -22.1100   19.2988 C   0  0  0  0  0  0
  -29.1551  -17.7531   19.3020 C   0  0  0  0  0  0
  -29.6642  -17.7997   21.7441 C   0  0  0  0  0  0
  -30.1076  -16.5405   19.3057 C   0  0  0  0  0  0
  -29.3652  -16.2726   21.6617 C   0  0  0  0  0  0
  -30.4642  -22.8634   22.7110 C   0  0  0  0  0  0
  -30.7073  -24.7841   19.3703 C   0  0  0  0  0  0
  -28.0225  -22.0764   17.0240 C   0  0  0  0  0  0
  -28.2512  -25.2185   19.9022 C   0  0  0  0  0  0
  -29.5295  -24.4176   20.2874 C   0  0  1  0  0  0
  -29.2687  -18.5366   20.5353 N   0  0  0  0  0  0
  -29.9131  -15.6271   20.4508 N   0  0  0  0  0  0
  -28.4090  -22.8021   18.1849 O   0  0  0  0  0  0
  -31.4610  -12.3963   19.1342 H   0  0  0  0  0  0
  -30.3068  -11.3129   19.8614 H   0  0  0  0  0  0
  -29.7321  -11.7427   17.4473 H   0  0  0  0  0  0
  -29.6606  -13.4604   17.7509 H   0  0  0  0  0  0
  -27.8263  -11.3011   18.8391 H   0  0  0  0  0  0
  -27.3633  -12.6122   17.7886 H   0  0  0  0  0  0
  -27.6803  -14.2533   19.5418 H   0  0  0  0  0  0
  -28.6802  -12.0212   21.3810 H   0  0  0  0  0  0
  -28.4746  -13.6871   21.8389 H   0  0  0  0  0  0
  -25.2776   -9.5671   22.4750 H   0  0  0  0  0  0
  -24.0002   -7.4630   22.7474 H   0  0  0  0  0  0
  -21.0847   -8.8781   19.8948 H   0  0  0  0  0  0
  -22.3721  -10.9669   19.6166 H   0  0  0  0  0  0
  -21.2008   -7.6152   23.9726 H   0  0  0  0  0  0
  -21.1478   -6.0532   25.9081 H   0  0  0  0  0  0
  -22.0596   -2.7616   23.2858 H   0  0  0  0  0  0
  -22.4125  -11.9870   22.4778 H   0  0  0  0  0  0
  -21.1112  -13.1227   22.2640 H   0  0  0  0  0  0
  -24.6627  -15.8469   20.5329 H   0  0  0  0  0  0
  -26.2891  -15.6330   20.1231 H   0  0  0  0  0  0
  -26.7133  -32.5517   23.1146 H   0  0  0  0  0  0
  -25.0071  -33.9777   25.0467 H   0  0  0  0  0  0
  -22.6953  -31.3119   21.4150 H   0  0  0  0  0  0
  -23.3752  -35.9643   23.3303 H   0  0  0  0  0  0
  -24.3578  -36.8926   22.2049 H   0  0  0  0  0  0
  -23.7242  -37.6516   23.6650 H   0  0  0  0  0  0
  -26.0586  -31.5911   20.6005 H   0  0  0  0  0  0
  -26.8240  -30.8717   21.9894 H   0  0  0  0  0  0
  -28.1017  -29.0714   21.1593 H   0  0  0  0  0  0
  -25.9888  -25.9720   18.9990 H   0  0  0  0  0  0
  -23.9608  -27.3108   19.0315 H   0  0  0  0  0  0
  -23.7255  -30.6094   19.4087 H   0  0  0  0  0  0
  -22.7343  -29.2572   19.8653 H   0  0  0  0  0  0
  -25.1290  -36.1970   25.0826 H   0  0  0  0  0  0
  -20.9962  -28.3246   24.1428 H   0  0  0  0  0  0
  -20.5681  -26.2286   23.3603 H   0  0  0  0  0  0
  -21.6642  -26.7459   22.1205 H   0  0  0  0  0  0
  -19.6916  -25.6302   21.1237 H   0  0  0  0  0  0
  -19.6687  -27.3202   20.6745 H   0  0  0  0  0  0
  -17.4199  -26.6679   21.4020 H   0  0  0  0  0  0
  -18.0327  -26.0065   22.9012 H   0  0  0  0  0  0
  -19.7929  -30.7261   24.2287 H   0  0  0  0  0  0
  -17.5013  -31.6267   24.5171 H   0  0  0  0  0  0
  -15.5350  -30.3003   23.7636 H   0  0  0  0  0  0
  -15.8664  -28.0831   22.7059 H   0  0  0  0  0  0
  -24.5915  -30.7059   25.7792 H   0  0  0  0  0  0
  -24.8934  -32.2868   26.4907 H   0  0  0  0  0  0
  -25.8087  -30.8874   27.0221 H   0  0  0  0  0  0
  -26.2862  -29.6797   24.1165 H   0  0  0  0  0  0
  -27.4068  -29.7269   25.4581 H   0  0  0  0  0  0
  -27.8706  -30.4339   23.9279 H   0  0  0  0  0  0
  -27.2663  -33.3609   26.2092 H   0  0  0  0  0  0
  -28.3849  -32.6905   25.0313 H   0  0  0  0  0  0
  -28.0737  -31.8436   26.5390 H   0  0  0  0  0  0
  -28.2605  -38.0106   24.7515 H   0  0  0  0  0  0
  -28.1079  -36.2639   24.6289 H   0  0  0  0  0  0
  -27.2303  -37.1460   25.8868 H   0  0  0  0  0  0
  -20.9310  -29.8768   21.6936 H   0  0  0  0  0  0
  -26.0188  -38.2872   24.1406 H   0  0  0  0  0  0
  -30.1879  -20.2400   22.4385 H   0  0  0  0  0  0
  -28.3400  -20.1329   18.5701 H   0  0  0  0  0  0
  -28.1215  -17.4255   19.1802 H   0  0  0  0  0  0
  -29.4033  -18.3489   18.4239 H   0  0  0  0  0  0
  -30.7318  -17.9504   21.9129 H   0  0  0  0  0  0
  -29.1474  -18.2142   22.6106 H   0  0  0  0  0  0
  -31.1381  -16.9022   19.2950 H   0  0  0  0  0  0
  -29.9723  -15.9806   18.3782 H   0  0  0  0  0  0
  -28.2858  -16.1144   21.6706 H   0  0  0  0  0  0
  -29.7464  -15.7858   22.5620 H   0  0  0  0  0  0
  -30.8559  -22.1596   23.4460 H   0  0  0  0  0  0
  -29.7181  -23.4801   23.2139 H   0  0  0  0  0  0
  -31.2950  -23.4983   22.4010 H   0  0  0  0  0  0
  -31.6276  -24.3040   19.7032 H   0  0  0  0  0  0
  -30.8817  -25.8601   19.3642 H   0  0  0  0  0  0
  -30.5226  -24.4734   18.3416 H   0  0  0  0  0  0
  -27.7734  -22.7777   16.2277 H   0  0  0  0  0  0
  -27.1381  -21.4652   17.2076 H   0  0  0  0  0  0
  -28.8328  -21.4429   16.6597 H   0  0  0  0  0  0
  -27.4224  -24.8383   20.5022 H   0  0  0  0  0  0
  -28.0033  -25.0571   18.8540 H   0  0  0  0  0  0
  -29.7807  -24.7966   21.2748 H   0  0  0  0  0  0
  1 25  1  0  0  0
  1 30  2  0  0  0
  1 87  1  0  0  0
  2  3  1  0  0  0
  2 25  1  0  0  0
  2 89  1  0  0  0
  2 90  1  0  0  0
  3  4  1  0  0  0
  3 91  1  0  0  0
  3 92  1  0  0  0
  4  5  1  0  0  0
  4 93  1  0  0  0
  4 94  1  0  0  0
  5  6  1  0  0  0
  5 26  1  0  0  0
  5 95  1  0  0  0
  6 25  1  0  0  0
  6 96  1  0  0  0
  6 97  1  0  0  0
  7  8  2  0  0  0
  7 26  1  0  0  0
  7 29  1  0  0  0
  8  9  1  0  0  0
  8 22  1  0  0  0
  9 10  1  0  0  0
  9 27  2  0  0  0
 10 11  2  0  0  0
 10 15  1  0  0  0
 11 12  1  0  0  0
 11 98  1  0  0  0
 12 13  2  0  0  0
 12 99  1  0  0  0
 13 14  1  0  0  0
 13 31  1  0  0  0
 14 15  2  0  0  0
 14100  1  0  0  0
 15101  1  0  0  0
 16 17  2  0  0  0
 16 21  1  0  0  0
 16 31  1  0  0  0
 17 18  1  0  0  0
 17102  1  0  0  0
 18 19  2  0  0  0
 18103  1  0  0  0
 19 20  1  0  0  0
 19 24  1  0  0  0
 20 21  2  0  0  0
 20104  1  0  0  0
 21 23  1  0  0  0
 22 28  1  0  0  0
 22 32  2  0  0  0
 26 27  1  0  0  0
 28105  1  0  0  0
 28106  1  0  0  0
 29107  1  0  0  0
 29108  1  0  0  0
 33 34  1  0  0  0
 33 66  1  0  0  0
 33 70  2  0  0  0
 34 36  1  0  0  0
 34 59  1  0  0  0
 34109  1  0  0  0
 35 44  2  0  0  0
 35 45  1  0  0  0
 35 68  1  0  0  0
 36 56  1  0  0  0
 36110  1  0  0  0
 37 39  1  0  0  0
 37 47  1  0  0  0
 37 66  1  0  0  0
 37111  1  0  0  0
 38 43  2  0  0  0
 38 46  1  0  0  0
 38 47  1  0  0  0
 39 64  1  0  0  0
 39 67  2  0  0  0
 40 52  1  0  0  0
 40 53  2  0  0  0
 40 58  1  0  0  0
 41112  1  0  0  0
 41113  1  0  0  0
 41114  1  0  0  0
 41 48  1  0  0  0
 42 43  1  0  0  0
 42 66  1  0  0  0
 42115  1  0  0  0
 42116  1  0  0  0
 43 44  1  0  0  0
 44117  1  0  0  0
 45 46  2  0  0  0
 45118  1  0  0  0
 46119  1  0  0  0
 47120  1  0  0  0
 47121  1  0  0  0
 48 56  1  0  0  0
 48 65  1  0  0  0
 48122  1  0  0  0
 49 50  1  0  0  0
 49 53  1  0  0  0
 49 64  1  0  0  0
 49123  1  0  0  0
 50 51  1  0  0  0
 50124  1  0  0  0
 50125  1  0  0  0
 51 52  1  0  0  0
 51126  1  0  0  0
 51127  1  0  0  0
 52128  1  0  0  0
 52129  1  0  0  0
 53 54  1  0  0  0
 54 55  2  0  0  0
 54130  1  0  0  0
 55 57  1  0  0  0
 55131  1  0  0  0
 56 69  2  0  0  0
 57 58  2  0  0  0
 57132  1  0  0  0
 58133  1  0  0  0
 59 60  1  0  0  0
 59 61  1  0  0  0
 59 62  1  0  0  0
 60134  1  0  0  0
 60135  1  0  0  0
 60136  1  0  0  0
 61137  1  0  0  0
 61138  1  0  0  0
 61139  1  0  0  0
 62140  1  0  0  0
 62141  1  0  0  0
 62142  1  0  0  0
 63 65  1  0  0  0
 63143  1  0  0  0
 63144  1  0  0  0
 63145  1  0  0  0
 64146  1  0  0  0
 65147  1  0  0  0
 68 84  1  0  0  0
 71 73  2  0  0  0
 71 75  1  0  0  0
 71148  1  0  0  0
 72 75  2  0  0  0
 72 76  1  0  0  0
 72149  1  0  0  0
 73 74  1  0  0  0
 73 81  1  0  0  0
 74 76  2  0  0  0
 74 85  1  0  0  0
 75 86  1  0  0  0
 76 88  1  0  0  0
 77 79  1  0  0  0
 77 86  1  0  0  0
 77150  1  0  0  0
 77151  1  0  0  0
 78 80  1  0  0  0
 78 86  1  0  0  0
 78152  1  0  0  0
 78153  1  0  0  0
 79 87  1  0  0  0
 79154  1  0  0  0
 79155  1  0  0  0
 80 87  1  0  0  0
 80156  1  0  0  0
 80157  1  0  0  0
 81158  1  0  0  0
 81159  1  0  0  0
 81160  1  0  0  0
 82161  1  0  0  0
 82162  1  0  0  0
 82163  1  0  0  0
 82 85  1  0  0  0
 83 88  1  0  0  0
 83164  1  0  0  0
 83165  1  0  0  0
 83166  1  0  0  0
 84 85  1  0  0  0
 84167  1  0  0  0
 84168  1  0  0  0
 85169  1  0  0  0
M  ISO  4   1 100  68 101  84 101  87 100
M  END
> <chiral flag>
0

> <version>
0

> <s_m_source_file>
/data/baiqing/PycharmProjects/Reinvent-master-3.2/result/LINK_invent/BTK/process_docking_weight1_custom_sum_contain_oxygen_bond_distance_aromatic_linkinvent_7_9_3/rearranged_h_0158.sdf

> <i_m_source_file_index>
91

> <r_mmod_Potential_Energy-OPLS-2005>
201.302307128906

> <r_mmod_Stretch_Energy-OPLS-2005>
52.0998115539551

> <r_mmod_Bend_Energy-OPLS-2005>
125.035316467285

> <r_mmod_Torsional_Energy-OPLS-2005>
343.910705566406

> <r_mmod_Improper_Torsional_Energy-OPLS-2005>
19.0123176574707

> <r_mmod_Van_der_Waal_Energy-OPLS-2005>
179.432418823242

> <r_mmod_Electrostatic_Energy-OPLS-2005>
-329.195037841797

> <r_mmod_Solvation_Energy-OPLS-2005>
-211.413208007812

> <b_mmod_Minimization_Converged-OPLS-2005>
0

> <r_mmod_RMS_Derivative-OPLS-2005>
0.943368136882782

$$$$
91
                    3D
 Structure written by MMmdl.
164173  0  0  1  0            999 V2000
  -30.6862  -14.7506   20.4734 C   0  0  0  0  0  0
  -30.4211  -12.4756   19.4669 C   0  0  0  0  0  0
  -29.4995  -12.5062   18.2308 C   0  0  0  0  0  0
  -28.0329  -12.3120   18.6573 C   0  0  0  0  0  0
  -27.6326  -13.2303   19.8419 C   0  0  2  0  0  0
  -28.6858  -13.2263   20.9746 C   0  0  0  0  0  0
  -25.2478  -13.8178   20.5717 C   0  0  0  0  0  0
  -24.1768  -13.0422   20.9224 C   0  0  0  0  0  0
  -24.6370  -11.6910   20.8771 C   0  0  0  0  0  0
  -23.9053  -10.4292   21.0412 C   0  0  0  0  0  0
  -24.3623   -9.4205   21.9182 C   0  0  0  0  0  0
  -23.6313   -8.2236   22.0752 C   0  0  0  0  0  0
  -22.4284   -8.0280   21.3556 C   0  0  0  0  0  0
  -21.9912   -9.0237   20.4642 C   0  0  0  0  0  0
  -22.7231  -10.2124   20.3055 C   0  0  0  0  0  0
  -21.6842   -6.0749   22.5288 C   0  0  0  0  0  0
  -21.3997   -6.5649   23.8227 C   0  0  0  0  0  0
  -21.3666   -5.6793   24.9184 C   0  0  0  0  0  0
  -21.6048   -4.3056   24.7218 C   0  0  0  0  0  0
  -21.8812   -3.8159   23.4336 C   0  0  0  0  0  0
  -21.9184   -4.6979   22.3397 C   0  0  0  0  0  0
  -22.7783  -13.5204   21.1884 C   0  0  0  0  0  0
  -22.1646   -4.2174   21.0974 F   0  0  0  0  0  0
  -21.5652   -3.4536   25.7727 F   0  0  0  0  0  0
  -29.9834  -13.5649   20.3742 N   0  0  0  0  0  0
  -26.2901  -12.9384   20.3307 N   0  0  0  0  0  0
  -25.9299  -11.6535   20.5781 N   0  0  0  0  0  0
  -22.0433  -12.8203   22.0440 N   0  0  0  0  0  0
  -25.4124  -15.1909   20.4139 N   0  0  0  0  0  0
  -31.8872  -14.7528   20.1902 O   0  0  0  0  0  0
  -21.6642   -6.8878   21.4248 O   0  0  0  0  0  0
  -22.3458  -14.5506   20.6723 O   0  0  0  0  0  0
  -24.6318  -31.8540   23.2002 C   0  0  0  0  0  0
  -25.9154  -32.4742   23.8328 C   0  0  1  0  0  0
  -27.2244  -27.2716   20.1112 C   0  0  0  0  0  0
  -25.5964  -33.8551   24.2264 N   0  0  0  0  0  0
  -23.4276  -30.4795   21.5434 C   0  0  2  0  0  0
  -24.8749  -28.9307   20.1078 C   0  0  0  0  0  0
  -22.7496  -29.4618   22.4916 C   0  0  0  0  0  0
  -18.0296  -28.1385   22.8467 C   0  0  0  0  0  0
  -24.1492  -36.7275   23.2630 C   0  0  0  0  0  0
  -25.9745  -30.7673   21.3807 C   0  0  0  0  0  0
  -26.0485  -29.3925   20.7197 C   0  0  0  0  0  0
  -27.2268  -28.5747   20.7146 C   0  0  0  0  0  0
  -26.0354  -26.8947   19.4468 C   0  0  0  0  0  0
  -24.8724  -27.6870   19.4611 C   0  0  0  0  0  0
  -23.6438  -29.8149   20.1594 C   0  0  0  0  0  0
  -25.4117  -36.3059   24.0324 C   0  0  1  0  0  0
  -20.5902  -28.3705   23.1254 C   0  0  2  0  0  0
  -20.6794  -26.9422   22.5404 C   0  0  0  0  0  0
  -19.5778  -26.6379   21.5207 C   0  0  0  0  0  0
  -18.1945  -26.7930   22.1598 C   0  0  0  0  0  0
  -19.1546  -28.8865   23.2854 C   0  0  0  0  0  0
  -18.9475  -30.1465   23.8876 C   0  0  0  0  0  0
  -17.6474  -30.6594   24.0565 C   0  0  0  0  0  0
  -25.9064  -34.9436   23.5089 C   0  0  0  0  0  0
  -16.5358  -29.9088   23.6343 C   0  0  0  0  0  0
  -16.7279  -28.6510   23.0350 C   0  0  0  0  0  0
  -26.4532  -31.6558   25.0712 C   0  0  0  0  0  0
  -25.3762  -31.3737   26.1444 C   0  0  0  0  0  0
  -27.0352  -30.2948   24.6217 C   0  0  0  0  0  0
  -27.6090  -32.4290   25.7483 C   0  0  0  0  0  0
  -27.5594  -37.1775   24.8455 C   0  0  0  0  0  0
  -21.4213  -29.3048   22.3646 N   0  0  0  0  0  0
  -26.4276  -37.3776   23.9431 N   0  0  0  0  0  0
  -24.6975  -31.0515   22.0978 N   0  0  0  0  0  0
  -23.4182  -28.8157   23.3028 O   0  0  0  0  0  0
  -28.2916  -26.3393   20.1484 O   0  0  0  0  0  0
  -26.5628  -34.8918   22.4652 O   0  0  0  0  0  0
  -23.5474  -32.1366   23.7304 O   0  0  0  0  0  0
  -29.7770  -21.6287   21.6284 C   0  0  0  0  0  0
  -28.7323  -21.2829   19.5161 C   0  0  0  0  0  0
  -29.3493  -20.6849   20.6514 C   0  0  0  0  0  0
  -29.4802  -23.0333   21.5535 C   0  0  0  0  0  0
  -28.7106  -23.5991   20.4901 C   0  0  0  0  0  0
  -28.4214  -22.6927   19.4209 C   0  0  0  0  0  0
  -28.9575  -18.1400   19.7622 C   0  0  0  0  0  0
  -30.7879  -18.4767   21.3116 C   0  0  0  0  0  0
  -28.9263  -16.5804   20.0833 C   0  0  0  0  0  0
  -30.7265  -16.9497   21.7330 C   0  0  0  0  0  0
  -29.4288  -19.0984   20.8971 C   0  0  0  0  0  0
  -29.9503  -23.9280   22.6857 C   0  0  0  0  0  0
  -27.7348  -22.4462   17.1310 C   0  0  0  0  0  0
  -27.9150  -24.9813   20.6694 C   0  0  0  0  0  0
  -30.0713  -15.9619   20.8156 N   0  0  0  0  0  0
  -27.7702  -23.2221   18.3261 O   0  0  0  0  0  0
  -31.4617  -12.5807   19.1560 H   0  0  0  0  0  0
  -30.3585  -11.5114   19.9739 H   0  0  0  0  0  0
  -29.7903  -11.7252   17.5267 H   0  0  0  0  0  0
  -29.6099  -13.4565   17.7056 H   0  0  0  0  0  0
  -27.9110  -11.2674   18.9466 H   0  0  0  0  0  0
  -27.3647  -12.4723   17.8104 H   0  0  0  0  0  0
  -27.5970  -14.2320   19.4233 H   0  0  0  0  0  0
  -28.7342  -12.2522   21.4637 H   0  0  0  0  0  0
  -28.4182  -13.9473   21.7483 H   0  0  0  0  0  0
  -25.2766   -9.5704   22.4756 H   0  0  0  0  0  0
  -24.0049   -7.4612   22.7453 H   0  0  0  0  0  0
  -21.0857   -8.8718   19.8931 H   0  0  0  0  0  0
  -22.3670  -10.9661   19.6172 H   0  0  0  0  0  0
  -21.1971   -7.6150   23.9739 H   0  0  0  0  0  0
  -21.1509   -6.0521   25.9095 H   0  0  0  0  0  0
  -22.0593   -2.7625   23.2813 H   0  0  0  0  0  0
  -22.4041  -11.9864   22.4837 H   0  0  0  0  0  0
  -21.1044  -13.1211   22.2641 H   0  0  0  0  0  0
  -24.6453  -15.8412   20.5380 H   0  0  0  0  0  0
  -26.2648  -15.6389   20.1049 H   0  0  0  0  0  0
  -26.7207  -32.5390   23.1056 H   0  0  0  0  0  0
  -25.0157  -33.9683   25.0441 H   0  0  0  0  0  0
  -22.7270  -31.3045   21.3995 H   0  0  0  0  0  0
  -23.3769  -35.9587   23.3229 H   0  0  0  0  0  0
  -24.3609  -36.8959   22.2061 H   0  0  0  0  0  0
  -23.7214  -37.6444   23.6691 H   0  0  0  0  0  0
  -26.1172  -31.5307   20.6143 H   0  0  0  0  0  0
  -26.8504  -30.8085   22.0162 H   0  0  0  0  0  0
  -28.1229  -28.9218   21.2098 H   0  0  0  0  0  0
  -25.9882  -25.9581   18.9090 H   0  0  0  0  0  0
  -23.9792  -27.3352   18.9612 H   0  0  0  0  0  0
  -23.7624  -30.5917   19.4036 H   0  0  0  0  0  0
  -22.7617  -29.2463   19.8579 H   0  0  0  0  0  0
  -25.1300  -36.1881   25.0814 H   0  0  0  0  0  0
  -20.9998  -28.3275   24.1373 H   0  0  0  0  0  0
  -20.5675  -26.2332   23.3615 H   0  0  0  0  0  0
  -21.6664  -26.7434   22.1208 H   0  0  0  0  0  0
  -19.6951  -25.6281   21.1262 H   0  0  0  0  0  0
  -19.6736  -27.3173   20.6727 H   0  0  0  0  0  0
  -17.4234  -26.6679   21.3978 H   0  0  0  0  0  0
  -18.0324  -26.0061   22.8983 H   0  0  0  0  0  0
  -19.7960  -30.7284   24.2212 H   0  0  0  0  0  0
  -17.5043  -31.6280   24.5157 H   0  0  0  0  0  0
  -15.5365  -30.2995   23.7702 H   0  0  0  0  0  0
  -15.8668  -28.0846   22.7063 H   0  0  0  0  0  0
  -24.5940  -30.7075   25.7799 H   0  0  0  0  0  0
  -24.8969  -32.2922   26.4837 H   0  0  0  0  0  0
  -25.8084  -30.8949   27.0240 H   0  0  0  0  0  0
  -26.2928  -29.6686   24.1256 H   0  0  0  0  0  0
  -27.4017  -29.7225   25.4752 H   0  0  0  0  0  0
  -27.8829  -30.4176   23.9471 H   0  0  0  0  0  0
  -27.2708  -33.3612   26.2022 H   0  0  0  0  0  0
  -28.3931  -32.6796   25.0326 H   0  0  0  0  0  0
  -28.0718  -31.8429   26.5436 H   0  0  0  0  0  0
  -28.2552  -38.0127   24.7565 H   0  0  0  0  0  0
  -28.1142  -36.2666   24.6171 H   0  0  0  0  0  0
  -27.2338  -37.1284   25.8857 H   0  0  0  0  0  0
  -20.9395  -29.8772   21.6853 H   0  0  0  0  0  0
  -26.0142  -38.2828   24.1482 H   0  0  0  0  0  0
  -30.2891  -21.2592   22.5061 H   0  0  0  0  0  0
  -28.4251  -20.6154   18.7276 H   0  0  0  0  0  0
  -27.9529  -18.4326   19.4555 H   0  0  0  0  0  0
  -29.5922  -18.3085   18.8901 H   0  0  0  0  0  0
  -31.5039  -18.6040   20.4984 H   0  0  0  0  0  0
  -31.1965  -19.0398   22.1513 H   0  0  0  0  0  0
  -28.8002  -16.0624   19.1319 H   0  0  0  0  0  0
  -28.0336  -16.3660   20.6679 H   0  0  0  0  0  0
  -30.1816  -16.8817   22.6760 H   0  0  0  0  0  0
  -31.7386  -16.6218   21.9752 H   0  0  0  0  0  0
  -28.7482  -18.9398   21.7363 H   0  0  0  0  0  0
  -30.8140  -23.5019   23.1966 H   0  0  0  0  0  0
  -29.1556  -24.0727   23.4170 H   0  0  0  0  0  0
  -30.2490  -24.9043   22.2985 H   0  0  0  0  0  0
  -27.3671  -23.0585   16.3076 H   0  0  0  0  0  0
  -27.0639  -21.5915   17.2284 H   0  0  0  0  0  0
  -28.7271  -22.0867   16.8497 H   0  0  0  0  0  0
  -27.7982  -25.1311   21.7422 H   0  0  0  0  0  0
  -26.9065  -24.7153   20.3609 H   0  0  0  0  0  0
  1 25  1  0  0  0
  1 30  2  0  0  0
  1 85  1  0  0  0
  2  3  1  0  0  0
  2 25  1  0  0  0
  2 87  1  0  0  0
  2 88  1  0  0  0
  3  4  1  0  0  0
  3 89  1  0  0  0
  3 90  1  0  0  0
  4  5  1  0  0  0
  4 91  1  0  0  0
  4 92  1  0  0  0
  5  6  1  0  0  0
  5 26  1  0  0  0
  5 93  1  0  0  0
  6 25  1  0  0  0
  6 94  1  0  0  0
  6 95  1  0  0  0
  7  8  2  0  0  0
  7 26  1  0  0  0
  7 29  1  0  0  0
  8  9  1  0  0  0
  8 22  1  0  0  0
  9 10  1  0  0  0
  9 27  2  0  0  0
 10 11  2  0  0  0
 10 15  1  0  0  0
 11 12  1  0  0  0
 11 96  1  0  0  0
 12 13  2  0  0  0
 12 97  1  0  0  0
 13 14  1  0  0  0
 13 31  1  0  0  0
 14 15  2  0  0  0
 14 98  1  0  0  0
 15 99  1  0  0  0
 16 17  2  0  0  0
 16 21  1  0  0  0
 16 31  1  0  0  0
 17 18  1  0  0  0
 17100  1  0  0  0
 18 19  2  0  0  0
 18101  1  0  0  0
 19 20  1  0  0  0
 19 24  1  0  0  0
 20 21  2  0  0  0
 20102  1  0  0  0
 21 23  1  0  0  0
 22 28  1  0  0  0
 22 32  2  0  0  0
 26 27  1  0  0  0
 28103  1  0  0  0
 28104  1  0  0  0
 29105  1  0  0  0
 29106  1  0  0  0
 33 34  1  0  0  0
 33 66  1  0  0  0
 33 70  2  0  0  0
 34 36  1  0  0  0
 34 59  1  0  0  0
 34107  1  0  0  0
 35 44  2  0  0  0
 35 45  1  0  0  0
 35 68  1  0  0  0
 36 56  1  0  0  0
 36108  1  0  0  0
 37 39  1  0  0  0
 37 47  1  0  0  0
 37 66  1  0  0  0
 37109  1  0  0  0
 38 43  2  0  0  0
 38 46  1  0  0  0
 38 47  1  0  0  0
 39 64  1  0  0  0
 39 67  2  0  0  0
 40 52  1  0  0  0
 40 53  2  0  0  0
 40 58  1  0  0  0
 41110  1  0  0  0
 41111  1  0  0  0
 41112  1  0  0  0
 41 48  1  0  0  0
 42 43  1  0  0  0
 42 66  1  0  0  0
 42113  1  0  0  0
 42114  1  0  0  0
 43 44  1  0  0  0
 44115  1  0  0  0
 45 46  2  0  0  0
 45116  1  0  0  0
 46117  1  0  0  0
 47118  1  0  0  0
 47119  1  0  0  0
 48 56  1  0  0  0
 48 65  1  0  0  0
 48120  1  0  0  0
 49 50  1  0  0  0
 49 53  1  0  0  0
 49 64  1  0  0  0
 49121  1  0  0  0
 50 51  1  0  0  0
 50122  1  0  0  0
 50123  1  0  0  0
 51 52  1  0  0  0
 51124  1  0  0  0
 51125  1  0  0  0
 52126  1  0  0  0
 52127  1  0  0  0
 53 54  1  0  0  0
 54 55  2  0  0  0
 54128  1  0  0  0
 55 57  1  0  0  0
 55129  1  0  0  0
 56 69  2  0  0  0
 57 58  2  0  0  0
 57130  1  0  0  0
 58131  1  0  0  0
 59 60  1  0  0  0
 59 61  1  0  0  0
 59 62  1  0  0  0
 60132  1  0  0  0
 60133  1  0  0  0
 60134  1  0  0  0
 61135  1  0  0  0
 61136  1  0  0  0
 61137  1  0  0  0
 62138  1  0  0  0
 62139  1  0  0  0
 62140  1  0  0  0
 63 65  1  0  0  0
 63141  1  0  0  0
 63142  1  0  0  0
 63143  1  0  0  0
 64144  1  0  0  0
 65145  1  0  0  0
 68 84  1  0  0  0
 71 73  2  0  0  0
 71 74  1  0  0  0
 71146  1  0  0  0
 72 73  1  0  0  0
 72 76  2  0  0  0
 72147  1  0  0  0
 73 81  1  0  0  0
 74 75  2  0  0  0
 74 82  1  0  0  0
 75 76  1  0  0  0
 75 84  1  0  0  0
 76 86  1  0  0  0
 77 79  1  0  0  0
 77 81  1  0  0  0
 77148  1  0  0  0
 77149  1  0  0  0
 78 80  1  0  0  0
 78 81  1  0  0  0
 78150  1  0  0  0
 78151  1  0  0  0
 79 85  1  0  0  0
 79152  1  0  0  0
 79153  1  0  0  0
 80 85  1  0  0  0
 80154  1  0  0  0
 80155  1  0  0  0
 81156  1  0  0  0
 82157  1  0  0  0
 82158  1  0  0  0
 82159  1  0  0  0
 83 86  1  0  0  0
 83160  1  0  0  0
 83161  1  0  0  0
 83162  1  0  0  0
 84163  1  0  0  0
 84164  1  0  0  0
M  ISO  4   1 100  68 101  84 101  85 100
M  END
> <chiral flag>
0

> <version>
0

> <s_m_source_file>
/data/baiqing/PycharmProjects/Reinvent-master-3.2/result/LINK_invent/BTK/process_docking_weight1_custom_sum_contain_oxygen_bond_distance_aromatic_linkinvent_7_9_3/rearranged_h_0158.sdf

> <i_m_source_file_index>
92

> <r_mmod_Potential_Energy-OPLS-2005>
472.44970703125

> <r_mmod_Stretch_Energy-OPLS-2005>
118.89811706543

> <r_mmod_Bend_Energy-OPLS-2005>
196.918075561523

> <r_mmod_Torsional_Energy-OPLS-2005>
374.474060058594

> <r_mmod_Improper_Torsional_Energy-OPLS-2005>
5.88946676254272

> <r_mmod_Van_der_Waal_Energy-OPLS-2005>
149.205078125

> <r_mmod_Electrostatic_Energy-OPLS-2005>
-261.699005126953

> <r_mmod_Solvation_Energy-OPLS-2005>
-203.236038208008

> <b_mmod_Minimization_Converged-OPLS-2005>
0

> <r_mmod_RMS_Derivative-OPLS-2005>
2.42306017875671

$$$$
92
                    3D
 Structure written by MMmdl.
184194  0  0  1  0            999 V2000
  -30.7206  -14.4304   20.5890 C   0  0  0  0  0  0
  -30.4169  -12.2797   19.4315 C   0  0  0  0  0  0
  -29.4944  -12.4825   18.2112 C   0  0  0  0  0  0
  -28.0145  -12.3509   18.6195 C   0  0  0  0  0  0
  -27.6618  -13.1965   19.8705 C   0  0  2  0  0  0
  -28.6956  -12.9721   20.9932 C   0  0  0  0  0  0
  -25.2612  -13.8138   20.5667 C   0  0  0  0  0  0
  -24.1847  -13.0440   20.9140 C   0  0  0  0  0  0
  -24.6389  -11.6907   20.8717 C   0  0  0  0  0  0
  -23.9043  -10.4311   21.0416 C   0  0  0  0  0  0
  -24.3614   -9.4225   21.9190 C   0  0  0  0  0  0
  -23.6300   -8.2254   22.0759 C   0  0  0  0  0  0
  -22.4275   -8.0302   21.3563 C   0  0  0  0  0  0
  -21.9904   -9.0258   20.4646 C   0  0  0  0  0  0
  -22.7224  -10.2144   20.3055 C   0  0  0  0  0  0
  -21.6846   -6.0747   22.5281 C   0  0  0  0  0  0
  -21.4004   -6.5648   23.8211 C   0  0  0  0  0  0
  -21.3667   -5.6806   24.9180 C   0  0  0  0  0  0
  -21.6050   -4.3064   24.7228 C   0  0  0  0  0  0
  -21.8825   -3.8158   23.4348 C   0  0  0  0  0  0
  -21.9197   -4.6973   22.3402 C   0  0  0  0  0  0
  -22.7899  -13.5255   21.1852 C   0  0  0  0  0  0
  -22.1669   -4.2163   21.0982 F   0  0  0  0  0  0
  -21.5634   -3.4554   25.7742 F   0  0  0  0  0  0
  -30.0313  -13.2664   20.4489 N   0  0  0  0  0  0
  -26.3025  -12.9291   20.3338 N   0  0  0  0  0  0
  -25.9309  -11.6464   20.5760 N   0  0  0  0  0  0
  -22.0547  -12.8211   22.0387 N   0  0  0  0  0  0
  -25.4407  -15.1831   20.4172 N   0  0  0  0  0  0
  -31.8606  -14.5871   20.1346 O   0  0  0  0  0  0
  -21.6637   -6.8903   21.4257 O   0  0  0  0  0  0
  -22.3593  -14.5582   20.6756 O   0  0  0  0  0  0
  -24.6123  -31.8720   23.2147 C   0  0  0  0  0  0
  -25.9017  -32.4841   23.8435 C   0  0  1  0  0  0
  -27.2305  -27.4632   20.0635 C   0  0  0  0  0  0
  -25.5880  -33.8628   24.2358 N   0  0  0  0  0  0
  -23.3974  -30.4976   21.5575 C   0  0  2  0  0  0
  -24.8372  -28.9672   20.1175 C   0  0  0  0  0  0
  -22.7385  -29.4695   22.5055 C   0  0  0  0  0  0
  -18.0286  -28.1355   22.8521 C   0  0  0  0  0  0
  -24.1481  -36.7318   23.2644 C   0  0  0  0  0  0
  -25.9262  -30.8390   21.3687 C   0  0  0  0  0  0
  -25.9969  -29.4761   20.7138 C   0  0  0  0  0  0
  -27.1907  -28.7251   20.6939 C   0  0  0  0  0  0
  -26.0443  -26.9618   19.4725 C   0  0  0  0  0  0
  -24.8532  -27.7059   19.5013 C   0  0  0  0  0  0
  -23.6020  -29.8343   20.1698 C   0  0  0  0  0  0
  -25.4106  -36.3116   24.0343 C   0  0  1  0  0  0
  -20.5864  -28.3649   23.1373 C   0  0  2  0  0  0
  -20.6784  -26.9357   22.5495 C   0  0  0  0  0  0
  -19.5773  -26.6332   21.5269 C   0  0  0  0  0  0
  -18.1939  -26.7902   22.1651 C   0  0  0  0  0  0
  -19.1529  -28.8827   23.2939 C   0  0  0  0  0  0
  -18.9451  -30.1443   23.8932 C   0  0  0  0  0  0
  -17.6444  -30.6592   24.0542 C   0  0  0  0  0  0
  -25.9034  -34.9485   23.5157 C   0  0  0  0  0  0
  -16.5349  -29.9076   23.6303 C   0  0  0  0  0  0
  -16.7280  -28.6472   23.0362 C   0  0  0  0  0  0
  -26.4452  -31.6610   25.0753 C   0  0  0  0  0  0
  -25.3726  -31.3702   26.1507 C   0  0  0  0  0  0
  -27.0301  -30.3062   24.6120 C   0  0  0  0  0  0
  -27.6047  -32.4322   25.7490 C   0  0  0  0  0  0
  -27.5578  -37.1809   24.8462 C   0  0  0  0  0  0
  -21.4118  -29.3049   22.3794 N   0  0  0  0  0  0
  -26.4300  -37.3785   23.9401 N   0  0  0  0  0  0
  -24.6639  -31.0837   22.1051 N   0  0  0  0  0  0
  -23.4175  -28.8239   23.3073 O   0  0  0  0  0  0
  -28.4308  -26.7807   20.0561 O   0  0  0  0  0  0
  -26.5591  -34.8922   22.4705 O   0  0  0  0  0  0
  -23.5316  -32.1483   23.7520 O   0  0  0  0  0  0
  -27.8794  -17.4892   21.1919 C   0  0  0  0  0  0
  -26.6397  -18.2231   21.2986 C   0  0  0  0  0  0
  -28.3546  -16.7366   22.3039 C   0  0  0  0  0  0
  -25.8347  -17.9739   22.4614 C   0  0  0  0  0  0
  -26.3619  -17.2900   23.5828 C   0  0  0  0  0  0
  -27.6493  -16.7294   23.5194 C   0  0  0  0  0  0
  -28.7098  -17.3991   19.9042 C   0  0  0  0  0  0
  -29.6515  -15.9239   22.2290 C   0  0  0  0  0  0
  -25.7536  -20.6320   20.9902 C   0  0  0  0  0  0
  -26.8580  -19.6206   18.9671 C   0  0  0  0  0  0
  -30.0629  -16.6905   20.0148 C   0  0  0  0  0  0
  -25.9801  -21.8988   20.1457 C   0  0  0  0  0  0
  -27.9380  -20.7180   19.1580 C   0  0  0  0  0  0
  -26.0929  -19.2822   20.2745 C   0  0  1  0  0  0
  -24.3689  -18.4118   22.5518 C   0  0  0  0  0  0
  -25.5422  -17.1582   24.8660 C   0  0  0  0  0  0
  -28.8710  -17.0938   25.4636 C   0  0  0  0  0  0
  -27.7252  -23.2145   18.9493 C   0  0  0  0  0  0
  -28.5729  -25.6178   19.2376 C   0  0  0  0  0  0
  -28.0208  -24.3581   19.9405 C   0  0  1  0  0  0
  -29.9622  -15.5119   20.8649 N   0  0  0  0  0  0
  -27.3947  -21.9884   19.7114 N   0  3  1  0  0  0
  -28.9846  -23.8737   20.8677 O   0  0  0  0  0  0
  -28.2195  -16.1485   24.6208 O   0  0  0  0  0  0
  -31.4626  -12.3660   19.1307 H   0  0  0  0  0  0
  -30.3100  -11.2700   19.8341 H   0  0  0  0  0  0
  -29.7305  -11.7528   17.4351 H   0  0  0  0  0  0
  -29.6677  -13.4654   17.7718 H   0  0  0  0  0  0
  -27.8252  -11.2955   18.8237 H   0  0  0  0  0  0
  -27.3598  -12.6188   17.7900 H   0  0  0  0  0  0
  -27.7135  -14.2433   19.5703 H   0  0  0  0  0  0
  -28.6597  -11.9420   21.3477 H   0  0  0  0  0  0
  -28.4393  -13.5784   21.8575 H   0  0  0  0  0  0
  -25.2785   -9.5684   22.4737 H   0  0  0  0  0  0
  -24.0032   -7.4656   22.7459 H   0  0  0  0  0  0
  -21.0847   -8.8766   19.8947 H   0  0  0  0  0  0
  -22.3708  -10.9681   19.6136 H   0  0  0  0  0  0
  -21.1980   -7.6158   23.9725 H   0  0  0  0  0  0
  -21.1477   -6.0524   25.9080 H   0  0  0  0  0  0
  -22.0596   -2.7623   23.2836 H   0  0  0  0  0  0
  -22.4151  -11.9801   22.4655 H   0  0  0  0  0  0
  -21.1190  -13.1262   22.2635 H   0  0  0  0  0  0
  -24.7195  -15.8443   20.6792 H   0  0  0  0  0  0
  -26.3586  -15.6091   20.3824 H   0  0  0  0  0  0
  -26.7097  -32.5528   23.1212 H   0  0  0  0  0  0
  -24.9973  -33.9796   25.0465 H   0  0  0  0  0  0
  -22.6880  -31.3160   21.4214 H   0  0  0  0  0  0
  -23.3736  -35.9653   23.3317 H   0  0  0  0  0  0
  -24.3578  -36.8909   22.2058 H   0  0  0  0  0  0
  -23.7255  -37.6533   23.6645 H   0  0  0  0  0  0
  -26.0434  -31.6116   20.6069 H   0  0  0  0  0  0
  -26.8121  -30.8831   21.9892 H   0  0  0  0  0  0
  -28.0890  -29.1216   21.1469 H   0  0  0  0  0  0
  -26.0059  -26.0062   18.9734 H   0  0  0  0  0  0
  -23.9601  -27.3098   19.0382 H   0  0  0  0  0  0
  -23.7071  -30.6128   19.4127 H   0  0  0  0  0  0
  -22.7255  -29.2549   19.8747 H   0  0  0  0  0  0
  -25.1282  -36.1991   25.0839 H   0  0  0  0  0  0
  -20.9945  -28.3253   24.1508 H   0  0  0  0  0  0
  -21.6655  -26.7377   22.1298 H   0  0  0  0  0  0
  -20.5697  -26.2238   23.3682 H   0  0  0  0  0  0
  -19.6957  -25.6244   21.1319 H   0  0  0  0  0  0
  -19.6742  -27.3129   20.6782 H   0  0  0  0  0  0
  -17.4220  -26.6676   21.4035 H   0  0  0  0  0  0
  -18.0227  -26.0078   22.9074 H   0  0  0  0  0  0
  -19.7930  -30.7262   24.2308 H   0  0  0  0  0  0
  -17.4964  -31.6294   24.5093 H   0  0  0  0  0  0
  -15.5333  -30.2965   23.7564 H   0  0  0  0  0  0
  -15.8698  -28.0783   22.7047 H   0  0  0  0  0  0
  -24.5879  -30.7084   25.7836 H   0  0  0  0  0  0
  -24.8940  -32.2854   26.4993 H   0  0  0  0  0  0
  -25.8066  -30.8836   27.0249 H   0  0  0  0  0  0
  -26.2862  -29.6834   24.1150 H   0  0  0  0  0  0
  -27.4069  -29.7277   25.4567 H   0  0  0  0  0  0
  -27.8684  -30.4415   23.9282 H   0  0  0  0  0  0
  -27.2692  -33.3602   26.2116 H   0  0  0  0  0  0
  -28.3799  -32.6919   25.0277 H   0  0  0  0  0  0
  -28.0779  -31.8435   26.5349 H   0  0  0  0  0  0
  -28.2605  -38.0094   24.7489 H   0  0  0  0  0  0
  -28.1064  -36.2629   24.6311 H   0  0  0  0  0  0
  -27.2285  -37.1476   25.8860 H   0  0  0  0  0  0
  -20.9280  -29.8713   21.6972 H   0  0  0  0  0  0
  -26.0190  -38.2854   24.1401 H   0  0  0  0  0  0
  -28.9832  -18.3731   19.5310 H   0  0  0  0  0  0
  -28.1068  -16.8916   19.1490 H   0  0  0  0  0  0
  -30.4615  -16.5431   22.6172 H   0  0  0  0  0  0
  -29.6108  -15.0570   22.8903 H   0  0  0  0  0  0
  -24.7162  -20.6473   21.3149 H   0  0  0  0  0  0
  -26.3539  -20.7256   21.8970 H   0  0  0  0  0  0
  -27.2071  -18.7460   18.4293 H   0  0  0  0  0  0
  -26.1367  -20.0235   18.2553 H   0  0  0  0  0  0
  -30.8033  -17.3678   20.4428 H   0  0  0  0  0  0
  -30.4220  -16.4436   19.0114 H   0  0  0  0  0  0
  -25.7096  -22.7776   20.7322 H   0  0  0  0  0  0
  -25.3168  -21.8971   19.2795 H   0  0  0  0  0  0
  -28.4749  -20.8747   18.2217 H   0  0  0  0  0  0
  -28.6846  -20.3997   19.8840 H   0  0  0  0  0  0
  -25.1631  -18.8533   19.9028 H   0  0  0  0  0  0
  -23.8970  -18.5934   21.5903 H   0  0  0  0  0  0
  -24.2639  -19.3008   23.1752 H   0  0  0  0  0  0
  -23.7556  -17.6285   22.9946 H   0  0  0  0  0  0
  -24.6509  -16.5545   24.7004 H   0  0  0  0  0  0
  -25.2358  -18.1420   25.2230 H   0  0  0  0  0  0
  -26.0875  -16.6746   25.6745 H   0  0  0  0  0  0
  -29.1739  -18.0013   24.9375 H   0  0  0  0  0  0
  -29.7678  -16.6529   25.8949 H   0  0  0  0  0  0
  -28.2215  -17.3896   26.2851 H   0  0  0  0  0  0
  -28.6086  -23.0573   18.3286 H   0  0  0  0  0  0
  -26.9150  -23.4806   18.2673 H   0  0  0  0  0  0
  -28.0945  -25.7753   18.2710 H   0  0  0  0  0  0
  -29.6291  -25.4860   19.0043 H   0  0  0  0  0  0
  -27.1114  -24.6090   20.4876 H   0  0  0  0  0  0
  -27.9457  -22.1524   20.5476 H   0  0  0  0  0  0
  -29.2095  -24.5960   21.4495 H   0  0  0  0  0  0
  1 25  1  0  0  0
  1 30  2  0  0  0
  1 91  1  0  0  0
  2  3  1  0  0  0
  2 25  1  0  0  0
  2 95  1  0  0  0
  2 96  1  0  0  0
  3  4  1  0  0  0
  3 97  1  0  0  0
  3 98  1  0  0  0
  4  5  1  0  0  0
  4 99  1  0  0  0
  4100  1  0  0  0
  5  6  1  0  0  0
  5 26  1  0  0  0
  5101  1  0  0  0
  6 25  1  0  0  0
  6102  1  0  0  0
  6103  1  0  0  0
  7  8  2  0  0  0
  7 26  1  0  0  0
  7 29  1  0  0  0
  8  9  1  0  0  0
  8 22  1  0  0  0
  9 10  1  0  0  0
  9 27  2  0  0  0
 10 11  2  0  0  0
 10 15  1  0  0  0
 11 12  1  0  0  0
 11104  1  0  0  0
 12 13  2  0  0  0
 12105  1  0  0  0
 13 14  1  0  0  0
 13 31  1  0  0  0
 14 15  2  0  0  0
 14106  1  0  0  0
 15107  1  0  0  0
 16 17  2  0  0  0
 16 21  1  0  0  0
 16 31  1  0  0  0
 17 18  1  0  0  0
 17108  1  0  0  0
 18 19  2  0  0  0
 18109  1  0  0  0
 19 20  1  0  0  0
 19 24  1  0  0  0
 20 21  2  0  0  0
 20110  1  0  0  0
 21 23  1  0  0  0
 22 28  1  0  0  0
 22 32  2  0  0  0
 26 27  1  0  0  0
 28111  1  0  0  0
 28112  1  0  0  0
 29113  1  0  0  0
 29114  1  0  0  0
 33 34  1  0  0  0
 33 66  1  0  0  0
 33 70  2  0  0  0
 34 36  1  0  0  0
 34 59  1  0  0  0
 34115  1  0  0  0
 35 44  2  0  0  0
 35 45  1  0  0  0
 35 68  1  0  0  0
 36 56  1  0  0  0
 36116  1  0  0  0
 37 39  1  0  0  0
 37 47  1  0  0  0
 37 66  1  0  0  0
 37117  1  0  0  0
 38 43  2  0  0  0
 38 46  1  0  0  0
 38 47  1  0  0  0
 39 64  1  0  0  0
 39 67  2  0  0  0
 40 52  1  0  0  0
 40 53  2  0  0  0
 40 58  1  0  0  0
 41118  1  0  0  0
 41119  1  0  0  0
 41120  1  0  0  0
 41 48  1  0  0  0
 42 43  1  0  0  0
 42 66  1  0  0  0
 42121  1  0  0  0
 42122  1  0  0  0
 43 44  1  0  0  0
 44123  1  0  0  0
 45 46  2  0  0  0
 45124  1  0  0  0
 46125  1  0  0  0
 47126  1  0  0  0
 47127  1  0  0  0
 48 56  1  0  0  0
 48 65  1  0  0  0
 48128  1  0  0  0
 49 50  1  0  0  0
 49 53  1  0  0  0
 49 64  1  0  0  0
 49129  1  0  0  0
 50 51  1  0  0  0
 50130  1  0  0  0
 50131  1  0  0  0
 51 52  1  0  0  0
 51132  1  0  0  0
 51133  1  0  0  0
 52134  1  0  0  0
 52135  1  0  0  0
 53 54  1  0  0  0
 54 55  2  0  0  0
 54136  1  0  0  0
 55 57  1  0  0  0
 55137  1  0  0  0
 56 69  2  0  0  0
 57 58  2  0  0  0
 57138  1  0  0  0
 58139  1  0  0  0
 59 60  1  0  0  0
 59 61  1  0  0  0
 59 62  1  0  0  0
 60140  1  0  0  0
 60141  1  0  0  0
 60142  1  0  0  0
 61143  1  0  0  0
 61144  1  0  0  0
 61145  1  0  0  0
 62146  1  0  0  0
 62147  1  0  0  0
 62148  1  0  0  0
 63 65  1  0  0  0
 63149  1  0  0  0
 63150  1  0  0  0
 63151  1  0  0  0
 64152  1  0  0  0
 65153  1  0  0  0
 68 89  1  0  0  0
 71 72  1  0  0  0
 71 73  2  0  0  0
 71 77  1  0  0  0
 72 74  2  0  0  0
 72 84  1  0  0  0
 73 76  1  0  0  0
 73 78  1  0  0  0
 74 75  1  0  0  0
 74 85  1  0  0  0
 75 76  2  0  0  0
 75 86  1  0  0  0
 76 94  1  0  0  0
 77 81  1  0  0  0
 77154  1  0  0  0
 77155  1  0  0  0
 78 91  1  0  0  0
 78156  1  0  0  0
 78157  1  0  0  0
 79 82  1  0  0  0
 79 84  1  0  0  0
 79158  1  0  0  0
 79159  1  0  0  0
 80 83  1  0  0  0
 80 84  1  0  0  0
 80160  1  0  0  0
 80161  1  0  0  0
 81 91  1  0  0  0
 81162  1  0  0  0
 81163  1  0  0  0
 82 92  1  0  0  0
 82164  1  0  0  0
 82165  1  0  0  0
 83 92  1  0  0  0
 83166  1  0  0  0
 83167  1  0  0  0
 84168  1  0  0  0
 85169  1  0  0  0
 85170  1  0  0  0
 85171  1  0  0  0
 86172  1  0  0  0
 86173  1  0  0  0
 86174  1  0  0  0
 87 94  1  0  0  0
 87175  1  0  0  0
 87176  1  0  0  0
 87177  1  0  0  0
 88 90  1  0  0  0
 88178  1  0  0  0
 88179  1  0  0  0
 88 92  1  0  0  0
 89 90  1  0  0  0
 89180  1  0  0  0
 89181  1  0  0  0
 90 93  1  0  0  0
 90182  1  0  0  0
 92183  1  0  0  0
 93184  1  0  0  0
M  CHG  1  92   1
M  ISO  4   1 100  68 101  89 101  91 100
M  END
> <chiral flag>
0

> <version>
0

> <s_m_source_file>
/data/baiqing/PycharmProjects/Reinvent-master-3.2/result/LINK_invent/BTK/process_docking_weight1_custom_sum_contain_oxygen_bond_distance_aromatic_linkinvent_7_9_3/rearranged_h_0158.sdf

> <i_m_source_file_index>
93

> <r_mmod_Potential_Energy-OPLS-2005>
78.4756317138672

> <r_mmod_Stretch_Energy-OPLS-2005>
50.5432929992676

> <r_mmod_Bend_Energy-OPLS-2005>
142.528823852539

> <r_mmod_Torsional_Energy-OPLS-2005>
401.80322265625

> <r_mmod_Improper_Torsional_Energy-OPLS-2005>
15.6216115951538

> <r_mmod_Van_der_Waal_Energy-OPLS-2005>
202.099594116211

> <r_mmod_Electrostatic_Energy-OPLS-2005>
-330.758270263672

> <r_mmod_Solvation_Energy-OPLS-2005>
-415.390991210938

> <b_mmod_Minimization_Converged-OPLS-2005>
0

> <r_mmod_RMS_Derivative-OPLS-2005>
3.40689611434937

$$$$
93
                    3D
 Structure written by MMmdl.
177187  0  0  1  0            999 V2000
  -30.7921  -14.3607   20.6687 C   0  0  0  0  0  0
  -30.4075  -12.2847   19.3974 C   0  0  0  0  0  0
  -29.4796  -12.5214   18.1930 C   0  0  0  0  0  0
  -28.0064  -12.3773   18.6135 C   0  0  0  0  0  0
  -27.6653  -13.2067   19.8794 C   0  0  2  0  0  0
  -28.7063  -12.9684   20.9968 C   0  0  0  0  0  0
  -25.2594  -13.8167   20.5683 C   0  0  0  0  0  0
  -24.1841  -13.0444   20.9160 C   0  0  0  0  0  0
  -24.6385  -11.6907   20.8717 C   0  0  0  0  0  0
  -23.9050  -10.4291   21.0382 C   0  0  0  0  0  0
  -24.3603   -9.4217   21.9168 C   0  0  0  0  0  0
  -23.6280   -8.2252   22.0754 C   0  0  0  0  0  0
  -22.4264   -8.0275   21.3544 C   0  0  0  0  0  0
  -21.9896   -9.0248   20.4647 C   0  0  0  0  0  0
  -22.7218  -10.2127   20.3044 C   0  0  0  0  0  0
  -21.6854   -6.0726   22.5277 C   0  0  0  0  0  0
  -21.4014   -6.5634   23.8210 C   0  0  0  0  0  0
  -21.3657   -5.6790   24.9176 C   0  0  0  0  0  0
  -21.6051   -4.3054   24.7231 C   0  0  0  0  0  0
  -21.8817   -3.8142   23.4351 C   0  0  0  0  0  0
  -21.9194   -4.6954   22.3403 C   0  0  0  0  0  0
  -22.7862  -13.5238   21.1831 C   0  0  0  0  0  0
  -22.1661   -4.2140   21.0977 F   0  0  0  0  0  0
  -21.5632   -3.4535   25.7744 F   0  0  0  0  0  0
  -30.0496  -13.2434   20.4534 N   0  0  0  0  0  0
  -26.3039  -12.9340   20.3391 N   0  0  0  0  0  0
  -25.9318  -11.6495   20.5763 N   0  0  0  0  0  0
  -22.0505  -12.8232   22.0386 N   0  0  0  0  0  0
  -25.4329  -15.1885   20.4093 N   0  0  0  0  0  0
  -31.7964  -14.6346   20.0061 O   0  0  0  0  0  0
  -21.6639   -6.8865   21.4235 O   0  0  0  0  0  0
  -22.3542  -14.5543   20.6676 O   0  0  0  0  0  0
  -24.6121  -31.8691   23.2112 C   0  0  0  0  0  0
  -25.9016  -32.4826   23.8423 C   0  0  1  0  0  0
  -27.2436  -27.4581   20.0991 C   0  0  0  0  0  0
  -25.5889  -33.8624   24.2358 N   0  0  0  0  0  0
  -23.4021  -30.4925   21.5490 C   0  0  2  0  0  0
  -24.8514  -28.9568   20.1205 C   0  0  0  0  0  0
  -22.7398  -29.4685   22.4988 C   0  0  0  0  0  0
  -18.0266  -28.1381   22.8496 C   0  0  0  0  0  0
  -24.1488  -36.7336   23.2632 C   0  0  0  0  0  0
  -25.9264  -30.8415   21.3640 C   0  0  0  0  0  0
  -26.0067  -29.4740   20.7205 C   0  0  0  0  0  0
  -27.2059  -28.7303   20.7149 C   0  0  0  0  0  0
  -26.0787  -26.9560   19.4864 C   0  0  0  0  0  0
  -24.8793  -27.6934   19.5030 C   0  0  0  0  0  0
  -23.6131  -29.8217   20.1650 C   0  0  0  0  0  0
  -25.4090  -36.3112   24.0352 C   0  0  1  0  0  0
  -20.5852  -28.3683   23.1302 C   0  0  2  0  0  0
  -20.6765  -26.9427   22.5399 C   0  0  0  0  0  0
  -19.5750  -26.6407   21.5197 C   0  0  0  0  0  0
  -18.1929  -26.7932   22.1619 C   0  0  0  0  0  0
  -19.1510  -28.8848   23.2901 C   0  0  0  0  0  0
  -18.9449  -30.1450   23.8926 C   0  0  0  0  0  0
  -17.6454  -30.6596   24.0575 C   0  0  0  0  0  0
  -25.9023  -34.9479   23.5154 C   0  0  0  0  0  0
  -16.5346  -29.9098   23.6329 C   0  0  0  0  0  0
  -16.7256  -28.6507   23.0357 C   0  0  0  0  0  0
  -26.4447  -31.6584   25.0738 C   0  0  0  0  0  0
  -25.3739  -31.3639   26.1495 C   0  0  0  0  0  0
  -27.0272  -30.3042   24.6080 C   0  0  0  0  0  0
  -27.6036  -32.4291   25.7497 C   0  0  0  0  0  0
  -27.5583  -37.1801   24.8448 C   0  0  0  0  0  0
  -21.4125  -29.3056   22.3718 N   0  0  0  0  0  0
  -26.4271  -37.3799   23.9419 N   0  0  0  0  0  0
  -24.6643  -31.0816   22.1004 N   0  0  0  0  0  0
  -23.4165  -28.8230   23.3033 O   0  0  0  0  0  0
  -28.3879  -26.7007   20.0153 O   0  0  0  0  0  0
  -26.5584  -34.8921   22.4713 O   0  0  0  0  0  0
  -23.5324  -32.1418   23.7516 O   0  0  0  0  0  0
  -27.7550  -24.5342   22.1186 C   0  0  0  0  0  0
  -30.1494  -24.2421   21.8493 C   0  0  0  0  0  0
  -29.3849  -19.5234   21.7349 C   0  0  0  0  0  0
  -30.4761  -17.4970   22.5414 C   0  0  0  0  0  0
  -29.0033  -25.0507   21.7213 C   0  0  0  0  0  0
  -27.6515  -23.2334   22.6592 C   0  0  0  0  0  0
  -30.0677  -22.9413   22.3919 C   0  0  0  0  0  0
  -29.9921  -18.2786   21.4577 C   0  0  0  0  0  0
  -28.8068  -22.4185   22.7949 C   0  0  0  0  0  0
  -30.3014  -18.0249   23.8441 C   0  0  0  0  0  0
  -29.2639  -19.9477   23.0680 C   0  0  0  0  0  0
  -30.8796  -17.3176   25.0513 C   0  0  0  0  0  0
  -32.1853  -16.6138   24.6842 C   0  0  0  0  0  0
  -31.2404  -16.1714   22.3200 C   0  0  1  0  0  0
  -31.9352  -15.5771   23.5819 C   0  0  1  0  0  0
  -26.2868  -22.7405   23.1157 C   0  0  0  0  0  0
  -31.3672  -22.1742   22.5848 C   0  0  0  0  0  0
  -30.1317  -17.8393   20.0093 C   0  0  0  0  0  0
  -33.2231  -14.8120   23.2322 C   0  0  0  0  0  0
  -29.1247  -26.4851   21.2180 C   0  0  0  0  0  0
  -29.6837  -19.1991   24.1004 N   0  0  0  0  0  0
  -28.6810  -21.1663   23.4218 N   0  0  0  0  0  0
  -30.4204  -15.1184   21.7101 N   0  0  0  0  0  0
  -31.4522  -12.3663   19.0921 H   0  0  0  0  0  0
  -30.2912  -11.2661   19.7720 H   0  0  0  0  0  0
  -29.7107  -11.8149   17.3946 H   0  0  0  0  0  0
  -29.6504  -13.5170   17.7809 H   0  0  0  0  0  0
  -27.8168  -11.3197   18.8006 H   0  0  0  0  0  0
  -27.3503  -12.6606   17.7896 H   0  0  0  0  0  0
  -27.7185  -14.2580   19.5966 H   0  0  0  0  0  0
  -28.6636  -11.9320   21.3357 H   0  0  0  0  0  0
  -28.4596  -13.5701   21.8715 H   0  0  0  0  0  0
  -25.2740   -9.5706   22.4746 H   0  0  0  0  0  0
  -23.9995   -7.4651   22.7478 H   0  0  0  0  0  0
  -21.0831   -8.8751   19.8952 H   0  0  0  0  0  0
  -22.3658  -10.9660   19.6156 H   0  0  0  0  0  0
  -21.2001   -7.6142   23.9710 H   0  0  0  0  0  0
  -21.1483   -6.0522   25.9081 H   0  0  0  0  0  0
  -22.0597   -2.7603   23.2856 H   0  0  0  0  0  0
  -22.4121  -11.9895   22.4775 H   0  0  0  0  0  0
  -21.1120  -13.1252   22.2587 H   0  0  0  0  0  0
  -24.6711  -15.8485   20.5227 H   0  0  0  0  0  0
  -26.2986  -15.6265   20.1197 H   0  0  0  0  0  0
  -26.7099  -32.5561   23.1207 H   0  0  0  0  0  0
  -25.0027  -33.9785   25.0498 H   0  0  0  0  0  0
  -22.6922  -31.3096   21.4057 H   0  0  0  0  0  0
  -23.3740  -35.9681   23.3263 H   0  0  0  0  0  0
  -24.3584  -36.8976   22.2051 H   0  0  0  0  0  0
  -23.7251  -37.6540   23.6658 H   0  0  0  0  0  0
  -26.0307  -31.6061   20.5925 H   0  0  0  0  0  0
  -26.8151  -30.9022   21.9800 H   0  0  0  0  0  0
  -28.0983  -29.1410   21.1658 H   0  0  0  0  0  0
  -26.1037  -25.9935   18.9947 H   0  0  0  0  0  0
  -23.9941  -27.2934   19.0270 H   0  0  0  0  0  0
  -23.7221  -30.5931   19.4014 H   0  0  0  0  0  0
  -22.7391  -29.2382   19.8710 H   0  0  0  0  0  0
  -25.1259  -36.1977   25.0848 H   0  0  0  0  0  0
  -20.9946  -28.3259   24.1418 H   0  0  0  0  0  0
  -20.5657  -26.2315   23.3595 H   0  0  0  0  0  0
  -21.6641  -26.7481   22.1200 H   0  0  0  0  0  0
  -19.6914  -25.6312   21.1248 H   0  0  0  0  0  0
  -19.6676  -27.3208   20.6715 H   0  0  0  0  0  0
  -17.4192  -26.6683   21.4028 H   0  0  0  0  0  0
  -18.0327  -26.0067   22.9011 H   0  0  0  0  0  0
  -19.7924  -30.7245   24.2341 H   0  0  0  0  0  0
  -17.5011  -31.6277   24.5174 H   0  0  0  0  0  0
  -15.5346  -30.3013   23.7634 H   0  0  0  0  0  0
  -15.8657  -28.0836   22.7062 H   0  0  0  0  0  0
  -24.5946  -30.6950   25.7818 H   0  0  0  0  0  0
  -24.8887  -32.2763   26.4981 H   0  0  0  0  0  0
  -25.8135  -30.8789   27.0223 H   0  0  0  0  0  0
  -26.2809  -29.6809   24.1142 H   0  0  0  0  0  0
  -27.4054  -29.7261   25.4513 H   0  0  0  0  0  0
  -27.8634  -30.4360   23.9210 H   0  0  0  0  0  0
  -27.2677  -33.3598   26.2079 H   0  0  0  0  0  0
  -28.3838  -32.6823   25.0311 H   0  0  0  0  0  0
  -28.0704  -31.8402   26.5397 H   0  0  0  0  0  0
  -28.2545  -38.0152   24.7562 H   0  0  0  0  0  0
  -28.1146  -36.2687   24.6192 H   0  0  0  0  0  0
  -27.2322  -37.1346   25.8854 H   0  0  0  0  0  0
  -20.9293  -29.8785   21.6947 H   0  0  0  0  0  0
  -26.0173  -38.2880   24.1444 H   0  0  0  0  0  0
  -26.8760  -25.1566   22.0289 H   0  0  0  0  0  0
  -31.1128  -24.6385   21.5592 H   0  0  0  0  0  0
  -29.0175  -20.1489   20.9315 H   0  0  0  0  0  0
  -30.1507  -16.5958   25.4212 H   0  0  0  0  0  0
  -31.0587  -18.0285   25.8588 H   0  0  0  0  0  0
  -32.6069  -16.1355   25.5685 H   0  0  0  0  0  0
  -32.9176  -17.3497   24.3477 H   0  0  0  0  0  0
  -32.0440  -16.4600   21.6382 H   0  0  0  0  0  0
  -31.2507  -14.8534   24.0290 H   0  0  0  0  0  0
  -25.4917  -23.4268   22.8239 H   0  0  0  0  0  0
  -26.2603  -22.6452   24.2012 H   0  0  0  0  0  0
  -26.0583  -21.7677   22.6812 H   0  0  0  0  0  0
  -32.2291  -22.8416   22.5619 H   0  0  0  0  0  0
  -31.4958  -21.4301   21.7984 H   0  0  0  0  0  0
  -31.3849  -21.6655   23.5488 H   0  0  0  0  0  0
  -29.8903  -18.6539   19.3257 H   0  0  0  0  0  0
  -29.4529  -17.0154   19.7897 H   0  0  0  0  0  0
  -31.1496  -17.5213   19.7846 H   0  0  0  0  0  0
  -33.9736  -15.4681   22.7903 H   0  0  0  0  0  0
  -33.0298  -14.0076   22.5227 H   0  0  0  0  0  0
  -33.6644  -14.3553   24.1177 H   0  0  0  0  0  0
  -30.1708  -26.7127   21.0106 H   0  0  0  0  0  0
  -28.8289  -27.1492   22.0312 H   0  0  0  0  0  0
  -28.3805  -21.2171   24.3870 H   0  0  0  0  0  0
  -29.5970  -14.8235   22.2122 H   0  0  0  0  0  0
  1 25  1  0  0  0
  1 30  2  0  0  0
  1 93  1  0  0  0
  2  3  1  0  0  0
  2 25  1  0  0  0
  2 94  1  0  0  0
  2 95  1  0  0  0
  3  4  1  0  0  0
  3 96  1  0  0  0
  3 97  1  0  0  0
  4  5  1  0  0  0
  4 98  1  0  0  0
  4 99  1  0  0  0
  5  6  1  0  0  0
  5 26  1  0  0  0
  5100  1  0  0  0
  6 25  1  0  0  0
  6101  1  0  0  0
  6102  1  0  0  0
  7  8  2  0  0  0
  7 26  1  0  0  0
  7 29  1  0  0  0
  8  9  1  0  0  0
  8 22  1  0  0  0
  9 10  1  0  0  0
  9 27  2  0  0  0
 10 11  2  0  0  0
 10 15  1  0  0  0
 11 12  1  0  0  0
 11103  1  0  0  0
 12 13  2  0  0  0
 12104  1  0  0  0
 13 14  1  0  0  0
 13 31  1  0  0  0
 14 15  2  0  0  0
 14105  1  0  0  0
 15106  1  0  0  0
 16 17  2  0  0  0
 16 21  1  0  0  0
 16 31  1  0  0  0
 17 18  1  0  0  0
 17107  1  0  0  0
 18 19  2  0  0  0
 18108  1  0  0  0
 19 20  1  0  0  0
 19 24  1  0  0  0
 20 21  2  0  0  0
 20109  1  0  0  0
 21 23  1  0  0  0
 22 28  1  0  0  0
 22 32  2  0  0  0
 26 27  1  0  0  0
 28110  1  0  0  0
 28111  1  0  0  0
 29112  1  0  0  0
 29113  1  0  0  0
 33 34  1  0  0  0
 33 66  1  0  0  0
 33 70  2  0  0  0
 34 36  1  0  0  0
 34 59  1  0  0  0
 34114  1  0  0  0
 35 44  2  0  0  0
 35 45  1  0  0  0
 35 68  1  0  0  0
 36 56  1  0  0  0
 36115  1  0  0  0
 37 39  1  0  0  0
 37 47  1  0  0  0
 37 66  1  0  0  0
 37116  1  0  0  0
 38 43  2  0  0  0
 38 46  1  0  0  0
 38 47  1  0  0  0
 39 64  1  0  0  0
 39 67  2  0  0  0
 40 52  1  0  0  0
 40 53  2  0  0  0
 40 58  1  0  0  0
 41117  1  0  0  0
 41118  1  0  0  0
 41119  1  0  0  0
 41 48  1  0  0  0
 42 43  1  0  0  0
 42 66  1  0  0  0
 42120  1  0  0  0
 42121  1  0  0  0
 43 44  1  0  0  0
 44122  1  0  0  0
 45 46  2  0  0  0
 45123  1  0  0  0
 46124  1  0  0  0
 47125  1  0  0  0
 47126  1  0  0  0
 48 56  1  0  0  0
 48 65  1  0  0  0
 48127  1  0  0  0
 49 50  1  0  0  0
 49 53  1  0  0  0
 49 64  1  0  0  0
 49128  1  0  0  0
 50 51  1  0  0  0
 50129  1  0  0  0
 50130  1  0  0  0
 51 52  1  0  0  0
 51131  1  0  0  0
 51132  1  0  0  0
 52133  1  0  0  0
 52134  1  0  0  0
 53 54  1  0  0  0
 54 55  2  0  0  0
 54135  1  0  0  0
 55 57  1  0  0  0
 55136  1  0  0  0
 56 69  2  0  0  0
 57 58  2  0  0  0
 57137  1  0  0  0
 58138  1  0  0  0
 59 60  1  0  0  0
 59 61  1  0  0  0
 59 62  1  0  0  0
 60139  1  0  0  0
 60140  1  0  0  0
 60141  1  0  0  0
 61142  1  0  0  0
 61143  1  0  0  0
 61144  1  0  0  0
 62145  1  0  0  0
 62146  1  0  0  0
 62147  1  0  0  0
 63 65  1  0  0  0
 63148  1  0  0  0
 63149  1  0  0  0
 63150  1  0  0  0
 64151  1  0  0  0
 65152  1  0  0  0
 68 90  1  0  0  0
 71 75  2  0  0  0
 71 76  1  0  0  0
 71153  1  0  0  0
 72 75  1  0  0  0
 72 77  2  0  0  0
 72154  1  0  0  0
 73 78  2  0  0  0
 73 81  1  0  0  0
 73155  1  0  0  0
 74 78  1  0  0  0
 74 80  2  0  0  0
 74 84  1  0  0  0
 75 90  1  0  0  0
 76 79  2  0  0  0
 76 86  1  0  0  0
 77 79  1  0  0  0
 77 87  1  0  0  0
 78 88  1  0  0  0
 79 92  1  0  0  0
 80 82  1  0  0  0
 80 91  1  0  0  0
 81 91  2  0  0  0
 81 92  1  0  0  0
 82 83  1  0  0  0
 82156  1  0  0  0
 82157  1  0  0  0
 83 85  1  0  0  0
 83158  1  0  0  0
 83159  1  0  0  0
 84 85  1  0  0  0
 84 93  1  0  0  0
 84160  1  0  0  0
 85 89  1  0  0  0
 85161  1  0  0  0
 86162  1  0  0  0
 86163  1  0  0  0
 86164  1  0  0  0
 87165  1  0  0  0
 87166  1  0  0  0
 87167  1  0  0  0
 88168  1  0  0  0
 88169  1  0  0  0
 88170  1  0  0  0
 89171  1  0  0  0
 89172  1  0  0  0
 89173  1  0  0  0
 90174  1  0  0  0
 90175  1  0  0  0
 92176  1  0  0  0
 93177  1  0  0  0
M  ISO  4   1 100  68 101  90 101  93 100
M  END
> <chiral flag>
0

> <version>
0

> <s_m_source_file>
/data/baiqing/PycharmProjects/Reinvent-master-3.2/result/LINK_invent/BTK/process_docking_weight1_custom_sum_contain_oxygen_bond_distance_aromatic_linkinvent_7_9_3/rearranged_h_0158.sdf

> <i_m_source_file_index>
94

> <r_mmod_Potential_Energy-OPLS-2005>
-267.711517333984

> <r_mmod_Stretch_Energy-OPLS-2005>
38.1349449157715

> <r_mmod_Bend_Energy-OPLS-2005>
104.442489624023

> <r_mmod_Torsional_Energy-OPLS-2005>
260.689971923828

> <r_mmod_Improper_Torsional_Energy-OPLS-2005>
4.29965591430664

> <r_mmod_Van_der_Waal_Energy-OPLS-2005>
175.150604248047

> <r_mmod_Electrostatic_Energy-OPLS-2005>
-652.791198730469

> <r_mmod_Solvation_Energy-OPLS-2005>
-204.473281860352

> <b_mmod_Minimization_Converged-OPLS-2005>
0

> <r_mmod_RMS_Derivative-OPLS-2005>
1.93178987503052

$$$$
94
                    3D
 Structure written by MMmdl.
178188  0  0  1  0            999 V2000
  -30.7582  -14.4151   20.5223 C   0  0  0  0  0  0
  -30.4044  -12.2599   19.4153 C   0  0  0  0  0  0
  -29.4831  -12.4744   18.1991 C   0  0  0  0  0  0
  -28.0039  -12.3572   18.6175 C   0  0  0  0  0  0
  -27.6532  -13.1989   19.8753 C   0  0  2  0  0  0
  -28.7077  -13.0203   20.9936 C   0  0  0  0  0  0
  -25.2563  -13.8115   20.5723 C   0  0  0  0  0  0
  -24.1810  -13.0400   20.9196 C   0  0  0  0  0  0
  -24.6370  -11.6873   20.8771 C   0  0  0  0  0  0
  -23.9045  -10.4271   21.0426 C   0  0  0  0  0  0
  -24.3602   -9.4188   21.9200 C   0  0  0  0  0  0
  -23.6280   -8.2224   22.0759 C   0  0  0  0  0  0
  -22.4264   -8.0270   21.3549 C   0  0  0  0  0  0
  -21.9898   -9.0245   20.4651 C   0  0  0  0  0  0
  -22.7223  -10.2125   20.3067 C   0  0  0  0  0  0
  -21.6852   -6.0732   22.5285 C   0  0  0  0  0  0
  -21.4013   -6.5637   23.8215 C   0  0  0  0  0  0
  -21.3656   -5.6792   24.9178 C   0  0  0  0  0  0
  -21.6040   -4.3055   24.7232 C   0  0  0  0  0  0
  -21.8817   -3.8146   23.4353 C   0  0  0  0  0  0
  -21.9189   -4.6960   22.3407 C   0  0  0  0  0  0
  -22.7842  -13.5218   21.1850 C   0  0  0  0  0  0
  -22.1657   -4.2143   21.0986 F   0  0  0  0  0  0
  -21.5627   -3.4543   25.7747 F   0  0  0  0  0  0
  -30.0385  -13.2687   20.4163 N   0  0  0  0  0  0
  -26.2993  -12.9263   20.3440 N   0  0  0  0  0  0
  -25.9298  -11.6434   20.5836 N   0  0  0  0  0  0
  -22.0479  -12.8225   22.0409 N   0  0  0  0  0  0
  -25.4267  -15.1826   20.4124 N   0  0  0  0  0  0
  -31.9331  -14.5156   20.1577 O   0  0  0  0  0  0
  -21.6627   -6.8870   21.4245 O   0  0  0  0  0  0
  -22.3547  -14.5533   20.6705 O   0  0  0  0  0  0
  -24.6090  -31.8699   23.2118 C   0  0  0  0  0  0
  -25.9003  -32.4829   23.8403 C   0  0  1  0  0  0
  -27.2424  -27.4765   20.0933 C   0  0  0  0  0  0
  -25.5889  -33.8626   24.2344 N   0  0  0  0  0  0
  -23.3952  -30.4931   21.5505 C   0  0  2  0  0  0
  -24.8428  -28.9666   20.1109 C   0  0  0  0  0  0
  -22.7386  -29.4662   22.5010 C   0  0  0  0  0  0
  -18.0267  -28.1367   22.8478 C   0  0  0  0  0  0
  -24.1490  -36.7326   23.2639 C   0  0  0  0  0  0
  -25.9159  -30.8539   21.3528 C   0  0  0  0  0  0
  -25.9968  -29.4901   20.7033 C   0  0  0  0  0  0
  -27.1970  -28.7524   20.6890 C   0  0  0  0  0  0
  -26.0697  -26.9591   19.4916 C   0  0  0  0  0  0
  -24.8726  -27.6999   19.5014 C   0  0  0  0  0  0
  -23.6000  -29.8244   20.1641 C   0  0  0  0  0  0
  -25.4106  -36.3118   24.0344 C   0  0  1  0  0  0
  -20.5852  -28.3644   23.1331 C   0  0  2  0  0  0
  -20.6764  -26.9388   22.5419 C   0  0  0  0  0  0
  -19.5750  -26.6377   21.5204 C   0  0  0  0  0  0
  -18.1922  -26.7915   22.1609 C   0  0  0  0  0  0
  -19.1514  -28.8821   23.2903 C   0  0  0  0  0  0
  -18.9447  -30.1425   23.8917 C   0  0  0  0  0  0
  -17.6452  -30.6578   24.0556 C   0  0  0  0  0  0
  -25.9034  -34.9483   23.5141 C   0  0  0  0  0  0
  -16.5339  -29.9081   23.6319 C   0  0  0  0  0  0
  -16.7259  -28.6496   23.0340 C   0  0  0  0  0  0
  -26.4462  -31.6582   25.0701 C   0  0  0  0  0  0
  -25.3755  -31.3647   26.1459 C   0  0  0  0  0  0
  -27.0279  -30.3043   24.6004 C   0  0  0  0  0  0
  -27.6056  -32.4275   25.7464 C   0  0  0  0  0  0
  -27.5580  -37.1812   24.8461 C   0  0  0  0  0  0
  -21.4121  -29.3026   22.3753 N   0  0  0  0  0  0
  -26.4292  -37.3801   23.9411 N   0  0  0  0  0  0
  -24.6584  -31.0853   22.0985 N   0  0  0  0  0  0
  -23.4176  -28.8218   23.3048 O   0  0  0  0  0  0
  -28.4447  -26.8056   20.1404 O   0  0  0  0  0  0
  -26.5586  -34.8922   22.4696 O   0  0  0  0  0  0
  -23.5294  -32.1425   23.7551 O   0  0  0  0  0  0
  -28.2142  -20.2246   22.0694 C   0  0  0  0  0  0
  -28.5909  -19.7282   20.8033 C   0  0  0  0  0  0
  -27.6815  -21.5180   22.2249 C   0  0  0  0  0  0
  -28.3399  -20.5269   19.6518 C   0  0  0  0  0  0
  -27.6783  -21.7739   19.7884 C   0  0  0  0  0  0
  -27.4169  -22.3111   21.0764 C   0  0  0  0  0  0
  -26.0018  -25.3215   22.5569 C   0  0  0  0  0  0
  -27.5261  -25.4883   22.5823 C   0  0  0  0  0  0
  -29.7638  -17.7182   22.0180 C   0  0  0  0  0  0
  -28.5917  -17.3210   19.8811 C   0  0  0  0  0  0
  -25.7357  -24.0390   21.7572 C   0  0  0  0  0  0
  -30.6526  -16.4843   21.7435 C   0  0  0  0  0  0
  -29.5953  -16.2139   19.5567 C   0  0  0  0  0  0
  -29.3337  -18.3901   20.6964 C   0  0  0  0  0  0
  -28.0548  -24.6454   21.4082 C   0  0  2  0  0  0
  -27.4805  -22.0235   23.6472 C   0  0  0  0  0  0
  -28.8066  -20.1003   18.2566 C   0  0  0  0  0  0
  -27.2710  -22.5406   18.5290 C   0  0  0  0  0  0
  -28.4505  -25.3832   20.0938 C   0  0  0  0  0  0
  -27.0108  -23.6559   21.1677 N   0  0  0  0  0  0
  -30.0542  -15.5352   20.7816 N   0  0  0  0  0  0
  -31.4516  -12.3211   19.1130 H   0  0  0  0  0  0
  -30.2695  -11.2581   19.8263 H   0  0  0  0  0  0
  -29.7065  -11.7396   17.4243 H   0  0  0  0  0  0
  -29.6721  -13.4512   17.7524 H   0  0  0  0  0  0
  -27.8014  -11.3033   18.8117 H   0  0  0  0  0  0
  -27.3558  -12.6391   17.7868 H   0  0  0  0  0  0
  -27.6614  -14.2385   19.5679 H   0  0  0  0  0  0
  -28.6699  -12.0095   21.4013 H   0  0  0  0  0  0
  -28.4999  -13.6926   21.8282 H   0  0  0  0  0  0
  -25.2747   -9.5660   22.4776 H   0  0  0  0  0  0
  -23.9989   -7.4611   22.7471 H   0  0  0  0  0  0
  -21.0833   -8.8768   19.8954 H   0  0  0  0  0  0
  -22.3691  -10.9670   19.6177 H   0  0  0  0  0  0
  -21.2011   -7.6148   23.9717 H   0  0  0  0  0  0
  -21.1478   -6.0527   25.9078 H   0  0  0  0  0  0
  -22.0600   -2.7610   23.2863 H   0  0  0  0  0  0
  -22.4090  -11.9881   22.4787 H   0  0  0  0  0  0
  -21.1106  -13.1268   22.2626 H   0  0  0  0  0  0
  -24.6645  -15.8408   20.5301 H   0  0  0  0  0  0
  -26.2908  -15.6228   20.1256 H   0  0  0  0  0  0
  -26.7076  -32.5574   23.1179 H   0  0  0  0  0  0
  -25.0058  -33.9796   25.0498 H   0  0  0  0  0  0
  -22.6811  -31.3076   21.4118 H   0  0  0  0  0  0
  -23.3748  -35.9665   23.3314 H   0  0  0  0  0  0
  -24.3579  -36.8933   22.2050 H   0  0  0  0  0  0
  -23.7252  -37.6540   23.6643 H   0  0  0  0  0  0
  -26.0098  -31.6187   20.5803 H   0  0  0  0  0  0
  -26.8094  -30.9169   21.9614 H   0  0  0  0  0  0
  -28.0898  -29.1529   21.1487 H   0  0  0  0  0  0
  -26.0510  -25.9916   19.0155 H   0  0  0  0  0  0
  -23.9859  -27.2901   19.0391 H   0  0  0  0  0  0
  -23.6986  -30.5961   19.3995 H   0  0  0  0  0  0
  -22.7268  -29.2366   19.8760 H   0  0  0  0  0  0
  -25.1281  -36.1992   25.0839 H   0  0  0  0  0  0
  -20.9936  -28.3194   24.1454 H   0  0  0  0  0  0
  -20.5665  -26.2252   23.3602 H   0  0  0  0  0  0
  -21.6639  -26.7449   22.1214 H   0  0  0  0  0  0
  -19.6925  -25.6296   21.1217 H   0  0  0  0  0  0
  -19.6690  -27.3200   20.6744 H   0  0  0  0  0  0
  -17.4201  -26.6662   21.4001 H   0  0  0  0  0  0
  -18.0316  -26.0056   22.9005 H   0  0  0  0  0  0
  -19.7927  -30.7218   24.2315 H   0  0  0  0  0  0
  -17.5016  -31.6263   24.5143 H   0  0  0  0  0  0
  -15.5343  -30.2986   23.7642 H   0  0  0  0  0  0
  -15.8658  -28.0822   22.7049 H   0  0  0  0  0  0
  -24.5960  -30.6957   25.7794 H   0  0  0  0  0  0
  -24.8906  -32.2779   26.4913 H   0  0  0  0  0  0
  -25.8135  -30.8822   27.0207 H   0  0  0  0  0  0
  -26.2786  -29.6806   24.1109 H   0  0  0  0  0  0
  -27.4153  -29.7258   25.4402 H   0  0  0  0  0  0
  -27.8574  -30.4399   23.9058 H   0  0  0  0  0  0
  -27.2708  -33.3576   26.2064 H   0  0  0  0  0  0
  -28.3861  -32.6821   25.0283 H   0  0  0  0  0  0
  -28.0725  -31.8374   26.5359 H   0  0  0  0  0  0
  -28.2592  -38.0112   24.7510 H   0  0  0  0  0  0
  -28.1083  -36.2645   24.6282 H   0  0  0  0  0  0
  -27.2299  -37.1459   25.8863 H   0  0  0  0  0  0
  -20.9277  -29.8773   21.7002 H   0  0  0  0  0  0
  -26.0191  -38.2887   24.1402 H   0  0  0  0  0  0
  -28.4005  -19.6436   22.9599 H   0  0  0  0  0  0
  -25.5393  -26.1741   22.0609 H   0  0  0  0  0  0
  -25.5806  -25.2747   23.5617 H   0  0  0  0  0  0
  -27.9067  -25.0807   23.5183 H   0  0  0  0  0  0
  -27.8481  -26.5282   22.5688 H   0  0  0  0  0  0
  -30.3265  -18.4203   22.6352 H   0  0  0  0  0  0
  -28.8892  -17.4171   22.5969 H   0  0  0  0  0  0
  -27.7398  -16.9318   20.4388 H   0  0  0  0  0  0
  -28.1865  -17.7049   18.9489 H   0  0  0  0  0  0
  -25.0117  -24.2315   20.9642 H   0  0  0  0  0  0
  -25.3128  -23.2522   22.3787 H   0  0  0  0  0  0
  -30.8614  -15.9721   22.6842 H   0  0  0  0  0  0
  -31.6181  -16.8257   21.3630 H   0  0  0  0  0  0
  -30.4575  -16.6366   19.0345 H   0  0  0  0  0  0
  -29.1570  -15.5216   18.8398 H   0  0  0  0  0  0
  -30.2662  -18.6417   20.1892 H   0  0  0  0  0  0
  -28.9539  -24.1349   21.7609 H   0  0  0  0  0  0
  -27.7683  -21.2732   24.3835 H   0  0  0  0  0  0
  -26.4446  -22.2826   23.8515 H   0  0  0  0  0  0
  -28.1054  -22.8942   23.8281 H   0  0  0  0  0  0
  -29.6324  -19.3924   18.2679 H   0  0  0  0  0  0
  -29.1769  -20.9511   17.6852 H   0  0  0  0  0  0
  -27.9831  -19.6578   17.6959 H   0  0  0  0  0  0
  -28.1285  -23.0576   18.0991 H   0  0  0  0  0  0
  -26.4830  -23.2698   18.7156 H   0  0  0  0  0  0
  -26.8686  -21.8648   17.7750 H   0  0  0  0  0  0
  -27.8966  -25.0348   19.2286 H   0  0  0  0  0  0
  -29.4787  -25.0987   19.8653 H   0  0  0  0  0  0
  1 25  1  0  0  0
  1 30  2  0  0  0
  1 91  1  0  0  0
  2  3  1  0  0  0
  2 25  1  0  0  0
  2 92  1  0  0  0
  2 93  1  0  0  0
  3  4  1  0  0  0
  3 94  1  0  0  0
  3 95  1  0  0  0
  4  5  1  0  0  0
  4 96  1  0  0  0
  4 97  1  0  0  0
  5  6  1  0  0  0
  5 26  1  0  0  0
  5 98  1  0  0  0
  6 25  1  0  0  0
  6 99  1  0  0  0
  6100  1  0  0  0
  7  8  2  0  0  0
  7 26  1  0  0  0
  7 29  1  0  0  0
  8  9  1  0  0  0
  8 22  1  0  0  0
  9 10  1  0  0  0
  9 27  2  0  0  0
 10 11  2  0  0  0
 10 15  1  0  0  0
 11 12  1  0  0  0
 11101  1  0  0  0
 12 13  2  0  0  0
 12102  1  0  0  0
 13 14  1  0  0  0
 13 31  1  0  0  0
 14 15  2  0  0  0
 14103  1  0  0  0
 15104  1  0  0  0
 16 17  2  0  0  0
 16 21  1  0  0  0
 16 31  1  0  0  0
 17 18  1  0  0  0
 17105  1  0  0  0
 18 19  2  0  0  0
 18106  1  0  0  0
 19 20  1  0  0  0
 19 24  1  0  0  0
 20 21  2  0  0  0
 20107  1  0  0  0
 21 23  1  0  0  0
 22 28  1  0  0  0
 22 32  2  0  0  0
 26 27  1  0  0  0
 28108  1  0  0  0
 28109  1  0  0  0
 29110  1  0  0  0
 29111  1  0  0  0
 33 34  1  0  0  0
 33 66  1  0  0  0
 33 70  2  0  0  0
 34 36  1  0  0  0
 34 59  1  0  0  0
 34112  1  0  0  0
 35 44  2  0  0  0
 35 45  1  0  0  0
 35 68  1  0  0  0
 36 56  1  0  0  0
 36113  1  0  0  0
 37 39  1  0  0  0
 37 47  1  0  0  0
 37 66  1  0  0  0
 37114  1  0  0  0
 38 43  2  0  0  0
 38 46  1  0  0  0
 38 47  1  0  0  0
 39 64  1  0  0  0
 39 67  2  0  0  0
 40 52  1  0  0  0
 40 53  2  0  0  0
 40 58  1  0  0  0
 41115  1  0  0  0
 41116  1  0  0  0
 41117  1  0  0  0
 41 48  1  0  0  0
 42 43  1  0  0  0
 42 66  1  0  0  0
 42118  1  0  0  0
 42119  1  0  0  0
 43 44  1  0  0  0
 44120  1  0  0  0
 45 46  2  0  0  0
 45121  1  0  0  0
 46122  1  0  0  0
 47123  1  0  0  0
 47124  1  0  0  0
 48 56  1  0  0  0
 48 65  1  0  0  0
 48125  1  0  0  0
 49 50  1  0  0  0
 49 53  1  0  0  0
 49 64  1  0  0  0
 49126  1  0  0  0
 50 51  1  0  0  0
 50127  1  0  0  0
 50128  1  0  0  0
 51 52  1  0  0  0
 51129  1  0  0  0
 51130  1  0  0  0
 52131  1  0  0  0
 52132  1  0  0  0
 53 54  1  0  0  0
 54 55  2  0  0  0
 54133  1  0  0  0
 55 57  1  0  0  0
 55134  1  0  0  0
 56 69  2  0  0  0
 57 58  2  0  0  0
 57135  1  0  0  0
 58136  1  0  0  0
 59 60  1  0  0  0
 59 61  1  0  0  0
 59 62  1  0  0  0
 60137  1  0  0  0
 60138  1  0  0  0
 60139  1  0  0  0
 61140  1  0  0  0
 61141  1  0  0  0
 61142  1  0  0  0
 62143  1  0  0  0
 62144  1  0  0  0
 62145  1  0  0  0
 63 65  1  0  0  0
 63146  1  0  0  0
 63147  1  0  0  0
 63148  1  0  0  0
 64149  1  0  0  0
 65150  1  0  0  0
 68 89  1  0  0  0
 71 72  2  0  0  0
 71 73  1  0  0  0
 71151  1  0  0  0
 72 74  1  0  0  0
 72 84  1  0  0  0
 73 76  2  0  0  0
 73 86  1  0  0  0
 74 75  2  0  0  0
 74 87  1  0  0  0
 75 76  1  0  0  0
 75 88  1  0  0  0
 76 90  1  0  0  0
 77 78  1  0  0  0
 77 81  1  0  0  0
 77152  1  0  0  0
 77153  1  0  0  0
 78 85  1  0  0  0
 78154  1  0  0  0
 78155  1  0  0  0
 79 82  1  0  0  0
 79 84  1  0  0  0
 79156  1  0  0  0
 79157  1  0  0  0
 80 83  1  0  0  0
 80 84  1  0  0  0
 80158  1  0  0  0
 80159  1  0  0  0
 81 90  1  0  0  0
 81160  1  0  0  0
 81161  1  0  0  0
 82 91  1  0  0  0
 82162  1  0  0  0
 82163  1  0  0  0
 83 91  1  0  0  0
 83164  1  0  0  0
 83165  1  0  0  0
 84166  1  0  0  0
 85 89  1  0  0  0
 85 90  1  0  0  0
 85167  1  0  0  0
 86168  1  0  0  0
 86169  1  0  0  0
 86170  1  0  0  0
 87171  1  0  0  0
 87172  1  0  0  0
 87173  1  0  0  0
 88174  1  0  0  0
 88175  1  0  0  0
 88176  1  0  0  0
 89177  1  0  0  0
 89178  1  0  0  0
M  ISO  4   1 100  68 101  89 101  91 100
M  END
> <chiral flag>
0

> <version>
0

> <s_m_source_file>
/data/baiqing/PycharmProjects/Reinvent-master-3.2/result/LINK_invent/BTK/process_docking_weight1_custom_sum_contain_oxygen_bond_distance_aromatic_linkinvent_7_9_3/rearranged_h_0158.sdf

> <i_m_source_file_index>
95

> <r_mmod_Potential_Energy-OPLS-2005>
321.269470214844

> <r_mmod_Stretch_Energy-OPLS-2005>
39.1481742858887

> <r_mmod_Bend_Energy-OPLS-2005>
155.935150146484

> <r_mmod_Torsional_Energy-OPLS-2005>
451.392333984375

> <r_mmod_Improper_Torsional_Energy-OPLS-2005>
14.3730316162109

> <r_mmod_Van_der_Waal_Energy-OPLS-2005>
172.504470825195

> <r_mmod_Electrostatic_Energy-OPLS-2005>
-342.991088867188

> <r_mmod_Solvation_Energy-OPLS-2005>
-186.774826049805

> <b_mmod_Minimization_Converged-OPLS-2005>
0

> <r_mmod_RMS_Derivative-OPLS-2005>
1.37673211097717

$$$$
95
                    3D
 Structure written by MMmdl.
172181  0  0  1  0            999 V2000
  -30.7335  -14.5084   20.5515 C   0  0  0  0  0  0
  -30.4173  -12.3329   19.4299 C   0  0  0  0  0  0
  -29.4890  -12.4872   18.2098 C   0  0  0  0  0  0
  -28.0158  -12.3385   18.6314 C   0  0  0  0  0  0
  -27.6529  -13.2150   19.8593 C   0  0  2  0  0  0
  -28.6988  -13.0712   20.9868 C   0  0  0  0  0  0
  -25.2567  -13.8195   20.5693 C   0  0  0  0  0  0
  -24.1830  -13.0454   20.9192 C   0  0  0  0  0  0
  -24.6399  -11.6926   20.8752 C   0  0  0  0  0  0
  -23.9066  -10.4303   21.0415 C   0  0  0  0  0  0
  -24.3618   -9.4216   21.9187 C   0  0  0  0  0  0
  -23.6295   -8.2249   22.0757 C   0  0  0  0  0  0
  -22.4279   -8.0288   21.3547 C   0  0  0  0  0  0
  -21.9916   -9.0258   20.4642 C   0  0  0  0  0  0
  -22.7243  -10.2142   20.3055 C   0  0  0  0  0  0
  -21.6852   -6.0737   22.5277 C   0  0  0  0  0  0
  -21.4009   -6.5639   23.8208 C   0  0  0  0  0  0
  -21.3659   -5.6795   24.9173 C   0  0  0  0  0  0
  -21.6047   -4.3056   24.7225 C   0  0  0  0  0  0
  -21.8821   -3.8151   23.4339 C   0  0  0  0  0  0
  -21.9193   -4.6967   22.3396 C   0  0  0  0  0  0
  -22.7850  -13.5247   21.1839 C   0  0  0  0  0  0
  -22.1663   -4.2153   21.0972 F   0  0  0  0  0  0
  -21.5632   -3.4539   25.7734 F   0  0  0  0  0  0
  -30.0209  -13.3564   20.4118 N   0  0  0  0  0  0
  -26.2987  -12.9367   20.3323 N   0  0  0  0  0  0
  -25.9323  -11.6520   20.5775 N   0  0  0  0  0  0
  -22.0490  -12.8229   22.0395 N   0  0  0  0  0  0
  -25.4284  -15.1910   20.4100 N   0  0  0  0  0  0
  -31.9096  -14.5883   20.1986 O   0  0  0  0  0  0
  -21.6647   -6.8885   21.4240 O   0  0  0  0  0  0
  -22.3535  -14.5553   20.6694 O   0  0  0  0  0  0
  -24.6157  -31.8672   23.2124 C   0  0  0  0  0  0
  -25.9041  -32.4829   23.8430 C   0  0  1  0  0  0
  -27.2350  -27.3935   20.0890 C   0  0  0  0  0  0
  -25.5908  -33.8634   24.2329 N   0  0  0  0  0  0
  -23.4049  -30.4871   21.5550 C   0  0  2  0  0  0
  -24.8511  -28.9505   20.1147 C   0  0  0  0  0  0
  -22.7423  -29.4628   22.5031 C   0  0  0  0  0  0
  -18.0267  -28.1337   22.8460 C   0  0  0  0  0  0
  -24.1488  -36.7286   23.2643 C   0  0  0  0  0  0
  -25.9417  -30.8129   21.3812 C   0  0  0  0  0  0
  -26.0156  -29.4483   20.7151 C   0  0  0  0  0  0
  -27.2044  -28.6761   20.6970 C   0  0  0  0  0  0
  -26.0479  -26.9291   19.4708 C   0  0  0  0  0  0
  -24.8670  -27.6928   19.4895 C   0  0  0  0  0  0
  -23.6123  -29.8177   20.1705 C   0  0  0  0  0  0
  -25.4124  -36.3113   24.0338 C   0  0  1  0  0  0
  -20.5848  -28.3614   23.1299 C   0  0  2  0  0  0
  -20.6731  -26.9352   22.5392 C   0  0  0  0  0  0
  -19.5712  -26.6343   21.5167 C   0  0  0  0  0  0
  -18.1886  -26.7880   22.1583 C   0  0  0  0  0  0
  -19.1517  -28.8801   23.2857 C   0  0  0  0  0  0
  -18.9464  -30.1411   23.8857 C   0  0  0  0  0  0
  -17.6467  -30.6546   24.0528 C   0  0  0  0  0  0
  -25.9045  -34.9479   23.5119 C   0  0  0  0  0  0
  -16.5348  -29.9031   23.6340 C   0  0  0  0  0  0
  -16.7261  -28.6454   23.0348 C   0  0  0  0  0  0
  -26.4458  -31.6660   25.0797 C   0  0  0  0  0  0
  -25.3714  -31.3768   26.1544 C   0  0  0  0  0  0
  -27.0349  -30.3105   24.6267 C   0  0  0  0  0  0
  -27.6018  -32.4436   25.7543 C   0  0  0  0  0  0
  -27.5590  -37.1800   24.8472 C   0  0  0  0  0  0
  -21.4154  -29.3000   22.3753 N   0  0  0  0  0  0
  -26.4311  -37.3801   23.9404 N   0  0  0  0  0  0
  -24.6720  -31.0720   22.1053 N   0  0  0  0  0  0
  -23.4184  -28.8152   23.3074 O   0  0  0  0  0  0
  -28.4176  -26.6607   20.1194 O   0  0  0  0  0  0
  -26.5608  -34.8942   22.4683 O   0  0  0  0  0  0
  -23.5340  -32.1473   23.7476 O   0  0  0  0  0  0
  -30.7765  -19.4165   18.3416 C   0  0  0  0  0  0
  -30.8162  -18.2202   19.0756 C   0  0  0  0  0  0
  -30.4076  -20.6349   18.9310 C   0  0  0  0  0  0
  -29.9579  -19.4344   21.0258 C   0  0  0  0  0  0
  -30.4199  -18.1986   20.4416 C   0  0  0  0  0  0
  -29.9974  -20.6729   20.2876 C   0  0  0  0  0  0
  -26.6126  -22.8262   21.8582 C   0  0  0  0  0  0
  -26.9328  -24.2707   21.4964 C   0  0  0  0  0  0
  -27.2424  -22.0560   20.7006 C   0  0  0  0  0  0
  -28.3194  -24.2090   20.8234 C   0  0  2  0  0  0
  -31.3719  -17.0063   18.3514 C   0  0  0  0  0  0
  -30.4928  -21.8861   18.0639 C   0  0  0  0  0  0
  -29.4600  -19.4313   22.4717 C   0  0  0  0  0  0
  -30.6713  -16.9191   21.3056 C   0  0  0  0  0  0
  -29.7051  -22.0662   20.9230 C   0  0  0  0  0  0
  -28.4879  -25.2740   19.6843 C   0  0  0  0  0  0
  -30.0573  -15.6163   20.9354 N   0  0  0  0  0  0
  -28.4985  -22.7729   20.3791 N   0  3  1  0  0  0
  -31.4592  -12.4265   19.1180 H   0  0  0  0  0  0
  -30.3251  -11.3380   19.8669 H   0  0  0  0  0  0
  -29.7367  -11.7425   17.4520 H   0  0  0  0  0  0
  -29.6440  -13.4622   17.7447 H   0  0  0  0  0  0
  -27.8469  -11.2876   18.8648 H   0  0  0  0  0  0
  -27.3572  -12.5712   17.7942 H   0  0  0  0  0  0
  -27.6764  -14.2501   19.5172 H   0  0  0  0  0  0
  -28.6842  -12.0632   21.4020 H   0  0  0  0  0  0
  -28.4642  -13.7404   21.8164 H   0  0  0  0  0  0
  -25.2760   -9.5694   22.4763 H   0  0  0  0  0  0
  -24.0002   -7.4645   22.7483 H   0  0  0  0  0  0
  -21.0846   -8.8773   19.8944 H   0  0  0  0  0  0
  -22.3698  -10.9678   19.6164 H   0  0  0  0  0  0
  -21.1998   -7.6147   23.9710 H   0  0  0  0  0  0
  -21.1481   -6.0525   25.9075 H   0  0  0  0  0  0
  -22.0602   -2.7610   23.2838 H   0  0  0  0  0  0
  -22.4103  -11.9875   22.4759 H   0  0  0  0  0  0
  -21.1105  -13.1245   22.2603 H   0  0  0  0  0  0
  -24.6642  -15.8479   20.5227 H   0  0  0  0  0  0
  -26.2799  -15.6275   20.0791 H   0  0  0  0  0  0
  -26.7109  -32.5506   23.1190 H   0  0  0  0  0  0
  -25.0147  -33.9817   25.0526 H   0  0  0  0  0  0
  -22.6978  -31.3065   21.4162 H   0  0  0  0  0  0
  -23.3779  -35.9588   23.3328 H   0  0  0  0  0  0
  -24.3563  -36.8894   22.2054 H   0  0  0  0  0  0
  -23.7216  -37.6480   23.6654 H   0  0  0  0  0  0
  -26.0862  -31.5925   20.6318 H   0  0  0  0  0  0
  -26.8151  -30.8426   22.0226 H   0  0  0  0  0  0
  -28.1057  -29.0537   21.1639 H   0  0  0  0  0  0
  -25.9919  -25.9806   18.9628 H   0  0  0  0  0  0
  -23.9754  -27.3058   19.0146 H   0  0  0  0  0  0
  -23.7131  -30.5939   19.4120 H   0  0  0  0  0  0
  -22.7334  -29.2404   19.8756 H   0  0  0  0  0  0
  -25.1296  -36.1993   25.0834 H   0  0  0  0  0  0
  -20.9928  -28.3177   24.1419 H   0  0  0  0  0  0
  -20.5576  -26.2237   23.3589 H   0  0  0  0  0  0
  -21.6606  -26.7359   22.1201 H   0  0  0  0  0  0
  -19.6874  -25.6248   21.1209 H   0  0  0  0  0  0
  -19.6644  -27.3142   20.6681 H   0  0  0  0  0  0
  -17.4152  -26.6643   21.3987 H   0  0  0  0  0  0
  -18.0263  -26.0027   22.8984 H   0  0  0  0  0  0
  -19.7964  -30.7185   24.2231 H   0  0  0  0  0  0
  -17.5047  -31.6230   24.5102 H   0  0  0  0  0  0
  -15.5342  -30.2891   23.7717 H   0  0  0  0  0  0
  -15.8665  -28.0735   22.7106 H   0  0  0  0  0  0
  -24.5841  -30.7182   25.7868 H   0  0  0  0  0  0
  -24.8932  -32.2906   26.5084 H   0  0  0  0  0  0
  -25.8043  -30.8861   27.0272 H   0  0  0  0  0  0
  -26.2932  -29.6820   24.1329 H   0  0  0  0  0  0
  -27.4088  -29.7423   25.4798 H   0  0  0  0  0  0
  -27.8782  -30.4420   23.9485 H   0  0  0  0  0  0
  -27.2621  -33.3737   26.2121 H   0  0  0  0  0  0
  -28.3791  -32.7044   25.0343 H   0  0  0  0  0  0
  -28.0737  -31.8599   26.5459 H   0  0  0  0  0  0
  -28.2613  -38.0099   24.7537 H   0  0  0  0  0  0
  -28.1090  -36.2636   24.6280 H   0  0  0  0  0  0
  -27.2291  -37.1403   25.8872 H   0  0  0  0  0  0
  -20.9354  -29.8837   21.7042 H   0  0  0  0  0  0
  -26.0217  -38.2880   24.1425 H   0  0  0  0  0  0
  -31.0927  -19.4089   17.3066 H   0  0  0  0  0  0
  -25.5429  -22.6384   21.9585 H   0  0  0  0  0  0
  -27.0956  -22.5592   22.8000 H   0  0  0  0  0  0
  -26.9093  -24.9454   22.3543 H   0  0  0  0  0  0
  -26.1761  -24.6171   20.7957 H   0  0  0  0  0  0
  -26.5872  -22.1113   19.8315 H   0  0  0  0  0  0
  -27.3735  -20.9964   20.9209 H   0  0  0  0  0  0
  -29.0732  -24.4210   21.5845 H   0  0  0  0  0  0
  -31.6043  -17.2245   17.3088 H   0  0  0  0  0  0
  -30.6555  -16.1864   18.3430 H   0  0  0  0  0  0
  -32.3030  -16.6817   18.8162 H   0  0  0  0  0  0
  -30.9866  -21.6757   17.1142 H   0  0  0  0  0  0
  -31.0753  -22.6730   18.5415 H   0  0  0  0  0  0
  -29.5005  -22.2679   17.8271 H   0  0  0  0  0  0
  -28.8903  -18.5290   22.6919 H   0  0  0  0  0  0
  -28.7679  -20.2387   22.6946 H   0  0  0  0  0  0
  -30.2975  -19.4939   23.1677 H   0  0  0  0  0  0
  -30.4121  -17.0760   22.3498 H   0  0  0  0  0  0
  -31.7550  -16.8072   21.3459 H   0  0  0  0  0  0
  -30.5806  -22.6921   20.7489 H   0  0  0  0  0  0
  -29.6497  -22.0188   22.0076 H   0  0  0  0  0  0
  -27.8367  -25.0599   18.8378 H   0  0  0  0  0  0
  -29.4905  -25.1533   19.2734 H   0  0  0  0  0  0
  -29.0718  -15.5056   21.1189 H   0  0  0  0  0  0
  -28.5991  -22.7514   19.3741 H   0  0  0  0  0  0
  1 25  1  0  0  0
  1 30  2  0  0  0
  1 87  1  0  0  0
  2  3  1  0  0  0
  2 25  1  0  0  0
  2 89  1  0  0  0
  2 90  1  0  0  0
  3  4  1  0  0  0
  3 91  1  0  0  0
  3 92  1  0  0  0
  4  5  1  0  0  0
  4 93  1  0  0  0
  4 94  1  0  0  0
  5  6  1  0  0  0
  5 26  1  0  0  0
  5 95  1  0  0  0
  6 25  1  0  0  0
  6 96  1  0  0  0
  6 97  1  0  0  0
  7  8  2  0  0  0
  7 26  1  0  0  0
  7 29  1  0  0  0
  8  9  1  0  0  0
  8 22  1  0  0  0
  9 10  1  0  0  0
  9 27  2  0  0  0
 10 11  2  0  0  0
 10 15  1  0  0  0
 11 12  1  0  0  0
 11 98  1  0  0  0
 12 13  2  0  0  0
 12 99  1  0  0  0
 13 14  1  0  0  0
 13 31  1  0  0  0
 14 15  2  0  0  0
 14100  1  0  0  0
 15101  1  0  0  0
 16 17  2  0  0  0
 16 21  1  0  0  0
 16 31  1  0  0  0
 17 18  1  0  0  0
 17102  1  0  0  0
 18 19  2  0  0  0
 18103  1  0  0  0
 19 20  1  0  0  0
 19 24  1  0  0  0
 20 21  2  0  0  0
 20104  1  0  0  0
 21 23  1  0  0  0
 22 28  1  0  0  0
 22 32  2  0  0  0
 26 27  1  0  0  0
 28105  1  0  0  0
 28106  1  0  0  0
 29107  1  0  0  0
 29108  1  0  0  0
 33 34  1  0  0  0
 33 66  1  0  0  0
 33 70  2  0  0  0
 34 36  1  0  0  0
 34 59  1  0  0  0
 34109  1  0  0  0
 35 44  2  0  0  0
 35 45  1  0  0  0
 35 68  1  0  0  0
 36 56  1  0  0  0
 36110  1  0  0  0
 37 39  1  0  0  0
 37 47  1  0  0  0
 37 66  1  0  0  0
 37111  1  0  0  0
 38 43  2  0  0  0
 38 46  1  0  0  0
 38 47  1  0  0  0
 39 64  1  0  0  0
 39 67  2  0  0  0
 40 52  1  0  0  0
 40 53  2  0  0  0
 40 58  1  0  0  0
 41112  1  0  0  0
 41113  1  0  0  0
 41114  1  0  0  0
 41 48  1  0  0  0
 42 43  1  0  0  0
 42 66  1  0  0  0
 42115  1  0  0  0
 42116  1  0  0  0
 43 44  1  0  0  0
 44117  1  0  0  0
 45 46  2  0  0  0
 45118  1  0  0  0
 46119  1  0  0  0
 47120  1  0  0  0
 47121  1  0  0  0
 48 56  1  0  0  0
 48 65  1  0  0  0
 48122  1  0  0  0
 49 50  1  0  0  0
 49 53  1  0  0  0
 49 64  1  0  0  0
 49123  1  0  0  0
 50 51  1  0  0  0
 50124  1  0  0  0
 50125  1  0  0  0
 51 52  1  0  0  0
 51126  1  0  0  0
 51127  1  0  0  0
 52128  1  0  0  0
 52129  1  0  0  0
 53 54  1  0  0  0
 54 55  2  0  0  0
 54130  1  0  0  0
 55 57  1  0  0  0
 55131  1  0  0  0
 56 69  2  0  0  0
 57 58  2  0  0  0
 57132  1  0  0  0
 58133  1  0  0  0
 59 60  1  0  0  0
 59 61  1  0  0  0
 59 62  1  0  0  0
 60134  1  0  0  0
 60135  1  0  0  0
 60136  1  0  0  0
 61137  1  0  0  0
 61138  1  0  0  0
 61139  1  0  0  0
 62140  1  0  0  0
 62141  1  0  0  0
 62142  1  0  0  0
 63 65  1  0  0  0
 63143  1  0  0  0
 63144  1  0  0  0
 63145  1  0  0  0
 64146  1  0  0  0
 65147  1  0  0  0
 68 86  1  0  0  0
 71 72  2  0  0  0
 71 73  1  0  0  0
 71148  1  0  0  0
 72 75  1  0  0  0
 72 81  1  0  0  0
 73 76  2  0  0  0
 73 82  1  0  0  0
 74 75  2  0  0  0
 74 76  1  0  0  0
 74 83  1  0  0  0
 75 84  1  0  0  0
 76 85  1  0  0  0
 77 78  1  0  0  0
 77 79  1  0  0  0
 77149  1  0  0  0
 77150  1  0  0  0
 78 80  1  0  0  0
 78151  1  0  0  0
 78152  1  0  0  0
 79 88  1  0  0  0
 79153  1  0  0  0
 79154  1  0  0  0
 80 86  1  0  0  0
 80 88  1  0  0  0
 80155  1  0  0  0
 81156  1  0  0  0
 81157  1  0  0  0
 81158  1  0  0  0
 82159  1  0  0  0
 82160  1  0  0  0
 82161  1  0  0  0
 83162  1  0  0  0
 83163  1  0  0  0
 83164  1  0  0  0
 84 87  1  0  0  0
 84165  1  0  0  0
 84166  1  0  0  0
 85167  1  0  0  0
 85168  1  0  0  0
 85 88  1  0  0  0
 86169  1  0  0  0
 86170  1  0  0  0
 87171  1  0  0  0
 88172  1  0  0  0
M  CHG  1  88   1
M  ISO  4   1 100  68 101  86 101  87 100
M  END
> <chiral flag>
0

> <version>
0

> <s_m_source_file>
/data/baiqing/PycharmProjects/Reinvent-master-3.2/result/LINK_invent/BTK/process_docking_weight1_custom_sum_contain_oxygen_bond_distance_aromatic_linkinvent_7_9_3/rearranged_h_0158.sdf

> <i_m_source_file_index>
96

> <r_mmod_Potential_Energy-OPLS-2005>
-44.7242965698242

> <r_mmod_Stretch_Energy-OPLS-2005>
60.2637672424316

> <r_mmod_Bend_Energy-OPLS-2005>
152.546798706055

> <r_mmod_Torsional_Energy-OPLS-2005>
256.956848144531

> <r_mmod_Improper_Torsional_Energy-OPLS-2005>
4.64521217346191

> <r_mmod_Van_der_Waal_Energy-OPLS-2005>
155.808532714844

> <r_mmod_Electrostatic_Energy-OPLS-2005>
-286.901763916016

> <r_mmod_Solvation_Energy-OPLS-2005>
-412.786987304688

> <b_mmod_Minimization_Converged-OPLS-2005>
0

> <r_mmod_RMS_Derivative-OPLS-2005>
2.93233323097229

$$$$
96
                    3D
 Structure written by MMmdl.
162172  0  0  1  0            999 V2000
  -30.6096  -14.9005   20.4686 C   0  0  0  0  0  0
  -30.4330  -12.5702   19.4986 C   0  0  0  0  0  0
  -29.5158  -12.5459   18.2567 C   0  0  0  0  0  0
  -28.0466  -12.3505   18.6727 C   0  0  0  0  0  0
  -27.6358  -13.2621   19.8600 C   0  0  2  0  0  0
  -28.6848  -13.2507   20.9933 C   0  0  0  0  0  0
  -25.2400  -13.8246   20.5677 C   0  0  0  0  0  0
  -24.1759  -13.0436   20.9240 C   0  0  0  0  0  0
  -24.6428  -11.6943   20.8803 C   0  0  0  0  0  0
  -23.9121  -10.4294   21.0436 C   0  0  0  0  0  0
  -24.3649   -9.4195   21.9210 C   0  0  0  0  0  0
  -23.6311   -8.2237   22.0765 C   0  0  0  0  0  0
  -22.4294   -8.0285   21.3550 C   0  0  0  0  0  0
  -21.9947   -9.0269   20.4653 C   0  0  0  0  0  0
  -22.7297  -10.2137   20.3073 C   0  0  0  0  0  0
  -21.6855   -6.0734   22.5280 C   0  0  0  0  0  0
  -21.4008   -6.5634   23.8213 C   0  0  0  0  0  0
  -21.3663   -5.6789   24.9174 C   0  0  0  0  0  0
  -21.6049   -4.3054   24.7227 C   0  0  0  0  0  0
  -21.8818   -3.8143   23.4348 C   0  0  0  0  0  0
  -21.9191   -4.6959   22.3401 C   0  0  0  0  0  0
  -22.7767  -13.5174   21.1883 C   0  0  0  0  0  0
  -22.1660   -4.2145   21.0981 F   0  0  0  0  0  0
  -21.5639   -3.4540   25.7742 F   0  0  0  0  0  0
  -29.9607  -13.6665   20.3969 N   0  0  0  0  0  0
  -26.2918  -12.9541   20.3380 N   0  0  0  0  0  0
  -25.9384  -11.6646   20.5853 N   0  0  0  0  0  0
  -22.0440  -12.8141   22.0446 N   0  0  0  0  0  0
  -25.3910  -15.1958   20.3913 N   0  0  0  0  0  0
  -31.7936  -14.9169   20.1110 O   0  0  0  0  0  0
  -21.6646   -6.8884   21.4246 O   0  0  0  0  0  0
  -22.3428  -14.5477   20.6739 O   0  0  0  0  0  0
  -24.6420  -31.8470   23.1934 C   0  0  0  0  0  0
  -25.9193  -32.4714   23.8306 C   0  0  1  0  0  0
  -27.2072  -27.1413   20.1232 C   0  0  0  0  0  0
  -25.5959  -33.8527   24.2218 N   0  0  0  0  0  0
  -23.4443  -30.4721   21.5399 C   0  0  2  0  0  0
  -24.8920  -28.9127   20.1060 C   0  0  0  0  0  0
  -22.7549  -29.4575   22.4870 C   0  0  0  0  0  0
  -18.0311  -28.1362   22.8478 C   0  0  0  0  0  0
  -24.1487  -36.7261   23.2645 C   0  0  0  0  0  0
  -26.0028  -30.7187   21.3977 C   0  0  0  0  0  0
  -26.0697  -29.3328   20.7346 C   0  0  0  0  0  0
  -27.2217  -28.4580   20.7413 C   0  0  0  0  0  0
  -26.0004  -26.8412   19.4438 C   0  0  0  0  0  0
  -24.8707  -27.6791   19.4495 C   0  0  0  0  0  0
  -23.6695  -29.8117   20.1556 C   0  0  0  0  0  0
  -25.4121  -36.3047   24.0315 C   0  0  1  0  0  0
  -20.5926  -28.3700   23.1243 C   0  0  2  0  0  0
  -20.6816  -26.9413   22.5385 C   0  0  0  0  0  0
  -19.5776  -26.6361   21.5207 C   0  0  0  0  0  0
  -18.1964  -26.7900   22.1630 C   0  0  0  0  0  0
  -19.1567  -28.8843   23.2854 C   0  0  0  0  0  0
  -18.9490  -30.1438   23.8876 C   0  0  0  0  0  0
  -17.6491  -30.6564   24.0561 C   0  0  0  0  0  0
  -25.9065  -34.9416   23.5072 C   0  0  0  0  0  0
  -16.5378  -29.9063   23.6336 C   0  0  0  0  0  0
  -16.7298  -28.6481   23.0356 C   0  0  0  0  0  0
  -26.4522  -31.6576   25.0738 C   0  0  0  0  0  0
  -25.3718  -31.3758   26.1439 C   0  0  0  0  0  0
  -27.0406  -30.2979   24.6318 C   0  0  0  0  0  0
  -27.6039  -32.4357   25.7533 C   0  0  0  0  0  0
  -27.5566  -37.1786   24.8466 C   0  0  0  0  0  0
  -21.4240  -29.3082   22.3641 N   0  0  0  0  0  0
  -26.4282  -37.3752   23.9410 N   0  0  0  0  0  0
  -24.7170  -31.0325   22.0982 N   0  0  0  0  0  0
  -23.4202  -28.8092   23.2988 O   0  0  0  0  0  0
  -28.2527  -26.1458   20.2302 O   0  0  0  0  0  0
  -26.5648  -34.8907   22.4642 O   0  0  0  0  0  0
  -23.5543  -32.1344   23.7145 O   0  0  0  0  0  0
  -30.0779  -21.4054   20.9707 C   0  0  0  0  0  0
  -29.7645  -22.8070   20.7325 C   0  0  0  0  0  0
  -27.8426  -22.1197   19.5589 C   0  0  0  0  0  0
  -29.2926  -20.2793   20.5230 C   0  0  0  0  0  0
  -28.6023  -23.2505   20.0273 C   0  0  0  0  0  0
  -28.1501  -20.7089   19.7772 C   0  0  0  0  0  0
  -29.1603  -16.7239   22.9603 C   0  0  0  0  0  0
  -28.1014  -16.8668   21.8234 C   0  0  0  0  0  0
  -30.8424  -18.2819   21.7549 C   0  0  0  0  0  0
  -29.5669  -18.7361   21.0383 C   0  0  2  0  0  0
  -30.4958  -16.7963   22.1690 C   0  0  2  0  0  0
  -29.0188  -17.2210   20.6306 C   0  0  1  0  0  0
  -26.4117  -20.0081   18.2722 C   0  0  0  0  0  0
  -28.2105  -24.7693   19.5165 C   0  0  0  0  0  0
  -30.0334  -16.1027   20.9731 N   0  0  0  0  0  0
  -27.3535  -19.6942   19.2921 O   0  0  0  0  0  0
  -31.4703  -12.7010   19.1868 H   0  0  0  0  0  0
  -30.4104  -11.6109   20.0184 H   0  0  0  0  0  0
  -29.8214  -11.7532   17.5733 H   0  0  0  0  0  0
  -29.6201  -13.4839   17.7089 H   0  0  0  0  0  0
  -27.9236  -11.3046   18.9548 H   0  0  0  0  0  0
  -27.3853  -12.5159   17.8215 H   0  0  0  0  0  0
  -27.6113  -14.2788   19.4672 H   0  0  0  0  0  0
  -28.7645  -12.2564   21.4365 H   0  0  0  0  0  0
  -28.4076  -13.9171   21.8086 H   0  0  0  0  0  0
  -25.2788   -9.5644   22.4802 H   0  0  0  0  0  0
  -24.0010   -7.4608   22.7468 H   0  0  0  0  0  0
  -21.0892   -8.8805   19.8941 H   0  0  0  0  0  0
  -22.3787  -10.9683   19.6179 H   0  0  0  0  0  0
  -21.1995   -7.6144   23.9709 H   0  0  0  0  0  0
  -21.1495   -6.0526   25.9076 H   0  0  0  0  0  0
  -22.0599   -2.7610   23.2857 H   0  0  0  0  0  0
  -22.4075  -11.9798   22.4811 H   0  0  0  0  0  0
  -21.1063  -13.1148   22.2684 H   0  0  0  0  0  0
  -24.6175  -15.8429   20.4968 H   0  0  0  0  0  0
  -26.2356  -15.6413   20.0581 H   0  0  0  0  0  0
  -26.7260  -32.5323   23.1037 H   0  0  0  0  0  0
  -25.0100  -33.9655   25.0359 H   0  0  0  0  0  0
  -22.7450  -31.2985   21.3911 H   0  0  0  0  0  0
  -23.3752  -35.9586   23.3302 H   0  0  0  0  0  0
  -24.3568  -36.8901   22.2060 H   0  0  0  0  0  0
  -23.7232  -37.6451   23.6684 H   0  0  0  0  0  0
  -26.1607  -31.4751   20.6280 H   0  0  0  0  0  0
  -26.8736  -30.7660   22.0403 H   0  0  0  0  0  0
  -28.1107  -28.7681   21.2727 H   0  0  0  0  0  0
  -25.8355  -25.9256   18.9073 H   0  0  0  0  0  0
  -23.9721  -27.3559   18.9421 H   0  0  0  0  0  0
  -23.8025  -30.5908   19.4036 H   0  0  0  0  0  0
  -22.7849  -29.2525   19.8447 H   0  0  0  0  0  0
  -25.1306  -36.1877   25.0805 H   0  0  0  0  0  0
  -21.0016  -28.3234   24.1355 H   0  0  0  0  0  0
  -20.5725  -26.2296   23.3587 H   0  0  0  0  0  0
  -21.6677  -26.7448   22.1149 H   0  0  0  0  0  0
  -19.6946  -25.6280   21.1214 H   0  0  0  0  0  0
  -19.6699  -27.3150   20.6727 H   0  0  0  0  0  0
  -17.4233  -26.6633   21.4045 H   0  0  0  0  0  0
  -18.0374  -26.0048   22.9046 H   0  0  0  0  0  0
  -19.7975  -30.7242   24.2229 H   0  0  0  0  0  0
  -17.5074  -31.6232   24.5204 H   0  0  0  0  0  0
  -15.5389  -30.2970   23.7703 H   0  0  0  0  0  0
  -15.8705  -28.0776   22.7091 H   0  0  0  0  0  0
  -24.5853  -30.7165   25.7745 H   0  0  0  0  0  0
  -24.8966  -32.2952   26.4874 H   0  0  0  0  0  0
  -25.8004  -30.8898   27.0214 H   0  0  0  0  0  0
  -26.3037  -29.6696   24.1303 H   0  0  0  0  0  0
  -27.4004  -29.7278   25.4892 H   0  0  0  0  0  0
  -27.8946  -30.4230   23.9658 H   0  0  0  0  0  0
  -27.2587  -33.3639   26.2103 H   0  0  0  0  0  0
  -28.3853  -32.6964   25.0381 H   0  0  0  0  0  0
  -28.0704  -31.8506   26.5469 H   0  0  0  0  0  0
  -28.2590  -38.0078   24.7511 H   0  0  0  0  0  0
  -28.1065  -36.2612   24.6304 H   0  0  0  0  0  0
  -27.2288  -37.1439   25.8870 H   0  0  0  0  0  0
  -20.9415  -29.8841   21.6881 H   0  0  0  0  0  0
  -26.0157  -38.2821   24.1411 H   0  0  0  0  0  0
  -30.9651  -21.1988   21.5520 H   0  0  0  0  0  0
  -30.4554  -23.5574   21.0933 H   0  0  0  0  0  0
  -26.9688  -22.3663   18.9765 H   0  0  0  0  0  0
  -29.0895  -17.5176   23.7051 H   0  0  0  0  0  0
  -29.0473  -15.7736   23.4840 H   0  0  0  0  0  0
  -27.5833  -15.9262   21.6610 H   0  0  0  0  0  0
  -27.3301  -17.6097   22.0349 H   0  0  0  0  0  0
  -31.0681  -18.9059   22.6211 H   0  0  0  0  0  0
  -31.7018  -18.3135   21.0836 H   0  0  0  0  0  0
  -28.9615  -19.0057   21.9034 H   0  0  0  0  0  0
  -31.3195  -16.2958   22.6811 H   0  0  0  0  0  0
  -28.5528  -17.1366   19.6487 H   0  0  0  0  0  0
  -26.8706  -20.5774   17.4616 H   0  0  0  0  0  0
  -25.5654  -20.5679   18.6706 H   0  0  0  0  0  0
  -26.0253  -19.0850   17.8417 H   0  0  0  0  0  0
  -27.2289  -24.5909   19.1059 H   0  0  0  0  0  0
  -28.8254  -24.9193   18.6291 H   0  0  0  0  0  0
  1 25  1  0  0  0
  1 30  2  0  0  0
  1 85  1  0  0  0
  2  3  1  0  0  0
  2 25  1  0  0  0
  2 87  1  0  0  0
  2 88  1  0  0  0
  3  4  1  0  0  0
  3 89  1  0  0  0
  3 90  1  0  0  0
  4  5  1  0  0  0
  4 91  1  0  0  0
  4 92  1  0  0  0
  5  6  1  0  0  0
  5 26  1  0  0  0
  5 93  1  0  0  0
  6 25  1  0  0  0
  6 94  1  0  0  0
  6 95  1  0  0  0
  7  8  2  0  0  0
  7 26  1  0  0  0
  7 29  1  0  0  0
  8  9  1  0  0  0
  8 22  1  0  0  0
  9 10  1  0  0  0
  9 27  2  0  0  0
 10 11  2  0  0  0
 10 15  1  0  0  0
 11 12  1  0  0  0
 11 96  1  0  0  0
 12 13  2  0  0  0
 12 97  1  0  0  0
 13 14  1  0  0  0
 13 31  1  0  0  0
 14 15  2  0  0  0
 14 98  1  0  0  0
 15 99  1  0  0  0
 16 17  2  0  0  0
 16 21  1  0  0  0
 16 31  1  0  0  0
 17 18  1  0  0  0
 17100  1  0  0  0
 18 19  2  0  0  0
 18101  1  0  0  0
 19 20  1  0  0  0
 19 24  1  0  0  0
 20 21  2  0  0  0
 20102  1  0  0  0
 21 23  1  0  0  0
 22 28  1  0  0  0
 22 32  2  0  0  0
 26 27  1  0  0  0
 28103  1  0  0  0
 28104  1  0  0  0
 29105  1  0  0  0
 29106  1  0  0  0
 33 34  1  0  0  0
 33 66  1  0  0  0
 33 70  2  0  0  0
 34 36  1  0  0  0
 34 59  1  0  0  0
 34107  1  0  0  0
 35 44  2  0  0  0
 35 45  1  0  0  0
 35 68  1  0  0  0
 36 56  1  0  0  0
 36108  1  0  0  0
 37 39  1  0  0  0
 37 47  1  0  0  0
 37 66  1  0  0  0
 37109  1  0  0  0
 38 43  2  0  0  0
 38 46  1  0  0  0
 38 47  1  0  0  0
 39 64  1  0  0  0
 39 67  2  0  0  0
 40 52  1  0  0  0
 40 53  2  0  0  0
 40 58  1  0  0  0
 41110  1  0  0  0
 41111  1  0  0  0
 41112  1  0  0  0
 41 48  1  0  0  0
 42 43  1  0  0  0
 42 66  1  0  0  0
 42113  1  0  0  0
 42114  1  0  0  0
 43 44  1  0  0  0
 44115  1  0  0  0
 45 46  2  0  0  0
 45116  1  0  0  0
 46117  1  0  0  0
 47118  1  0  0  0
 47119  1  0  0  0
 48 56  1  0  0  0
 48 65  1  0  0  0
 48120  1  0  0  0
 49 50  1  0  0  0
 49 53  1  0  0  0
 49 64  1  0  0  0
 49121  1  0  0  0
 50 51  1  0  0  0
 50122  1  0  0  0
 50123  1  0  0  0
 51 52  1  0  0  0
 51124  1  0  0  0
 51125  1  0  0  0
 52126  1  0  0  0
 52127  1  0  0  0
 53 54  1  0  0  0
 54 55  2  0  0  0
 54128  1  0  0  0
 55 57  1  0  0  0
 55129  1  0  0  0
 56 69  2  0  0  0
 57 58  2  0  0  0
 57130  1  0  0  0
 58131  1  0  0  0
 59 60  1  0  0  0
 59 61  1  0  0  0
 59 62  1  0  0  0
 60132  1  0  0  0
 60133  1  0  0  0
 60134  1  0  0  0
 61135  1  0  0  0
 61136  1  0  0  0
 61137  1  0  0  0
 62138  1  0  0  0
 62139  1  0  0  0
 62140  1  0  0  0
 63 65  1  0  0  0
 63141  1  0  0  0
 63142  1  0  0  0
 63143  1  0  0  0
 64144  1  0  0  0
 65145  1  0  0  0
 68 84  1  0  0  0
 71 72  2  0  0  0
 71 74  1  0  0  0
 71146  1  0  0  0
 72 75  1  0  0  0
 72147  1  0  0  0
 73 75  2  0  0  0
 73 76  1  0  0  0
 73148  1  0  0  0
 74 76  2  0  0  0
 74 80  1  0  0  0
 75 84  1  0  0  0
 76 86  1  0  0  0
 77 78  1  0  0  0
 77149  1  0  0  0
 77150  1  0  0  0
 77 81  1  0  0  0
 78151  1  0  0  0
 78152  1  0  0  0
 78 82  1  0  0  0
 79 80  1  0  0  0
 79 81  1  0  0  0
 79153  1  0  0  0
 79154  1  0  0  0
 80 82  1  0  0  0
 80155  1  0  0  0
 81 85  1  0  0  0
 81156  1  0  0  0
 82 85  1  0  0  0
 82157  1  0  0  0
 83 86  1  0  0  0
 83158  1  0  0  0
 83159  1  0  0  0
 83160  1  0  0  0
 84161  1  0  0  0
 84162  1  0  0  0
M  ISO  4   1 100  68 101  84 101  85 100
M  END
> <chiral flag>
0

> <version>
0

> <s_m_source_file>
/data/baiqing/PycharmProjects/Reinvent-master-3.2/result/LINK_invent/BTK/process_docking_weight1_custom_sum_contain_oxygen_bond_distance_aromatic_linkinvent_7_9_3/rearranged_h_0158.sdf

> <i_m_source_file_index>
97

> <r_mmod_Potential_Energy-OPLS-2005>
1007.05078125

> <r_mmod_Stretch_Energy-OPLS-2005>
222.641967773438

> <r_mmod_Bend_Energy-OPLS-2005>
503.044921875

> <r_mmod_Torsional_Energy-OPLS-2005>
421.277282714844

> <r_mmod_Improper_Torsional_Energy-OPLS-2005>
4.70161390304565

> <r_mmod_Van_der_Waal_Energy-OPLS-2005>
152.992263793945

> <r_mmod_Electrostatic_Energy-OPLS-2005>
-269.927764892578

> <r_mmod_Solvation_Energy-OPLS-2005>
-198.297393798828

> <b_mmod_Minimization_Converged-OPLS-2005>
0

> <r_mmod_RMS_Derivative-OPLS-2005>
2.13190507888794

$$$$
97
                    3D
 Structure written by MMmdl.
180190  0  0  1  0            999 V2000
  -30.6965  -14.5562   20.5289 C   0  0  0  0  0  0
  -30.4289  -12.3481   19.4521 C   0  0  0  0  0  0
  -29.5147  -12.4887   18.2169 C   0  0  0  0  0  0
  -28.0404  -12.3253   18.6377 C   0  0  0  0  0  0
  -27.6564  -13.2108   19.8552 C   0  0  2  0  0  0
  -28.6966  -13.0753   20.9879 C   0  0  0  0  0  0
  -25.2555  -13.8137   20.5715 C   0  0  0  0  0  0
  -24.1794  -13.0407   20.9153 C   0  0  0  0  0  0
  -24.6338  -11.6877   20.8665 C   0  0  0  0  0  0
  -23.8985  -10.4282   21.0379 C   0  0  0  0  0  0
  -24.3554   -9.4235   21.9172 C   0  0  0  0  0  0
  -23.6255   -8.2251   22.0764 C   0  0  0  0  0  0
  -22.4238   -8.0254   21.3544 C   0  0  0  0  0  0
  -21.9832   -9.0234   20.4669 C   0  0  0  0  0  0
  -22.7149  -10.2121   20.3072 C   0  0  0  0  0  0
  -21.6858   -6.0701   22.5251 C   0  0  0  0  0  0
  -21.4042   -6.5598   23.8194 C   0  0  0  0  0  0
  -21.3687   -5.6744   24.9146 C   0  0  0  0  0  0
  -21.6039   -4.3018   24.7220 C   0  0  0  0  0  0
  -21.8806   -3.8112   23.4346 C   0  0  0  0  0  0
  -21.9197   -4.6929   22.3398 C   0  0  0  0  0  0
  -22.7829  -13.5239   21.1792 C   0  0  0  0  0  0
  -22.1646   -4.2105   21.0987 F   0  0  0  0  0  0
  -21.5655   -3.4517   25.7771 F   0  0  0  0  0  0
  -30.0201  -13.3768   20.4256 N   0  0  0  0  0  0
  -26.3001  -12.9309   20.3270 N   0  0  0  0  0  0
  -25.9268  -11.6463   20.5653 N   0  0  0  0  0  0
  -22.0386  -12.8348   22.0371 N   0  0  0  0  0  0
  -25.4181  -15.1889   20.4250 N   0  0  0  0  0  0
  -31.8670  -14.6724   20.1582 O   0  0  0  0  0  0
  -21.6596   -6.8851   21.4228 O   0  0  0  0  0  0
  -22.3562  -14.5529   20.6608 O   0  0  0  0  0  0
  -24.6216  -31.8619   23.2097 C   0  0  0  0  0  0
  -25.9036  -32.4830   23.8417 C   0  0  1  0  0  0
  -27.2860  -27.4089   20.0774 C   0  0  0  0  0  0
  -25.5846  -33.8629   24.2325 N   0  0  0  0  0  0
  -23.4221  -30.4810   21.5503 C   0  0  2  0  0  0
  -24.8853  -28.9465   20.1289 C   0  0  0  0  0  0
  -22.7463  -29.4595   22.4944 C   0  0  0  0  0  0
  -18.0269  -28.1388   22.8487 C   0  0  0  0  0  0
  -24.1470  -36.7338   23.2645 C   0  0  0  0  0  0
  -25.9610  -30.8128   21.3784 C   0  0  0  0  0  0
  -26.0537  -29.4430   20.7307 C   0  0  0  0  0  0
  -27.2594  -28.6823   20.7105 C   0  0  0  0  0  0
  -26.0924  -26.9408   19.4859 C   0  0  0  0  0  0
  -24.8998  -27.6869   19.5095 C   0  0  0  0  0  0
  -23.6457  -29.8122   20.1695 C   0  0  0  0  0  0
  -25.4093  -36.3125   24.0336 C   0  0  1  0  0  0
  -20.5872  -28.3660   23.1287 C   0  0  2  0  0  0
  -20.6751  -26.9367   22.5438 C   0  0  0  0  0  0
  -19.5748  -26.6371   21.5201 C   0  0  0  0  0  0
  -18.1903  -26.7936   22.1586 C   0  0  0  0  0  0
  -19.1529  -28.8839   23.2892 C   0  0  0  0  0  0
  -18.9452  -30.1449   23.8908 C   0  0  0  0  0  0
  -17.6461  -30.6585   24.0562 C   0  0  0  0  0  0
  -25.9015  -34.9486   23.5135 C   0  0  0  0  0  0
  -16.5345  -29.9094   23.6345 C   0  0  0  0  0  0
  -16.7264  -28.6509   23.0362 C   0  0  0  0  0  0
  -26.4496  -31.6648   25.0768 C   0  0  0  0  0  0
  -25.3750  -31.3760   26.1525 C   0  0  0  0  0  0
  -27.0328  -30.3082   24.6173 C   0  0  0  0  0  0
  -27.6058  -32.4393   25.7484 C   0  0  0  0  0  0
  -27.5584  -37.1801   24.8433 C   0  0  0  0  0  0
  -21.4183  -29.3007   22.3671 N   0  0  0  0  0  0
  -26.4277  -37.3816   23.9419 N   0  0  0  0  0  0
  -24.6857  -31.0653   22.1044 N   0  0  0  0  0  0
  -23.4189  -28.8110   23.3001 O   0  0  0  0  0  0
  -28.3468  -26.5141   19.9471 O   0  0  0  0  0  0
  -26.5598  -34.8935   22.4711 O   0  0  0  0  0  0
  -23.5355  -32.1357   23.7428 O   0  0  0  0  0  0
  -31.0416  -23.3240   18.4237 C   0  0  0  0  0  0
  -30.4522  -22.2595   20.5266 C   0  0  0  0  0  0
  -30.2198  -21.0267   18.4475 C   0  0  0  0  0  0
  -30.9297  -23.4128   19.8326 C   0  0  0  0  0  0
  -30.6864  -22.1489   17.7348 C   0  0  0  0  0  0
  -30.1361  -21.0442   19.8581 C   0  0  0  0  0  0
  -30.6306  -26.5989   19.2031 C   0  0  0  0  0  0
  -31.8718  -25.8564   19.6889 C   0  0  0  0  0  0
  -29.9468  -17.9917   21.9780 C   0  0  0  0  0  0
  -30.3461  -17.7710   19.4809 C   0  0  0  0  0  0
  -30.1591  -25.4189   21.2703 C   0  0  0  0  0  0
  -30.3007  -16.4692   22.0411 C   0  0  0  0  0  0
  -29.4689  -16.5161   19.7189 C   0  0  0  0  0  0
  -29.6933  -26.6547   20.4202 C   0  0  2  0  0  0
  -30.4209  -18.7415   20.6950 C   0  0  0  0  0  0
  -31.3844  -24.6952   20.6047 C   0  0  1  0  0  0
  -30.8130  -22.0842   16.2228 C   0  0  0  0  0  0
  -32.2879  -23.6881   22.9054 C   0  0  0  0  0  0
  -33.6879  -23.4974   20.8227 C   0  0  0  0  0  0
  -32.6087  -24.3397   21.5439 C   0  0  0  0  0  0
  -29.9633  -15.6752   20.8333 N   0  0  0  0  0  0
  -29.6346  -19.9551   20.5701 O   0  0  0  0  0  0
  -31.4814  -12.4341   19.1739 H   0  0  0  0  0  0
  -30.3233  -11.3597   19.8950 H   0  0  0  0  0  0
  -29.7845  -11.7393   17.4686 H   0  0  0  0  0  0
  -29.6586  -13.4579   17.7379 H   0  0  0  0  0  0
  -27.8904  -11.2739   18.8927 H   0  0  0  0  0  0
  -27.3796  -12.5298   17.7927 H   0  0  0  0  0  0
  -27.6734  -14.2419   19.5029 H   0  0  0  0  0  0
  -28.6814  -12.0724   21.4121 H   0  0  0  0  0  0
  -28.4501  -13.7529   21.8088 H   0  0  0  0  0  0
  -25.2704   -9.5756   22.4696 H   0  0  0  0  0  0
  -23.9995   -7.4642   22.7465 H   0  0  0  0  0  0
  -21.0769   -8.8749   19.8973 H   0  0  0  0  0  0
  -22.3593  -10.9639   19.6187 H   0  0  0  0  0  0
  -21.2014   -7.6091   23.9711 H   0  0  0  0  0  0
  -21.1531   -6.0448   25.9046 H   0  0  0  0  0  0
  -22.0567   -2.7575   23.2836 H   0  0  0  0  0  0
  -22.3986  -12.0141   22.5004 H   0  0  0  0  0  0
  -21.1010  -13.1483   22.2441 H   0  0  0  0  0  0
  -24.6407  -15.8294   20.5445 H   0  0  0  0  0  0
  -26.2717  -15.6464   20.1419 H   0  0  0  0  0  0
  -26.7107  -32.5539   23.1180 H   0  0  0  0  0  0
  -24.9953  -33.9798   25.0429 H   0  0  0  0  0  0
  -22.7128  -31.2988   21.4013 H   0  0  0  0  0  0
  -23.3732  -35.9659   23.3299 H   0  0  0  0  0  0
  -24.3551  -36.8982   22.2057 H   0  0  0  0  0  0
  -23.7219  -37.6529   23.6697 H   0  0  0  0  0  0
  -26.0747  -31.5741   20.6053 H   0  0  0  0  0  0
  -26.8475  -30.8761   21.9996 H   0  0  0  0  0  0
  -28.1550  -29.0762   21.1700 H   0  0  0  0  0  0
  -26.0842  -25.9785   18.9921 H   0  0  0  0  0  0
  -24.0076  -27.2960   19.0433 H   0  0  0  0  0  0
  -23.7551  -30.5849   19.4075 H   0  0  0  0  0  0
  -22.7747  -29.2261   19.8673 H   0  0  0  0  0  0
  -25.1260  -36.1997   25.0823 H   0  0  0  0  0  0
  -20.9981  -28.3247   24.1408 H   0  0  0  0  0  0
  -20.5584  -26.2249   23.3640 H   0  0  0  0  0  0
  -21.6627  -26.7357   22.1276 H   0  0  0  0  0  0
  -19.6894  -25.6279   21.1237 H   0  0  0  0  0  0
  -19.6738  -27.3178   20.6729 H   0  0  0  0  0  0
  -17.4197  -26.6716   21.3975 H   0  0  0  0  0  0
  -18.0286  -26.0071   22.8965 H   0  0  0  0  0  0
  -19.7932  -30.7244   24.2302 H   0  0  0  0  0  0
  -17.5017  -31.6268   24.5163 H   0  0  0  0  0  0
  -15.5353  -30.2990   23.7694 H   0  0  0  0  0  0
  -15.8646  -28.0826   22.7107 H   0  0  0  0  0  0
  -24.5923  -30.7128   25.7878 H   0  0  0  0  0  0
  -24.8964  -32.2919   26.4991 H   0  0  0  0  0  0
  -25.8113  -30.8931   27.0287 H   0  0  0  0  0  0
  -26.2887  -29.6825   24.1269 H   0  0  0  0  0  0
  -27.4125  -29.7357   25.4647 H   0  0  0  0  0  0
  -27.8711  -30.4395   23.9325 H   0  0  0  0  0  0
  -27.2696  -33.3699   26.2073 H   0  0  0  0  0  0
  -28.3842  -32.6977   25.0288 H   0  0  0  0  0  0
  -28.0799  -31.8551   26.5387 H   0  0  0  0  0  0
  -28.2579  -38.0130   24.7546 H   0  0  0  0  0  0
  -28.1115  -36.2670   24.6165 H   0  0  0  0  0  0
  -27.2323  -37.1331   25.8841 H   0  0  0  0  0  0
  -20.9338  -29.8718   21.6879 H   0  0  0  0  0  0
  -26.0165  -38.2874   24.1520 H   0  0  0  0  0  0
  -31.4094  -24.1520   17.8375 H   0  0  0  0  0  0
  -30.3290  -22.2972   21.5963 H   0  0  0  0  0  0
  -29.9060  -20.1742   17.8737 H   0  0  0  0  0  0
  -30.1850  -26.0285   18.3858 H   0  0  0  0  0  0
  -30.8672  -27.5864   18.8078 H   0  0  0  0  0  0
  -32.4375  -26.5878   20.2766 H   0  0  0  0  0  0
  -32.5599  -25.5539   18.9012 H   0  0  0  0  0  0
  -30.3531  -18.4846   22.8653 H   0  0  0  0  0  0
  -28.8607  -18.0909   22.0629 H   0  0  0  0  0  0
  -29.9876  -18.2630   18.5810 H   0  0  0  0  0  0
  -31.3642  -17.4486   19.2442 H   0  0  0  0  0  0
  -29.3446  -24.7195   21.4575 H   0  0  0  0  0  0
  -30.4539  -25.8087   22.2430 H   0  0  0  0  0  0
  -29.7895  -16.0209   22.8926 H   0  0  0  0  0  0
  -31.3691  -16.3808   22.2581 H   0  0  0  0  0  0
  -29.4194  -15.9368   18.7914 H   0  0  0  0  0  0
  -28.4376  -16.8230   19.9202 H   0  0  0  0  0  0
  -29.8480  -27.5837   20.9711 H   0  0  0  0  0  0
  -31.4623  -19.0275   20.8441 H   0  0  0  0  0  0
  -31.4394  -22.8895   15.8349 H   0  0  0  0  0  0
  -29.8353  -22.1571   15.7417 H   0  0  0  0  0  0
  -31.2723  -21.1414   15.9218 H   0  0  0  0  0  0
  -31.4444  -24.1553   23.4102 H   0  0  0  0  0  0
  -33.1418  -23.8057   23.5735 H   0  0  0  0  0  0
  -32.0961  -22.6175   22.8326 H   0  0  0  0  0  0
  -33.9770  -23.9408   19.8702 H   0  0  0  0  0  0
  -33.3436  -22.4835   20.6114 H   0  0  0  0  0  0
  -34.5986  -23.4071   21.4158 H   0  0  0  0  0  0
  -33.0918  -25.2743   21.8259 H   0  0  0  0  0  0
  1 25  1  0  0  0
  1 30  2  0  0  0
  1 91  1  0  0  0
  2  3  1  0  0  0
  2 25  1  0  0  0
  2 93  1  0  0  0
  2 94  1  0  0  0
  3  4  1  0  0  0
  3 95  1  0  0  0
  3 96  1  0  0  0
  4  5  1  0  0  0
  4 97  1  0  0  0
  4 98  1  0  0  0
  5  6  1  0  0  0
  5 26  1  0  0  0
  5 99  1  0  0  0
  6 25  1  0  0  0
  6100  1  0  0  0
  6101  1  0  0  0
  7  8  2  0  0  0
  7 26  1  0  0  0
  7 29  1  0  0  0
  8  9  1  0  0  0
  8 22  1  0  0  0
  9 10  1  0  0  0
  9 27  2  0  0  0
 10 11  2  0  0  0
 10 15  1  0  0  0
 11 12  1  0  0  0
 11102  1  0  0  0
 12 13  2  0  0  0
 12103  1  0  0  0
 13 14  1  0  0  0
 13 31  1  0  0  0
 14 15  2  0  0  0
 14104  1  0  0  0
 15105  1  0  0  0
 16 17  2  0  0  0
 16 21  1  0  0  0
 16 31  1  0  0  0
 17 18  1  0  0  0
 17106  1  0  0  0
 18 19  2  0  0  0
 18107  1  0  0  0
 19 20  1  0  0  0
 19 24  1  0  0  0
 20 21  2  0  0  0
 20108  1  0  0  0
 21 23  1  0  0  0
 22 28  1  0  0  0
 22 32  2  0  0  0
 26 27  1  0  0  0
 28109  1  0  0  0
 28110  1  0  0  0
 29111  1  0  0  0
 29112  1  0  0  0
 33 34  1  0  0  0
 33 66  1  0  0  0
 33 70  2  0  0  0
 34 36  1  0  0  0
 34 59  1  0  0  0
 34113  1  0  0  0
 35 44  2  0  0  0
 35 45  1  0  0  0
 35 68  1  0  0  0
 36 56  1  0  0  0
 36114  1  0  0  0
 37 39  1  0  0  0
 37 47  1  0  0  0
 37 66  1  0  0  0
 37115  1  0  0  0
 38 43  2  0  0  0
 38 46  1  0  0  0
 38 47  1  0  0  0
 39 64  1  0  0  0
 39 67  2  0  0  0
 40 52  1  0  0  0
 40 53  2  0  0  0
 40 58  1  0  0  0
 41116  1  0  0  0
 41117  1  0  0  0
 41118  1  0  0  0
 41 48  1  0  0  0
 42 43  1  0  0  0
 42 66  1  0  0  0
 42119  1  0  0  0
 42120  1  0  0  0
 43 44  1  0  0  0
 44121  1  0  0  0
 45 46  2  0  0  0
 45122  1  0  0  0
 46123  1  0  0  0
 47124  1  0  0  0
 47125  1  0  0  0
 48 56  1  0  0  0
 48 65  1  0  0  0
 48126  1  0  0  0
 49 50  1  0  0  0
 49 53  1  0  0  0
 49 64  1  0  0  0
 49127  1  0  0  0
 50 51  1  0  0  0
 50128  1  0  0  0
 50129  1  0  0  0
 51 52  1  0  0  0
 51130  1  0  0  0
 51131  1  0  0  0
 52132  1  0  0  0
 52133  1  0  0  0
 53 54  1  0  0  0
 54 55  2  0  0  0
 54134  1  0  0  0
 55 57  1  0  0  0
 55135  1  0  0  0
 56 69  2  0  0  0
 57 58  2  0  0  0
 57136  1  0  0  0
 58137  1  0  0  0
 59 60  1  0  0  0
 59 61  1  0  0  0
 59 62  1  0  0  0
 60138  1  0  0  0
 60139  1  0  0  0
 60140  1  0  0  0
 61141  1  0  0  0
 61142  1  0  0  0
 61143  1  0  0  0
 62144  1  0  0  0
 62145  1  0  0  0
 62146  1  0  0  0
 63 65  1  0  0  0
 63147  1  0  0  0
 63148  1  0  0  0
 63149  1  0  0  0
 64150  1  0  0  0
 65151  1  0  0  0
 68 84  1  0  0  0
 71 74  2  0  0  0
 71 75  1  0  0  0
 71152  1  0  0  0
 72 74  1  0  0  0
 72 76  2  0  0  0
 72153  1  0  0  0
 73 75  2  0  0  0
 73 76  1  0  0  0
 73154  1  0  0  0
 74 86  1  0  0  0
 75 87  1  0  0  0
 76 92  1  0  0  0
 77 78  1  0  0  0
 77 84  1  0  0  0
 77155  1  0  0  0
 77156  1  0  0  0
 78 86  1  0  0  0
 78157  1  0  0  0
 78158  1  0  0  0
 79 82  1  0  0  0
 79 85  1  0  0  0
 79159  1  0  0  0
 79160  1  0  0  0
 80 83  1  0  0  0
 80 85  1  0  0  0
 80161  1  0  0  0
 80162  1  0  0  0
 81 84  1  0  0  0
 81 86  1  0  0  0
 81163  1  0  0  0
 81164  1  0  0  0
 82 91  1  0  0  0
 82165  1  0  0  0
 82166  1  0  0  0
 83 91  1  0  0  0
 83167  1  0  0  0
 83168  1  0  0  0
 84169  1  0  0  0
 85 92  1  0  0  0
 85170  1  0  0  0
 86 90  1  0  0  0
 87171  1  0  0  0
 87172  1  0  0  0
 87173  1  0  0  0
 88174  1  0  0  0
 88175  1  0  0  0
 88176  1  0  0  0
 88 90  1  0  0  0
 89 90  1  0  0  0
 89177  1  0  0  0
 89178  1  0  0  0
 89179  1  0  0  0
 90180  1  0  0  0
M  ISO  4   1 100  68 101  84 101  91 100
M  END
> <chiral flag>
0

> <version>
0

> <s_m_source_file>
/data/baiqing/PycharmProjects/Reinvent-master-3.2/result/LINK_invent/BTK/process_docking_weight1_custom_sum_contain_oxygen_bond_distance_aromatic_linkinvent_7_9_3/rearranged_h_0158.sdf

> <i_m_source_file_index>
98

> <r_mmod_Potential_Energy-OPLS-2005>
389.142272949219

> <r_mmod_Stretch_Energy-OPLS-2005>
64.964714050293

> <r_mmod_Bend_Energy-OPLS-2005>
196.164764404297

> <r_mmod_Torsional_Energy-OPLS-2005>
437.057739257812

> <r_mmod_Improper_Torsional_Energy-OPLS-2005>
8.44633865356445

> <r_mmod_Van_der_Waal_Energy-OPLS-2005>
153.789535522461

> <r_mmod_Electrostatic_Energy-OPLS-2005>
-315.175720214844

> <r_mmod_Solvation_Energy-OPLS-2005>
-186.958969116211

> <b_mmod_Minimization_Converged-OPLS-2005>
0

> <r_mmod_RMS_Derivative-OPLS-2005>
7.69048881530762

$$$$
98
                    3D
 Structure written by MMmdl.
178187  0  0  1  0            999 V2000
  -30.6719  -14.4758   20.5690 C   0  0  0  0  0  0
  -30.4199  -12.2959   19.4251 C   0  0  0  0  0  0
  -29.4957  -12.4951   18.2074 C   0  0  0  0  0  0
  -28.0134  -12.3727   18.6119 C   0  0  0  0  0  0
  -27.6634  -13.2009   19.8762 C   0  0  2  0  0  0
  -28.7015  -12.9740   20.9968 C   0  0  0  0  0  0
  -25.2646  -13.8186   20.5725 C   0  0  0  0  0  0
  -24.1862  -13.0445   20.9192 C   0  0  0  0  0  0
  -24.6389  -11.6918   20.8700 C   0  0  0  0  0  0
  -23.9043  -10.4306   21.0388 C   0  0  0  0  0  0
  -24.3633   -9.4241   21.9175 C   0  0  0  0  0  0
  -23.6321   -8.2261   22.0764 C   0  0  0  0  0  0
  -22.4287   -8.0290   21.3564 C   0  0  0  0  0  0
  -21.9915   -9.0255   20.4662 C   0  0  0  0  0  0
  -22.7208  -10.2144   20.3058 C   0  0  0  0  0  0
  -21.6860   -6.0740   22.5296 C   0  0  0  0  0  0
  -21.3998   -6.5658   23.8211 C   0  0  0  0  0  0
  -21.3665   -5.6828   24.9196 C   0  0  0  0  0  0
  -21.6060   -4.3093   24.7248 C   0  0  0  0  0  0
  -21.8802   -3.8159   23.4376 C   0  0  0  0  0  0
  -21.9197   -4.6970   22.3412 C   0  0  0  0  0  0
  -22.7915  -13.5299   21.1837 C   0  0  0  0  0  0
  -22.1656   -4.2124   21.0997 F   0  0  0  0  0  0
  -21.5643   -3.4584   25.7774 F   0  0  0  0  0  0
  -30.0303  -13.2829   20.4424 N   0  0  0  0  0  0
  -26.3030  -12.9301   20.3350 N   0  0  0  0  0  0
  -25.9317  -11.6466   20.5734 N   0  0  0  0  0  0
  -22.0557  -12.8265   22.0388 N   0  0  0  0  0  0
  -25.4494  -15.1878   20.4141 N   0  0  0  0  0  0
  -31.7968  -14.6893   20.1060 O   0  0  0  0  0  0
  -21.6666   -6.8871   21.4236 O   0  0  0  0  0  0
  -22.3613  -14.5600   20.6685 O   0  0  0  0  0  0
  -24.6120  -31.8653   23.2171 C   0  0  0  0  0  0
  -25.9013  -32.4825   23.8441 C   0  0  1  0  0  0
  -27.2452  -27.4502   20.0693 C   0  0  0  0  0  0
  -25.5894  -33.8627   24.2391 N   0  0  0  0  0  0
  -23.4014  -30.4867   21.5546 C   0  0  2  0  0  0
  -24.8535  -28.9703   20.1104 C   0  0  0  0  0  0
  -22.7422  -29.4603   22.5022 C   0  0  0  0  0  0
  -18.0240  -28.1341   22.8540 C   0  0  0  0  0  0
  -24.1473  -36.7351   23.2648 C   0  0  0  0  0  0
  -25.9289  -30.8326   21.3739 C   0  0  0  0  0  0
  -26.0085  -29.4668   20.7261 C   0  0  0  0  0  0
  -27.2040  -28.7089   20.7138 C   0  0  0  0  0  0
  -26.0781  -26.9962   19.4076 C   0  0  0  0  0  0
  -24.8827  -27.7351   19.4488 C   0  0  0  0  0  0
  -23.6165  -29.8314   20.1635 C   0  0  0  0  0  0
  -25.4085  -36.3153   24.0365 C   0  0  1  0  0  0
  -20.5832  -28.3715   23.1416 C   0  0  2  0  0  0
  -20.6772  -26.9422   22.5627 C   0  0  0  0  0  0
  -19.5788  -26.6188   21.5476 C   0  0  0  0  0  0
  -18.1922  -26.7817   22.1819 C   0  0  0  0  0  0
  -19.1475  -28.8851   23.2924 C   0  0  0  0  0  0
  -18.9383  -30.1441   23.8958 C   0  0  0  0  0  0
  -17.6397  -30.6565   24.0539 C   0  0  0  0  0  0
  -25.8997  -34.9505   23.5182 C   0  0  0  0  0  0
  -16.5308  -29.9068   23.6291 C   0  0  0  0  0  0
  -16.7242  -28.6467   23.0397 C   0  0  0  0  0  0
  -26.4487  -31.6574   25.0729 C   0  0  0  0  0  0
  -25.3745  -31.3689   26.1473 C   0  0  0  0  0  0
  -27.0294  -30.3003   24.6068 C   0  0  0  0  0  0
  -27.6082  -32.4271   25.7471 C   0  0  0  0  0  0
  -27.5569  -37.1848   24.8468 C   0  0  0  0  0  0
  -21.4141  -29.3047   22.3814 N   0  0  0  0  0  0
  -26.4280  -37.3832   23.9420 N   0  0  0  0  0  0
  -24.6656  -31.0763   22.1067 N   0  0  0  0  0  0
  -23.4212  -28.8140   23.3037 O   0  0  0  0  0  0
  -28.4224  -26.7246   20.0591 O   0  0  0  0  0  0
  -26.5565  -34.8965   22.4731 O   0  0  0  0  0  0
  -23.5322  -32.1377   23.7579 O   0  0  0  0  0  0
  -26.2727  -22.3393   23.3336 C   0  0  0  0  0  0
  -28.3271  -22.3311   21.4489 C   0  0  0  0  0  0
  -26.6555  -21.1205   22.7394 C   0  0  0  0  0  0
  -27.6741  -21.1112   21.7514 C   0  0  0  0  0  0
  -26.8444  -23.5781   22.9610 C   0  0  0  0  0  0
  -27.9379  -23.5654   22.0335 C   0  0  0  0  0  0
  -30.4176  -17.6123   19.7958 C   0  0  0  0  0  0
  -30.2779  -19.0932   20.1936 C   0  0  0  0  0  0
  -29.0770  -17.7505   21.7553 C   0  0  0  0  0  0
  -30.2212  -16.9073   21.1410 C   0  0  1  0  0  0
  -25.8862  -19.8731   23.1376 C   0  0  0  0  0  0
  -25.2749  -25.4683   22.3765 C   0  0  0  0  0  0
  -26.9292  -25.8846   24.2777 C   0  0  0  0  0  0
  -30.2029  -24.7376   21.8185 C   0  0  0  0  0  0
  -27.9945  -19.8650   20.9085 C   0  0  0  0  0  0
  -28.3389  -25.2908   20.1664 C   0  0  0  0  0  0
  -26.1155  -24.8364   23.4884 C   0  0  0  0  0  0
  -28.6867  -24.8370   21.5971 C   0  0  1  0  0  0
  -29.9160  -15.4635   21.0830 N   0  0  0  0  0  0
  -29.2580  -19.1532   21.2760 N   0  3  2  0  0  0
  -31.4676  -12.3840   19.1339 H   0  0  0  0  0  0
  -30.3053  -11.2865   19.8239 H   0  0  0  0  0  0
  -29.7306  -11.7602   17.4371 H   0  0  0  0  0  0
  -29.6802  -13.4755   17.7631 H   0  0  0  0  0  0
  -27.8139  -11.3166   18.8029 H   0  0  0  0  0  0
  -27.3681  -12.6644   17.7820 H   0  0  0  0  0  0
  -27.7123  -14.2492   19.5846 H   0  0  0  0  0  0
  -28.6776  -11.9384   21.3358 H   0  0  0  0  0  0
  -28.4678  -13.5719   21.8790 H   0  0  0  0  0  0
  -25.2772   -9.5754   22.4768 H   0  0  0  0  0  0
  -24.0045   -7.4655   22.7496 H   0  0  0  0  0  0
  -21.0851   -8.8760   19.8988 H   0  0  0  0  0  0
  -22.3628  -10.9701   19.6211 H   0  0  0  0  0  0
  -21.1941   -7.6152   23.9702 H   0  0  0  0  0  0
  -21.1515   -6.0569   25.9094 H   0  0  0  0  0  0
  -22.0556   -2.7607   23.2888 H   0  0  0  0  0  0
  -22.4184  -11.9934   22.4750 H   0  0  0  0  0  0
  -21.1184  -13.1281   22.2592 H   0  0  0  0  0  0
  -24.7009  -15.8616   20.5280 H   0  0  0  0  0  0
  -26.2949  -15.6001   20.0389 H   0  0  0  0  0  0
  -26.7050  -32.5591   23.1196 H   0  0  0  0  0  0
  -25.0010  -33.9791   25.0521 H   0  0  0  0  0  0
  -22.6895  -31.3046   21.4205 H   0  0  0  0  0  0
  -23.3728  -35.9681   23.3305 H   0  0  0  0  0  0
  -24.3590  -36.8937   22.2065 H   0  0  0  0  0  0
  -23.7234  -37.6574   23.6625 H   0  0  0  0  0  0
  -26.0251  -31.5911   20.5964 H   0  0  0  0  0  0
  -26.8266  -30.9031   21.9768 H   0  0  0  0  0  0
  -28.0911  -29.0841   21.2046 H   0  0  0  0  0  0
  -26.0759  -26.0838   18.8306 H   0  0  0  0  0  0
  -24.0109  -27.3693   18.9248 H   0  0  0  0  0  0
  -23.7436  -30.6118   19.4138 H   0  0  0  0  0  0
  -22.7415  -29.2581   19.8525 H   0  0  0  0  0  0
  -25.1249  -36.2029   25.0855 H   0  0  0  0  0  0
  -20.9822  -28.3327   24.1563 H   0  0  0  0  0  0
  -20.5712  -26.2296   23.3836 H   0  0  0  0  0  0
  -21.6660  -26.7539   22.1392 H   0  0  0  0  0  0
  -19.7029  -25.6010   21.1822 H   0  0  0  0  0  0
  -19.6775  -27.2792   20.6884 H   0  0  0  0  0  0
  -17.4179  -26.6363   21.4243 H   0  0  0  0  0  0
  -18.0298  -26.0099   22.9324 H   0  0  0  0  0  0
  -19.7836  -30.7230   24.2394 H   0  0  0  0  0  0
  -17.4871  -31.6246   24.5103 H   0  0  0  0  0  0
  -15.5264  -30.2862   23.7568 H   0  0  0  0  0  0
  -15.8598  -28.0855   22.7153 H   0  0  0  0  0  0
  -24.5902  -30.7050   25.7812 H   0  0  0  0  0  0
  -24.8971  -32.2871   26.4929 H   0  0  0  0  0  0
  -25.8092  -30.8843   27.0216 H   0  0  0  0  0  0
  -26.2816  -29.6750   24.1154 H   0  0  0  0  0  0
  -27.4097  -29.7244   25.4514 H   0  0  0  0  0  0
  -27.8649  -30.4318   23.9165 H   0  0  0  0  0  0
  -27.2719  -33.3554   26.2099 H   0  0  0  0  0  0
  -28.3869  -32.6820   25.0271 H   0  0  0  0  0  0
  -28.0740  -31.8313   26.5333 H   0  0  0  0  0  0
  -28.2618  -38.0121   24.7492 H   0  0  0  0  0  0
  -28.1028  -36.2657   24.6283 H   0  0  0  0  0  0
  -27.2300  -37.1502   25.8879 H   0  0  0  0  0  0
  -20.9383  -29.8810   21.7036 H   0  0  0  0  0  0
  -26.0160  -38.2891   24.1448 H   0  0  0  0  0  0
  -25.4574  -22.3268   24.0442 H   0  0  0  0  0  0
  -29.1091  -22.3254   20.7025 H   0  0  0  0  0  0
  -31.3802  -17.3961   19.3302 H   0  0  0  0  0  0
  -29.6304  -17.3406   19.0872 H   0  0  0  0  0  0
  -30.0814  -19.7373   19.3364 H   0  0  0  0  0  0
  -31.2260  -19.4357   20.6121 H   0  0  0  0  0  0
  -29.0819  -17.7165   22.8463 H   0  0  0  0  0  0
  -28.1194  -17.3503   21.4230 H   0  0  0  0  0  0
  -31.1275  -17.0407   21.7365 H   0  0  0  0  0  0
  -25.2864  -20.0401   24.0305 H   0  0  0  0  0  0
  -26.5568  -19.0447   23.3592 H   0  0  0  0  0  0
  -25.1912  -19.5746   22.3474 H   0  0  0  0  0  0
  -24.4789  -24.8038   22.0393 H   0  0  0  0  0  0
  -25.9055  -25.6607   21.5237 H   0  0  0  0  0  0
  -24.8053  -26.4053   22.6748 H   0  0  0  0  0  0
  -27.6358  -25.4152   24.9574 H   0  0  0  0  0  0
  -26.2550  -26.4976   24.8744 H   0  0  0  0  0  0
  -27.4573  -26.6156   23.6715 H   0  0  0  0  0  0
  -30.4431  -24.4420   22.8401 H   0  0  0  0  0  0
  -30.6785  -25.7020   21.6394 H   0  0  0  0  0  0
  -30.6663  -24.0235   21.1395 H   0  0  0  0  0  0
  -28.0288  -20.1869   19.8668 H   0  0  0  0  0  0
  -27.1389  -19.1940   20.9222 H   0  0  0  0  0  0
  -27.3611  -24.8898   19.9130 H   0  0  0  0  0  0
  -29.0229  -24.8352   19.4500 H   0  0  0  0  0  0
  -25.3880  -24.4895   24.2241 H   0  0  0  0  0  0
  -28.3767  -25.6406   22.2316 H   0  0  0  0  0  0
  -29.0150  -15.1716   21.4331 H   0  0  0  0  0  0
  -29.6639  -19.6891   22.0305 H   0  0  0  0  0  0
  1 25  1  0  0  0
  1 30  2  0  0  0
  1 89  1  0  0  0
  2  3  1  0  0  0
  2 25  1  0  0  0
  2 91  1  0  0  0
  2 92  1  0  0  0
  3  4  1  0  0  0
  3 93  1  0  0  0
  3 94  1  0  0  0
  4  5  1  0  0  0
  4 95  1  0  0  0
  4 96  1  0  0  0
  5  6  1  0  0  0
  5 26  1  0  0  0
  5 97  1  0  0  0
  6 25  1  0  0  0
  6 98  1  0  0  0
  6 99  1  0  0  0
  7  8  2  0  0  0
  7 26  1  0  0  0
  7 29  1  0  0  0
  8  9  1  0  0  0
  8 22  1  0  0  0
  9 10  1  0  0  0
  9 27  2  0  0  0
 10 11  2  0  0  0
 10 15  1  0  0  0
 11 12  1  0  0  0
 11100  1  0  0  0
 12 13  2  0  0  0
 12101  1  0  0  0
 13 14  1  0  0  0
 13 31  1  0  0  0
 14 15  2  0  0  0
 14102  1  0  0  0
 15103  1  0  0  0
 16 17  2  0  0  0
 16 21  1  0  0  0
 16 31  1  0  0  0
 17 18  1  0  0  0
 17104  1  0  0  0
 18 19  2  0  0  0
 18105  1  0  0  0
 19 20  1  0  0  0
 19 24  1  0  0  0
 20 21  2  0  0  0
 20106  1  0  0  0
 21 23  1  0  0  0
 22 28  1  0  0  0
 22 32  2  0  0  0
 26 27  1  0  0  0
 28107  1  0  0  0
 28108  1  0  0  0
 29109  1  0  0  0
 29110  1  0  0  0
 33 34  1  0  0  0
 33 66  1  0  0  0
 33 70  2  0  0  0
 34 36  1  0  0  0
 34 59  1  0  0  0
 34111  1  0  0  0
 35 44  2  0  0  0
 35 45  1  0  0  0
 35 68  1  0  0  0
 36 56  1  0  0  0
 36112  1  0  0  0
 37 39  1  0  0  0
 37 47  1  0  0  0
 37 66  1  0  0  0
 37113  1  0  0  0
 38 43  2  0  0  0
 38 46  1  0  0  0
 38 47  1  0  0  0
 39 64  1  0  0  0
 39 67  2  0  0  0
 40 52  1  0  0  0
 40 53  2  0  0  0
 40 58  1  0  0  0
 41114  1  0  0  0
 41115  1  0  0  0
 41116  1  0  0  0
 41 48  1  0  0  0
 42 43  1  0  0  0
 42 66  1  0  0  0
 42117  1  0  0  0
 42118  1  0  0  0
 43 44  1  0  0  0
 44119  1  0  0  0
 45 46  2  0  0  0
 45120  1  0  0  0
 46121  1  0  0  0
 47122  1  0  0  0
 47123  1  0  0  0
 48 56  1  0  0  0
 48 65  1  0  0  0
 48124  1  0  0  0
 49 50  1  0  0  0
 49 53  1  0  0  0
 49 64  1  0  0  0
 49125  1  0  0  0
 50 51  1  0  0  0
 50126  1  0  0  0
 50127  1  0  0  0
 51 52  1  0  0  0
 51128  1  0  0  0
 51129  1  0  0  0
 52130  1  0  0  0
 52131  1  0  0  0
 53 54  1  0  0  0
 54 55  2  0  0  0
 54132  1  0  0  0
 55 57  1  0  0  0
 55133  1  0  0  0
 56 69  2  0  0  0
 57 58  2  0  0  0
 57134  1  0  0  0
 58135  1  0  0  0
 59 60  1  0  0  0
 59 61  1  0  0  0
 59 62  1  0  0  0
 60136  1  0  0  0
 60137  1  0  0  0
 60138  1  0  0  0
 61139  1  0  0  0
 61140  1  0  0  0
 61141  1  0  0  0
 62142  1  0  0  0
 62143  1  0  0  0
 62144  1  0  0  0
 63 65  1  0  0  0
 63145  1  0  0  0
 63146  1  0  0  0
 63147  1  0  0  0
 64148  1  0  0  0
 65149  1  0  0  0
 68 86  1  0  0  0
 71 73  2  0  0  0
 71 75  1  0  0  0
 71150  1  0  0  0
 72 74  2  0  0  0
 72 76  1  0  0  0
 72151  1  0  0  0
 73 74  1  0  0  0
 73 81  1  0  0  0
 74 85  1  0  0  0
 75 76  2  0  0  0
 75 87  1  0  0  0
 76 88  1  0  0  0
 77 78  1  0  0  0
 77 80  1  0  0  0
 77152  1  0  0  0
 77153  1  0  0  0
 78 90  1  0  0  0
 78154  1  0  0  0
 78155  1  0  0  0
 79 80  1  0  0  0
 79 90  1  0  0  0
 79156  1  0  0  0
 79157  1  0  0  0
 80 89  1  0  0  0
 80158  1  0  0  0
 81159  1  0  0  0
 81160  1  0  0  0
 81161  1  0  0  0
 82162  1  0  0  0
 82163  1  0  0  0
 82164  1  0  0  0
 82 87  1  0  0  0
 83 87  1  0  0  0
 83165  1  0  0  0
 83166  1  0  0  0
 83167  1  0  0  0
 84168  1  0  0  0
 84169  1  0  0  0
 84170  1  0  0  0
 84 88  1  0  0  0
 85171  1  0  0  0
 85172  1  0  0  0
 85 90  1  0  0  0
 86 88  1  0  0  0
 86173  1  0  0  0
 86174  1  0  0  0
 87175  1  0  0  0
 88176  1  0  0  0
 89177  1  0  0  0
 90178  1  0  0  0
M  CHG  1  90   1
M  ISO  4   1 100  68 101  86 101  89 100
M  END
> <chiral flag>
0

> <version>
0

> <s_m_source_file>
/data/baiqing/PycharmProjects/Reinvent-master-3.2/result/LINK_invent/BTK/process_docking_weight1_custom_sum_contain_oxygen_bond_distance_aromatic_linkinvent_7_9_3/rearranged_h_0158.sdf

> <i_m_source_file_index>
99

> <r_mmod_Potential_Energy-OPLS-2005>
-107.663925170898

> <r_mmod_Stretch_Energy-OPLS-2005>
45.2964935302734

> <r_mmod_Bend_Energy-OPLS-2005>
150.596832275391

> <r_mmod_Torsional_Energy-OPLS-2005>
284.599670410156

> <r_mmod_Improper_Torsional_Energy-OPLS-2005>
5.22114610671997

> <r_mmod_Van_der_Waal_Energy-OPLS-2005>
149.588684082031

> <r_mmod_Electrostatic_Energy-OPLS-2005>
-311.880554199219

> <r_mmod_Solvation_Energy-OPLS-2005>
-444.826843261719

> <b_mmod_Minimization_Converged-OPLS-2005>
0

> <r_mmod_RMS_Derivative-OPLS-2005>
6.50162839889526

$$$$
